@<TRIPOS>MOLECULE
*****
 47 50 0 0 0
SMALL
GASTEIGER

@<TRIPOS>ATOM
      1 N          -3.9689   -1.4333   -2.4714 N.pl3   1  UNL1       -0.3134
      2 C          -3.8320   -0.6603   -1.2711 C.2     1  UNL1        0.2766
      3 N          -2.9786    0.2883   -1.2999 N.2     1  UNL1       -0.2229
      4 C          -2.6910    1.1824   -0.1958 C.3     1  UNL1        0.1232
      5 C          -2.6261    2.5917   -0.7692 C.3     1  UNL1        0.1196
      6 F          -3.8495    2.9328   -1.3651 F       1  UNL1       -0.2462
      7 C          -1.3584    0.8530    0.3323 C.ar    1  UNL1       -0.0156
      8 C          -0.9769    1.0495    1.6425 C.ar    1  UNL1       -0.0561
      9 C           0.3016    0.7005    2.0250 C.ar    1  UNL1       -0.0597
     10 C           1.1999    0.1609    1.1205 C.ar    1  UNL1       -0.0405
     11 C           0.8406   -0.0465   -0.2051 C.ar    1  UNL1        0.0328
     12 N           1.7220   -0.5939   -1.1684 N.pl3   1  UNL1       -0.2977
     13 C           2.9250   -1.2822   -0.8812 C.ar    1  UNL1        0.1490
     14 N           2.9683   -2.6480   -0.9230 N.ar    1  UNL1       -0.2380
     15 C           4.0990   -3.2938   -0.6491 C.ar    1  UNL1        0.0304
     16 C           5.2502   -2.6170   -0.3181 C.ar    1  UNL1       -0.0342
     17 C           5.2722   -1.2272   -0.2576 C.ar    1  UNL1        0.0066
     18 C           6.4179   -0.5457    0.0766 C.ar    1  UNL1       -0.0326
     19 C           6.3543    0.8235    0.1180 C.ar    1  UNL1        0.0596
     20 CL          7.7647    1.7475    0.5331 Cl      1  UNL1       -0.0820
     21 C           5.1812    1.4880   -0.1656 C.ar    1  UNL1        0.0467
     22 N           4.0969    0.7802   -0.4844 N.ar    1  UNL1       -0.2501
     23 C           4.0699   -0.5841   -0.5501 C.ar    1  UNL1        0.1109
     24 C          -0.4426    0.3139   -0.5483 C.ar    1  UNL1       -0.0349
     25 C          -3.7961    1.1312    0.8338 C.3     1  UNL1        0.0250
     26 C          -4.2639   -0.2860    1.0789 C.3     1  UNL1        0.1998
     27 C          -5.6099   -0.1942    1.8185 C.3     1  UNL1        0.4266
     28 F          -5.4861    0.4620    3.0113 F       1  UNL1       -0.1669
     29 F          -6.0872   -1.4648    2.0885 F       1  UNL1       -0.1669
     30 F          -6.5121    0.4497    0.9835 F       1  UNL1       -0.1669
     31 O          -4.5620   -0.9053   -0.1467 O.2     1  UNL1       -0.4534
     32 H          -4.3336   -2.4086   -2.4686 H       1  UNL1        0.1466
     33 H          -3.6989   -1.0188   -3.3848 H       1  UNL1        0.1466
     34 H          -2.4287    3.3583    0.0023 H       1  UNL1        0.0643
     35 H          -1.7864    2.6597   -1.5238 H       1  UNL1        0.0643
     36 H          -1.6733    1.4707    2.3473 H       1  UNL1        0.0621
     37 H           0.6535    0.8344    3.0472 H       1  UNL1        0.0618
     38 H           2.2041   -0.1180    1.4081 H       1  UNL1        0.0636
     39 H           1.4767   -0.4888   -2.1871 H       1  UNL1        0.1536
     40 H           4.0949   -4.3940   -0.6938 H       1  UNL1        0.0830
     41 H           6.1506   -3.1793   -0.1053 H       1  UNL1        0.0639
     42 H           7.3345   -1.0613    0.2951 H       1  UNL1        0.0639
     43 H           5.1206    2.5650   -0.1337 H       1  UNL1        0.0844
     44 H          -0.7131    0.1410   -1.6052 H       1  UNL1        0.0640
     45 H          -3.5993    1.7019    1.7380 H       1  UNL1        0.0331
     46 H          -4.6815    1.6476    0.3517 H       1  UNL1        0.0331
     47 H          -3.5425   -0.8825    1.6751 H       1  UNL1        0.0826
@<TRIPOS>BOND
     1     1     2    1
     2     2     3    2
     3     3     4    1
     4     4     5    1
     5     5     6    1
     6     4     7    1
     7     7     8   ar
     8     8     9   ar
     9     9    10   ar
    10    10    11   ar
    11    11    12    1
    12    12    13    1
    13    13    14   ar
    14    14    15   ar
    15    15    16   ar
    16    16    17   ar
    17    17    18   ar
    18    18    19   ar
    19    19    20    1
    20    19    21   ar
    21    21    22   ar
    22    22    23   ar
    23    11    24   ar
    24     4    25    1
    25    25    26    1
    26    26    27    1
    27    27    28    1
    28    27    29    1
    29    27    30    1
    30    26    31    1
    31    31     2    1
    32    24     7   ar
    33    23    13   ar
    34    23    17   ar
    35     1    32    1
    36     1    33    1
    37     5    34    1
    38     5    35    1
    39     8    36    1
    40     9    37    1
    41    10    38    1
    42    12    39    1
    43    15    40    1
    44    16    41    1
    45    18    42    1
    46    21    43    1
    47    24    44    1
    48    25    45    1
    49    25    46    1
    50    26    47    1
