
     RDKit          3D

 49 52  0  0  0  0  0  0  0  0999 V2000
   10.6166   -0.4488   -1.4951 C   0  0  0  0  0  0  0  0  0  0  0  0
    9.8156   -0.8177   -0.6555 C   0  0  0  0  0  0  0  0  0  0  0  0
    8.8509   -1.2902    0.3627 C   0  0  0  0  0  0  0  0  0  0  0  0
    7.6279   -0.8599    0.2559 O   0  0  0  0  0  0  0  0  0  0  0  0
    6.4029   -0.4696    0.2037 C   0  0  0  0  0  0  0  0  0  0  0  0
    5.9910    0.4094   -0.8166 C   0  0  0  0  0  0  0  0  0  0  0  0
    4.7399    0.8039   -0.8655 N   0  0  0  0  0  0  0  0  0  0  0  0
    3.7891    0.4160    0.0193 C   0  0  0  0  0  0  0  0  0  0  0  0
    2.4578    0.9255   -0.1495 C   0  0  0  0  0  0  0  0  0  0  0  0
    2.1772    1.7772   -1.1960 F   0  0  0  0  0  0  0  0  0  0  0  0
    1.4312    0.6418    0.6205 C   0  0  0  0  0  0  0  0  0  0  0  0
    0.1106    1.2083    0.3747 C   0  0  0  0  0  0  0  0  0  0  0  0
   -0.0557    2.5220    0.0067 C   0  0  0  0  0  0  0  0  0  0  0  0
   -1.2876    2.9989   -0.2159 N   0  0  0  0  0  0  0  0  0  0  0  0
   -2.3839    2.2469   -0.0958 C   0  0  0  0  0  0  0  0  0  0  0  0
   -3.6360    2.7603   -0.3265 F   0  0  0  0  0  0  0  0  0  0  0  0
   -2.3047    0.9001    0.2746 C   0  0  0  0  0  0  0  0  0  0  0  0
   -3.5345    0.0700    0.4036 C   0  0  1  0  0  0  0  0  0  0  0  0
   -3.0985   -1.3242    0.8693 C   0  0  0  0  0  0  0  0  0  0  0  0
   -4.3483    0.7075    1.4165 N   0  0  0  0  0  0  0  0  0  0  0  0
   -5.5582    0.3744    1.6616 C   0  0  0  0  0  0  0  0  0  0  0  0
   -6.2955    1.0274    2.6548 N   0  0  0  0  0  0  0  0  0  0  0  0
   -6.2686   -0.9372    0.6904 S   0  0  0  0  0  0  0  0  0  0  0  0
   -5.4840   -0.7923   -0.9547 C   0  0  1  0  0  0  0  0  0  0  0  0
   -5.6235   -1.9206   -1.8805 C   0  0  0  0  0  0  0  0  0  0  0  0
   -5.6263   -1.7259   -3.1122 O   0  0  0  0  0  0  0  0  0  0  0  0
   -5.7523   -3.2036   -1.3942 O   0  0  0  0  0  0  0  0  0  0  0  0
   -5.3406    0.6052   -1.4273 C   0  0  0  0  0  0  0  0  0  0  0  0
   -4.1757   -0.1074   -0.9214 C   0  0  1  0  0  0  0  0  0  0  0  0
   -1.0304    0.4286    0.4990 C   0  0  0  0  0  0  0  0  0  0  0  0
    4.1649   -0.4276    1.0062 C   0  0  0  0  0  0  0  0  0  0  0  0
    5.4245   -0.8576    1.0994 N   0  0  0  0  0  0  0  0  0  0  0  0
   11.3160   -0.1466   -2.2176 H   0  0  0  0  0  0  0  0  0  0  0  0
    8.9202   -2.4184    0.3211 H   0  0  0  0  0  0  0  0  0  0  0  0
    9.3088   -1.0065    1.3706 H   0  0  0  0  0  0  0  0  0  0  0  0
    6.6821    0.7638   -1.5559 H   0  0  0  0  0  0  0  0  0  0  0  0
    1.5818   -0.0377    1.4667 H   0  0  0  0  0  0  0  0  0  0  0  0
    0.8192    3.1907   -0.0999 H   0  0  0  0  0  0  0  0  0  0  0  0
   -2.4231   -1.7318    0.0921 H   0  0  0  0  0  0  0  0  0  0  0  0
   -3.9799   -1.9949    0.9745 H   0  0  0  0  0  0  0  0  0  0  0  0
   -2.5321   -1.2289    1.8071 H   0  0  0  0  0  0  0  0  0  0  0  0
   -5.9072    1.2401    3.6095 H   0  0  0  0  0  0  0  0  0  0  0  0
   -7.2908    1.3542    2.5196 H   0  0  0  0  0  0  0  0  0  0  0  0
   -6.0850   -3.9880   -1.9388 H   0  0  0  0  0  0  0  0  0  0  0  0
   -5.4287    0.7696   -2.5419 H   0  0  0  0  0  0  0  0  0  0  0  0
   -5.8679    1.3949   -0.8756 H   0  0  0  0  0  0  0  0  0  0  0  0
   -3.4270   -0.4229   -1.7148 H   0  0  0  0  0  0  0  0  0  0  0  0
   -0.8941   -0.6221    0.7940 H   0  0  0  0  0  0  0  0  0  0  0  0
    3.4119   -0.7562    1.7363 H   0  0  0  0  0  0  0  0  0  0  0  0
  1  2  3  0
  2  3  1  0
  3  4  1  0
  4  5  1  0
  5  6  2  0
  6  7  1  0
  7  8  2  0
  8  9  1  0
  9 10  1  0
  9 11  2  0
 11 12  1  0
 12 13  2  0
 13 14  1  0
 14 15  2  0
 15 16  1  0
 15 17  1  0
 17 18  1  0
 18 19  1  1
 18 20  1  0
 20 21  2  0
 21 22  1  0
 21 23  1  0
 23 24  1  0
 24 25  1  6
 25 26  2  0
 25 27  1  0
 24 28  1  0
 28 29  1  0
 17 30  2  0
  8 31  1  0
 31 32  2  0
 32  5  1  0
 30 12  1  0
 29 18  1  0
 29 24  1  0
  1 33  1  0
  3 34  1  0
  3 35  1  0
  6 36  1  0
 11 37  1  0
 13 38  1  0
 19 39  1  0
 19 40  1  0
 19 41  1  0
 22 42  1  0
 22 43  1  0
 27 44  1  0
 28 45  1  0
 28 46  1  0
 29 47  1  6
 30 48  1  0
 31 49  1  0
M  END
$$$$
