@<TRIPOS>MOLECULE
*****
 49 52 0 0 0
SMALL
GASTEIGER

@<TRIPOS>ATOM
      1 C          10.6166   -0.4488   -1.4951 C.1     1  UNL1       -0.1158
      2 C           9.8156   -0.8177   -0.6555 C.1     1  UNL1       -0.0647
      3 C           8.8509   -1.2902    0.3627 C.3     1  UNL1        0.1513
      4 O           7.6279   -0.8599    0.2559 O.3     1  UNL1       -0.4624
      5 C           6.4029   -0.4696    0.2037 C.ar    1  UNL1        0.2344
      6 C           5.9910    0.4094   -0.8166 C.ar    1  UNL1        0.0899
      7 N           4.7399    0.8039   -0.8655 N.ar    1  UNL1       -0.2459
      8 C           3.7891    0.4160    0.0193 C.ar    1  UNL1        0.1172
      9 C           2.4578    0.9255   -0.1495 C.2     1  UNL1        0.1507
     10 F           2.1772    1.7772   -1.1960 F       1  UNL1       -0.2032
     11 C           1.4312    0.6418    0.6205 C.2     1  UNL1       -0.0157
     12 C           0.1106    1.2083    0.3747 C.ar    1  UNL1       -0.0036
     13 C          -0.0557    2.5220    0.0067 C.ar    1  UNL1        0.0379
     14 N          -1.2876    2.9989   -0.2159 N.ar    1  UNL1       -0.2267
     15 C          -2.3839    2.2469   -0.0958 C.ar    1  UNL1        0.2187
     16 F          -3.6360    2.7603   -0.3265 F       1  UNL1       -0.1835
     17 C          -2.3047    0.9001    0.2746 C.ar    1  UNL1        0.0349
     18 C          -3.5345    0.0700    0.4036 C.3     1  UNL1        0.0951
     19 C          -3.0985   -1.3242    0.8693 C.3     1  UNL1       -0.0351
     20 N          -4.3483    0.7075    1.4165 N.2     1  UNL1       -0.2520
     21 C          -5.5582    0.3744    1.6616 C.2     1  UNL1        0.1485
     22 N          -6.2955    1.0274    2.6548 N.pl3   1  UNL1       -0.3380
     23 S          -6.2686   -0.9372    0.6904 S.3     1  UNL1       -0.0726
     24 C          -5.4840   -0.7923   -0.9547 C.3     1  UNL1        0.1257
     25 C          -5.6235   -1.9206   -1.8805 C.2     1  UNL1        0.3217
     26 O          -5.6263   -1.7259   -3.1122 O.2     1  UNL1       -0.2494
     27 O          -5.7523   -3.2036   -1.3942 O.3     1  UNL1       -0.4796
     28 C          -5.3406    0.6052   -1.4273 C.3     1  UNL1       -0.0201
     29 C          -4.1757   -0.1074   -0.9214 C.3     1  UNL1        0.0154
     30 C          -1.0304    0.4286    0.4990 C.ar    1  UNL1       -0.0433
     31 C           4.1649   -0.4276    1.0062 C.ar    1  UNL1        0.0596
     32 N           5.4245   -0.8576    1.0994 N.ar    1  UNL1       -0.2178
     33 H          11.3160   -0.1466   -2.2176 H       1  UNL1        0.1229
     34 H           8.9202   -2.4184    0.3211 H       1  UNL1        0.0837
     35 H           9.3088   -1.0065    1.3706 H       1  UNL1        0.0837
     36 H           6.6821    0.7638   -1.5559 H       1  UNL1        0.0884
     37 H           1.5818   -0.0377    1.4667 H       1  UNL1        0.0653
     38 H           0.8192    3.1907   -0.0999 H       1  UNL1        0.0836
     39 H          -2.4231   -1.7318    0.0921 H       1  UNL1        0.0256
     40 H          -3.9799   -1.9949    0.9745 H       1  UNL1        0.0256
     41 H          -2.5321   -1.2289    1.8071 H       1  UNL1        0.0256
     42 H          -5.9072    1.2401    3.6095 H       1  UNL1        0.1442
     43 H          -7.2908    1.3542    2.5196 H       1  UNL1        0.1442
     44 H          -6.0850   -3.9880   -1.9388 H       1  UNL1        0.2951
     45 H          -5.4287    0.7696   -2.5419 H       1  UNL1        0.0288
     46 H          -5.8679    1.3949   -0.8756 H       1  UNL1        0.0288
     47 H          -3.4270   -0.4229   -1.7148 H       1  UNL1        0.0347
     48 H          -0.8941   -0.6221    0.7940 H       1  UNL1        0.0629
     49 H           3.4119   -0.7562    1.7363 H       1  UNL1        0.0853
@<TRIPOS>BOND
     1     1     2    3
     2     2     3    1
     3     3     4    1
     4     4     5    1
     5     5     6   ar
     6     6     7   ar
     7     7     8   ar
     8     8     9    1
     9     9    10    1
    10     9    11    2
    11    11    12    1
    12    12    13   ar
    13    13    14   ar
    14    14    15   ar
    15    15    16    1
    16    15    17   ar
    17    17    18    1
    18    18    19    1
    19    18    20    1
    20    20    21    2
    21    21    22    1
    22    21    23    1
    23    23    24    1
    24    24    25    1
    25    25    26    2
    26    25    27    1
    27    24    28    1
    28    28    29    1
    29    17    30   ar
    30     8    31   ar
    31    31    32   ar
    32    32     5   ar
    33    30    12   ar
    34    29    18    1
    35    29    24    1
    36     1    33    1
    37     3    34    1
    38     3    35    1
    39     6    36    1
    40    11    37    1
    41    13    38    1
    42    19    39    1
    43    19    40    1
    44    19    41    1
    45    22    42    1
    46    22    43    1
    47    27    44    1
    48    28    45    1
    49    28    46    1
    50    29    47    1
    51    30    48    1
    52    31    49    1
