@<TRIPOS>MOLECULE
*****
 43 44 0 0 0
SMALL
GASTEIGER

@<TRIPOS>ATOM
      1 O           7.2822    0.7245    1.5090 O.2     1  UNL1       -0.4589
      2 P           5.8893    0.6453    2.0980 P.3     1  UNL1        0.1314
      3 O           5.5735    1.9204    3.1423 O.co2   1  UNL1       -0.3563
      4 O           5.7801   -0.8434    2.9043 O.co2   1  UNL1       -0.3563
      5 C           4.7307    0.6730    0.6765 C.3     1  UNL1        0.1187
      6 C           3.4726   -0.0055    1.1334 C.3     1  UNL1       -0.0246
      7 C           2.4125   -0.0658    0.0743 C.3     1  UNL1       -0.0469
      8 C           1.2085   -0.7818    0.6998 C.3     1  UNL1       -0.0276
      9 C           0.1036   -0.8851   -0.2900 C.ar    1  UNL1       -0.0471
     10 C          -0.0116   -1.9666   -1.1378 C.ar    1  UNL1       -0.0586
     11 C          -1.0418   -2.0475   -2.0500 C.ar    1  UNL1       -0.0612
     12 C          -2.0009   -1.0316   -2.1404 C.ar    1  UNL1       -0.0582
     13 C          -1.8849    0.0520   -1.2906 C.ar    1  UNL1       -0.0428
     14 C          -2.8976    1.1353   -1.3788 C.3     1  UNL1       -0.0024
     15 C          -4.0543    0.9101   -0.4896 C.ar    1  UNL1       -0.0431
     16 C          -5.1360    0.2030   -0.9952 C.ar    1  UNL1       -0.0583
     17 C          -6.2666   -0.0592   -0.2392 C.ar    1  UNL1       -0.0615
     18 C          -6.3389    0.3904    1.0657 C.ar    1  UNL1       -0.0617
     19 C          -5.2638    1.0911    1.5627 C.ar    1  UNL1       -0.0615
     20 C          -4.1262    1.3579    0.8100 C.ar    1  UNL1       -0.0583
     21 C          -0.8532    0.1324   -0.3775 C.ar    1  UNL1       -0.0551
     22 S           5.5243   -0.1771   -0.6500 S.3     1  UNL1       -0.0708
     23 O           5.8358   -1.5762   -0.1621 O.2     1  UNL1       -0.1846
     24 O           6.8437    0.5050   -0.9125 O.2     1  UNL1       -0.1846
     25 O           4.6187   -0.2068   -2.0430 O.co2   1  UNL1       -0.7240
     26 H           4.5134    1.7367    0.4314 H       1  UNL1        0.0604
     27 H           3.0641    0.5918    1.9761 H       1  UNL1        0.0288
     28 H           3.6725   -1.0109    1.5279 H       1  UNL1        0.0288
     29 H           2.7001   -0.6851   -0.7965 H       1  UNL1        0.0269
     30 H           2.0506    0.9190   -0.2337 H       1  UNL1        0.0269
     31 H           1.4919   -1.7961    1.0530 H       1  UNL1        0.0313
     32 H           0.8296   -0.2356    1.5838 H       1  UNL1        0.0313
     33 H           0.7250   -2.7537   -1.0731 H       1  UNL1        0.0620
     34 H          -1.0939   -2.9158   -2.6971 H       1  UNL1        0.0618
     35 H          -2.8183   -1.0894   -2.8599 H       1  UNL1        0.0620
     36 H          -2.3936    2.1118   -1.1189 H       1  UNL1        0.0361
     37 H          -3.2862    1.2446   -2.4224 H       1  UNL1        0.0361
     38 H          -5.0985   -0.1559   -2.0106 H       1  UNL1        0.0620
     39 H          -7.1196   -0.6157   -0.6350 H       1  UNL1        0.0618
     40 H          -7.2055    0.2042    1.6850 H       1  UNL1        0.0618
     41 H          -5.3210    1.4455    2.5915 H       1  UNL1        0.0618
     42 H          -3.2946    1.9100    1.2216 H       1  UNL1        0.0620
     43 H          -0.8157    1.0006    0.2574 H       1  UNL1        0.0623
@<TRIPOS>UNITY_ATOM_ATTR
3 1
charge -1
4 1
charge -1
25 1
charge -1
@<TRIPOS>BOND
     1     1     2    2
     2     2     3    1
     3     2     4    1
     4     2     5    1
     5     5     6    1
     6     6     7    1
     7     7     8    1
     8     8     9    1
     9     9    10   ar
    10    10    11   ar
    11    11    12   ar
    12    12    13   ar
    13    13    14    1
    14    14    15    1
    15    15    16   ar
    16    16    17   ar
    17    17    18   ar
    18    18    19   ar
    19    19    20   ar
    20    13    21   ar
    21     5    22    1
    22    22    23    2
    23    22    24    2
    24    22    25    1
    25    21     9   ar
    26    20    15   ar
    27     5    26    1
    28     6    27    1
    29     6    28    1
    30     7    29    1
    31     7    30    1
    32     8    31    1
    33     8    32    1
    34    10    33    1
    35    11    34    1
    36    12    35    1
    37    14    36    1
    38    14    37    1
    39    16    38    1
    40    17    39    1
    41    18    40    1
    42    19    41    1
    43    20    42    1
    44    21    43    1
