
     RDKit          3D

 43 44  0  0  0  0  0  0  0  0999 V2000
    7.2822    0.7245    1.5090 O   0  0  0  0  0  0  0  0  0  0  0  0
    5.8893    0.6453    2.0980 P   0  0  0  0  0  5  0  0  0  0  0  0
    5.5735    1.9204    3.1423 O   0  0  0  0  0  1  0  0  0  0  0  0
    5.7801   -0.8434    2.9043 O   0  0  0  0  0  1  0  0  0  0  0  0
    4.7307    0.6730    0.6765 C   0  0  0  0  0  0  0  0  0  0  0  0
    3.4726   -0.0055    1.1334 C   0  0  0  0  0  0  0  0  0  0  0  0
    2.4125   -0.0658    0.0743 C   0  0  0  0  0  0  0  0  0  0  0  0
    1.2085   -0.7818    0.6998 C   0  0  0  0  0  0  0  0  0  0  0  0
    0.1036   -0.8851   -0.2900 C   0  0  0  0  0  0  0  0  0  0  0  0
   -0.0116   -1.9666   -1.1378 C   0  0  0  0  0  0  0  0  0  0  0  0
   -1.0418   -2.0475   -2.0500 C   0  0  0  0  0  0  0  0  0  0  0  0
   -2.0009   -1.0316   -2.1404 C   0  0  0  0  0  0  0  0  0  0  0  0
   -1.8849    0.0520   -1.2906 C   0  0  0  0  0  0  0  0  0  0  0  0
   -2.8976    1.1353   -1.3788 C   0  0  0  0  0  0  0  0  0  0  0  0
   -4.0543    0.9101   -0.4896 C   0  0  0  0  0  0  0  0  0  0  0  0
   -5.1360    0.2030   -0.9952 C   0  0  0  0  0  0  0  0  0  0  0  0
   -6.2666   -0.0592   -0.2392 C   0  0  0  0  0  0  0  0  0  0  0  0
   -6.3389    0.3904    1.0657 C   0  0  0  0  0  0  0  0  0  0  0  0
   -5.2638    1.0911    1.5627 C   0  0  0  0  0  0  0  0  0  0  0  0
   -4.1262    1.3579    0.8100 C   0  0  0  0  0  0  0  0  0  0  0  0
   -0.8532    0.1324   -0.3775 C   0  0  0  0  0  0  0  0  0  0  0  0
    5.5243   -0.1771   -0.6500 S   0  0  0  0  0  6  0  0  0  0  0  0
    5.8358   -1.5762   -0.1621 O   0  0  0  0  0  0  0  0  0  0  0  0
    6.8437    0.5050   -0.9125 O   0  0  0  0  0  0  0  0  0  0  0  0
    4.6187   -0.2068   -2.0430 O   0  0  0  0  0  1  0  0  0  0  0  0
    4.5134    1.7367    0.4314 H   0  0  0  0  0  0  0  0  0  0  0  0
    3.0641    0.5918    1.9761 H   0  0  0  0  0  0  0  0  0  0  0  0
    3.6725   -1.0109    1.5279 H   0  0  0  0  0  0  0  0  0  0  0  0
    2.7001   -0.6851   -0.7965 H   0  0  0  0  0  0  0  0  0  0  0  0
    2.0506    0.9190   -0.2337 H   0  0  0  0  0  0  0  0  0  0  0  0
    1.4919   -1.7961    1.0530 H   0  0  0  0  0  0  0  0  0  0  0  0
    0.8296   -0.2356    1.5838 H   0  0  0  0  0  0  0  0  0  0  0  0
    0.7250   -2.7537   -1.0731 H   0  0  0  0  0  0  0  0  0  0  0  0
   -1.0939   -2.9158   -2.6971 H   0  0  0  0  0  0  0  0  0  0  0  0
   -2.8183   -1.0894   -2.8599 H   0  0  0  0  0  0  0  0  0  0  0  0
   -2.3936    2.1118   -1.1189 H   0  0  0  0  0  0  0  0  0  0  0  0
   -3.2862    1.2446   -2.4224 H   0  0  0  0  0  0  0  0  0  0  0  0
   -5.0985   -0.1559   -2.0106 H   0  0  0  0  0  0  0  0  0  0  0  0
   -7.1196   -0.6157   -0.6350 H   0  0  0  0  0  0  0  0  0  0  0  0
   -7.2055    0.2042    1.6850 H   0  0  0  0  0  0  0  0  0  0  0  0
   -5.3210    1.4455    2.5915 H   0  0  0  0  0  0  0  0  0  0  0  0
   -3.2946    1.9100    1.2216 H   0  0  0  0  0  0  0  0  0  0  0  0
   -0.8157    1.0006    0.2574 H   0  0  0  0  0  0  0  0  0  0  0  0
  1  2  2  0
  2  3  1  0
  2  4  1  0
  2  5  1  0
  5  6  1  0
  6  7  1  0
  7  8  1  0
  8  9  1  0
  9 10  2  0
 10 11  1  0
 11 12  2  0
 12 13  1  0
 13 14  1  0
 14 15  1  0
 15 16  2  0
 16 17  1  0
 17 18  2  0
 18 19  1  0
 19 20  2  0
 13 21  2  0
  5 22  1  0
 22 23  2  0
 22 24  2  0
 22 25  1  0
 21  9  1  0
 20 15  1  0
  5 26  1  0
  6 27  1  0
  6 28  1  0
  7 29  1  0
  7 30  1  0
  8 31  1  0
  8 32  1  0
 10 33  1  0
 11 34  1  0
 12 35  1  0
 14 36  1  0
 14 37  1  0
 16 38  1  0
 17 39  1  0
 18 40  1  0
 19 41  1  0
 20 42  1  0
 21 43  1  0
M  CHG  3   3  -1   4  -1  25  -1
M  END
$$$$
