
     RDKit          3D

 48 50  0  0  0  0  0  0  0  0999 V2000
   -5.5462   -0.7103   -1.2151 C   0  0  0  0  0  0  0  0  0  0  0  0
   -4.3070   -1.5809   -1.0283 C   0  0  0  0  0  0  0  0  0  0  0  0
   -4.7530   -2.9763   -0.7696 C   0  0  0  0  0  0  0  0  0  0  0  0
   -3.5259   -0.9661    0.0598 C   0  0  0  0  0  0  0  0  0  0  0  0
   -2.5598   -0.0110   -0.1793 C   0  0  0  0  0  0  0  0  0  0  0  0
   -1.7801    0.6151    0.8012 C   0  0  0  0  0  0  0  0  0  0  0  0
   -0.8330    1.5564    0.5244 O   0  0  0  0  0  0  0  0  0  0  0  0
    0.5097    1.3419    0.2630 C   0  0  0  0  0  0  0  0  0  0  0  0
    1.4873    1.3260    1.2647 C   0  0  0  0  0  0  0  0  0  0  0  0
    1.1111    1.5495    2.6671 C   0  0  0  0  0  0  0  0  0  0  0  0
    2.8291    1.1137    1.0268 C   0  0  0  0  0  0  0  0  0  0  0  0
    3.2658    0.9020   -0.2611 C   0  0  0  0  0  0  0  0  0  0  0  0
    2.3505    0.9064   -1.2918 C   0  0  0  0  0  0  0  0  0  0  0  0
    1.0230    1.1231   -0.9993 C   0  0  0  0  0  0  0  0  0  0  0  0
    0.1256    1.1147   -2.1692 C   0  0  0  0  0  0  0  0  0  0  0  0
    4.6464    0.6818   -0.5201 N   0  0  0  0  0  0  0  0  0  0  0  0
    5.2988   -0.2107    0.2285 N   0  0  0  0  0  0  0  0  0  0  0  0
    6.6051   -0.4160   -0.0203 C   0  0  0  0  0  0  0  0  0  0  0  0
    7.2140    0.3033   -1.0368 C   0  0  0  0  0  0  0  0  0  0  0  0
    8.4509    0.0112   -1.1645 O   0  0  0  0  0  0  0  0  0  0  0  0
    6.5590    1.2022   -1.7914 N   0  0  0  0  0  0  0  0  0  0  0  0
    5.2513    1.3844   -1.5165 C   0  0  0  0  0  0  0  0  0  0  0  0
    4.6024    2.2256   -2.2096 O   0  0  0  0  0  0  0  0  0  0  0  0
   -2.0922    0.1596    2.0730 C   0  0  0  0  0  0  0  0  0  0  0  0
   -3.0430   -0.7895    2.3832 C   0  0  0  0  0  0  0  0  0  0  0  0
   -3.7674   -1.3571    1.3563 C   0  0  0  0  0  0  0  0  0  0  0  0
   -4.7220   -2.3066    1.6386 O   0  0  0  0  0  0  0  0  0  0  0  0
   -6.2150   -1.1909   -1.9599 H   0  0  0  0  0  0  0  0  0  0  0  0
   -5.2425    0.3106   -1.5542 H   0  0  0  0  0  0  0  0  0  0  0  0
   -6.0547   -0.6458   -0.2305 H   0  0  0  0  0  0  0  0  0  0  0  0
   -3.7672   -1.5451   -2.0061 H   0  0  0  0  0  0  0  0  0  0  0  0
   -4.0259   -3.6312   -0.2662 H   0  0  0  0  0  0  0  0  0  0  0  0
   -4.9149   -3.4670   -1.7752 H   0  0  0  0  0  0  0  0  0  0  0  0
   -5.7834   -3.0154   -0.3163 H   0  0  0  0  0  0  0  0  0  0  0  0
   -2.4346    0.2392   -1.2080 H   0  0  0  0  0  0  0  0  0  0  0  0
    1.0715    0.5890    3.2065 H   0  0  0  0  0  0  0  0  0  0  0  0
    0.1910    2.1639    2.7591 H   0  0  0  0  0  0  0  0  0  0  0  0
    1.9067    2.1652    3.1451 H   0  0  0  0  0  0  0  0  0  0  0  0
    3.5570    1.1075    1.8225 H   0  0  0  0  0  0  0  0  0  0  0  0
    2.7220    0.7396   -2.2761 H   0  0  0  0  0  0  0  0  0  0  0  0
    0.6413    1.3190   -3.1286 H   0  0  0  0  0  0  0  0  0  0  0  0
   -0.7480    1.8008   -2.0291 H   0  0  0  0  0  0  0  0  0  0  0  0
   -0.2656    0.0635   -2.2455 H   0  0  0  0  0  0  0  0  0  0  0  0
    7.1055   -1.1437    0.6014 H   0  0  0  0  0  0  0  0  0  0  0  0
    7.0892    1.6958   -2.5298 H   0  0  0  0  0  0  0  0  0  0  0  0
   -1.5741    0.5543    2.9253 H   0  0  0  0  0  0  0  0  0  0  0  0
   -3.2408   -1.1036    3.3952 H   0  0  0  0  0  0  0  0  0  0  0  0
   -4.4178   -3.1977    2.0614 H   0  0  0  0  0  0  0  0  0  0  0  0
  1  2  1  0
  2  3  1  0
  2  4  1  0
  4  5  2  0
  5  6  1  0
  6  7  1  0
  7  8  1  0
  8  9  2  0
  9 10  1  0
  9 11  1  0
 11 12  2  0
 12 13  1  0
 13 14  2  0
 14 15  1  0
 12 16  1  0
 16 17  1  0
 17 18  2  0
 18 19  1  0
 19 20  2  0
 19 21  1  0
 21 22  1  0
 22 23  2  0
  6 24  2  0
 24 25  1  0
 25 26  2  0
 26 27  1  0
 26  4  1  0
 14  8  1  0
 22 16  1  0
  1 28  1  0
  1 29  1  0
  1 30  1  0
  2 31  1  0
  3 32  1  0
  3 33  1  0
  3 34  1  0
  5 35  1  0
 10 36  1  0
 10 37  1  0
 10 38  1  0
 11 39  1  0
 13 40  1  0
 15 41  1  0
 15 42  1  0
 15 43  1  0
 18 44  1  0
 21 45  1  0
 24 46  1  0
 25 47  1  0
 27 48  1  0
M  END
$$$$
