@<TRIPOS>MOLECULE
*****
 48 50 0 0 0
SMALL
GASTEIGER

@<TRIPOS>ATOM
      1 C          -5.5462   -0.7103   -1.2151 C.3     1  UNL1       -0.0585
      2 C          -4.3070   -1.5809   -1.0283 C.3     1  UNL1       -0.0180
      3 C          -4.7530   -2.9763   -0.7696 C.3     1  UNL1       -0.0585
      4 C          -3.5259   -0.9661    0.0598 C.ar    1  UNL1        0.0001
      5 C          -2.5598   -0.0110   -0.1793 C.ar    1  UNL1       -0.0124
      6 C          -1.7801    0.6151    0.8012 C.ar    1  UNL1        0.1290
      7 O          -0.8330    1.5564    0.5244 O.3     1  UNL1       -0.4555
      8 C           0.5097    1.3419    0.2630 C.ar    1  UNL1        0.1343
      9 C           1.4873    1.3260    1.2647 C.ar    1  UNL1       -0.0059
     10 C           1.1111    1.5495    2.6671 C.3     1  UNL1       -0.0362
     11 C           2.8291    1.1137    1.0268 C.ar    1  UNL1       -0.0297
     12 C           3.2658    0.9020   -0.2611 C.ar    1  UNL1        0.0714
     13 C           2.3505    0.9064   -1.2918 C.ar    1  UNL1       -0.0297
     14 C           1.0230    1.1231   -0.9993 C.ar    1  UNL1       -0.0059
     15 C           0.1256    1.1147   -2.1692 C.3     1  UNL1       -0.0362
     16 N           4.6464    0.6818   -0.5201 N.ar    1  UNL1       -0.1817
     17 N           5.2988   -0.2107    0.2285 N.ar    1  UNL1       -0.1651
     18 C           6.6051   -0.4160   -0.0203 C.ar    1  UNL1        0.1128
     19 C           7.2140    0.3033   -1.0368 C.ar    1  UNL1        0.2724
     20 O           8.4509    0.0112   -1.1645 O.2     1  UNL1       -0.2661
     21 N           6.5590    1.2022   -1.7914 N.ar    1  UNL1       -0.2722
     22 C           5.2513    1.3844   -1.5165 C.ar    1  UNL1        0.3502
     23 O           4.6024    2.2256   -2.2096 O.2     1  UNL1       -0.2446
     24 C          -2.0922    0.1596    2.0730 C.ar    1  UNL1       -0.0159
     25 C          -3.0430   -0.7895    2.3832 C.ar    1  UNL1       -0.0164
     26 C          -3.7674   -1.3571    1.3563 C.ar    1  UNL1        0.1205
     27 O          -4.7220   -2.3066    1.6386 O.3     1  UNL1       -0.5065
     28 H          -6.2150   -1.1909   -1.9599 H       1  UNL1        0.0235
     29 H          -5.2425    0.3106   -1.5542 H       1  UNL1        0.0235
     30 H          -6.0547   -0.6458   -0.2305 H       1  UNL1        0.0235
     31 H          -3.7672   -1.5451   -2.0061 H       1  UNL1        0.0345
     32 H          -4.0259   -3.6312   -0.2662 H       1  UNL1        0.0235
     33 H          -4.9149   -3.4670   -1.7752 H       1  UNL1        0.0235
     34 H          -5.7834   -3.0154   -0.3163 H       1  UNL1        0.0235
     35 H          -2.4346    0.2392   -1.2080 H       1  UNL1        0.0658
     36 H           1.0715    0.5890    3.2065 H       1  UNL1        0.0279
     37 H           0.1910    2.1639    2.7591 H       1  UNL1        0.0279
     38 H           1.9067    2.1652    3.1451 H       1  UNL1        0.0279
     39 H           3.5570    1.1075    1.8225 H       1  UNL1        0.0643
     40 H           2.7220    0.7396   -2.2761 H       1  UNL1        0.0643
     41 H           0.6413    1.3190   -3.1286 H       1  UNL1        0.0279
     42 H          -0.7480    1.8008   -2.0291 H       1  UNL1        0.0279
     43 H          -0.2656    0.0635   -2.2455 H       1  UNL1        0.0279
     44 H           7.1055   -1.1437    0.6014 H       1  UNL1        0.0903
     45 H           7.0892    1.6958   -2.5298 H       1  UNL1        0.1735
     46 H          -1.5741    0.5543    2.9253 H       1  UNL1        0.0655
     47 H          -3.2408   -1.1036    3.3952 H       1  UNL1        0.0655
     48 H          -4.4178   -3.1977    2.0614 H       1  UNL1        0.2921
@<TRIPOS>BOND
     1     1     2    1
     2     2     3    1
     3     2     4    1
     4     4     5   ar
     5     5     6   ar
     6     6     7    1
     7     7     8    1
     8     8     9   ar
     9     9    10    1
    10     9    11   ar
    11    11    12   ar
    12    12    13   ar
    13    13    14   ar
    14    14    15    1
    15    12    16    1
    16    16    17   ar
    17    17    18   ar
    18    18    19   ar
    19    19    20    2
    20    19    21   ar
    21    21    22   ar
    22    22    23    2
    23     6    24   ar
    24    24    25   ar
    25    25    26   ar
    26    26    27    1
    27    26     4   ar
    28    14     8   ar
    29    22    16   ar
    30     1    28    1
    31     1    29    1
    32     1    30    1
    33     2    31    1
    34     3    32    1
    35     3    33    1
    36     3    34    1
    37     5    35    1
    38    10    36    1
    39    10    37    1
    40    10    38    1
    41    11    39    1
    42    13    40    1
    43    15    41    1
    44    15    42    1
    45    15    43    1
    46    18    44    1
    47    21    45    1
    48    24    46    1
    49    25    47    1
    50    27    48    1
