
     RDKit          3D

 54 57  0  0  0  0  0  0  0  0999 V2000
    3.6046    1.8706    1.4128 O   0  0  0  0  0  0  0  0  0  0  0  0
    3.3619    0.7840    0.8468 C   0  0  0  0  0  0  0  0  0  0  0  0
    4.4820   -0.1107    0.5659 C   0  0  0  0  0  0  0  0  0  0  0  0
    5.7151    0.1889    0.8860 C   0  0  0  0  0  0  0  0  0  0  0  0
    6.8245   -0.6988    0.6070 C   0  0  0  0  0  0  0  0  0  0  0  0
    6.7079   -1.9220   -0.0126 C   0  0  0  0  0  0  0  0  0  0  0  0
    7.8241   -2.7292   -0.2510 C   0  0  0  0  0  0  0  0  0  0  0  0
    9.0936   -2.3477    0.1185 C   0  0  0  0  0  0  0  0  0  0  0  0
   10.1966   -3.1537   -0.1211 O   0  0  0  0  0  0  0  0  0  0  0  0
    9.2202   -1.1232    0.7403 C   0  0  0  0  0  0  0  0  0  0  0  0
    8.1268   -0.3257    0.9771 C   0  0  0  0  0  0  0  0  0  0  0  0
    2.0557    0.4975    0.5230 O   0  0  0  0  0  0  0  0  0  0  0  0
    0.9995    1.3788    0.8051 C   0  0  2  0  0  0  0  0  0  0  0  0
   -0.0237    0.8646    1.7323 C   0  0  0  0  0  0  0  0  0  0  0  0
   -1.1868    0.8002    1.0209 O   0  0  0  0  0  0  0  0  0  0  0  0
   -1.1638    1.6771   -0.0321 C   0  0  2  0  0  0  0  0  0  0  0  0
   -1.6932    1.0324   -1.2655 C   0  0  1  0  0  0  0  0  0  0  0  0
   -3.0168    1.3178   -1.5642 O   0  0  0  0  0  0  0  0  0  0  0  0
   -4.0651    0.4157   -1.6542 C   0  0  0  0  0  0  0  0  0  0  0  0
   -3.7925   -0.7695   -1.4434 O   0  0  0  0  0  0  0  0  0  0  0  0
   -5.3642    0.8802   -1.9750 N   0  0  0  0  0  0  0  0  0  0  0  0
   -6.5028   -0.0038   -2.0818 C   0  0  0  0  0  0  0  0  0  0  0  0
   -6.9921   -0.3521   -0.7399 C   0  0  0  0  0  0  0  0  0  0  0  0
   -7.8857    0.4665   -0.0881 C   0  0  0  0  0  0  0  0  0  0  0  0
   -8.3543    0.1210    1.1728 C   0  0  0  0  0  0  0  0  0  0  0  0
   -7.9439   -1.0236    1.7852 C   0  0  0  0  0  0  0  0  0  0  0  0
   -7.0545   -1.8472    1.1466 C   0  0  0  0  0  0  0  0  0  0  0  0
   -6.5809   -1.4998   -0.1262 C   0  0  0  0  0  0  0  0  0  0  0  0
   -0.6935    1.3884   -2.2987 C   0  0  0  0  0  0  0  0  0  0  0  0
    0.5096    1.2000   -1.5683 O   0  0  0  0  0  0  0  0  0  0  0  0
    0.2924    1.9011   -0.3817 C   0  0  2  0  0  0  0  0  0  0  0  0
    4.2230   -1.0355    0.0763 H   0  0  0  0  0  0  0  0  0  0  0  0
    5.9124    1.1279    1.3733 H   0  0  0  0  0  0  0  0  0  0  0  0
    5.7271   -2.2721   -0.3250 H   0  0  0  0  0  0  0  0  0  0  0  0
    7.6917   -3.6973   -0.7477 H   0  0  0  0  0  0  0  0  0  0  0  0
   11.1267   -2.7175   -0.0627 H   0  0  0  0  0  0  0  0  0  0  0  0
   10.2221   -0.8086    1.0388 H   0  0  0  0  0  0  0  0  0  0  0  0
    8.2349    0.6329    1.4652 H   0  0  0  0  0  0  0  0  0  0  0  0
    1.4682    2.2806    1.3116 H   0  0  0  0  0  0  0  0  0  0  0  0
   -0.2242    1.5584    2.6033 H   0  0  0  0  0  0  0  0  0  0  0  0
    0.2338   -0.0993    2.2212 H   0  0  0  0  0  0  0  0  0  0  0  0
   -1.6373    2.6556    0.1959 H   0  0  0  0  0  0  0  0  0  0  0  0
   -1.6278   -0.0844   -1.1133 H   0  0  0  0  0  0  0  0  0  0  0  0
   -5.4659    1.9290   -2.1371 H   0  0  0  0  0  0  0  0  0  0  0  0
   -7.3108    0.4926   -2.6907 H   0  0  0  0  0  0  0  0  0  0  0  0
   -6.1989   -0.9178   -2.6538 H   0  0  0  0  0  0  0  0  0  0  0  0
   -8.2561    1.3927   -0.5140 H   0  0  0  0  0  0  0  0  0  0  0  0
   -9.0673    0.7916    1.6714 H   0  0  0  0  0  0  0  0  0  0  0  0
   -8.3098   -1.2950    2.7715 H   0  0  0  0  0  0  0  0  0  0  0  0
   -6.7099   -2.7723    1.6183 H   0  0  0  0  0  0  0  0  0  0  0  0
   -5.8826   -2.2161   -0.5665 H   0  0  0  0  0  0  0  0  0  0  0  0
   -0.6784    2.4717   -2.5603 H   0  0  0  0  0  0  0  0  0  0  0  0
   -0.6789    0.7388   -3.1886 H   0  0  0  0  0  0  0  0  0  0  0  0
    0.5073    2.9665   -0.6102 H   0  0  0  0  0  0  0  0  0  0  0  0
  1  2  2  0
  2  3  1  0
  3  4  2  3
  4  5  1  0
  5  6  2  0
  6  7  1  0
  7  8  2  0
  8  9  1  0
  8 10  1  0
 10 11  2  0
  2 12  1  0
 12 13  1  0
 13 14  1  0
 14 15  1  0
 15 16  1  0
 16 17  1  0
 17 18  1  0
 18 19  1  0
 19 20  2  0
 19 21  1  0
 21 22  1  0
 22 23  1  0
 23 24  2  0
 24 25  1  0
 25 26  2  0
 26 27  1  0
 27 28  2  0
 17 29  1  0
 29 30  1  0
 30 31  1  0
 11  5  1  0
 31 13  1  0
 31 16  1  0
 28 23  1  0
  3 32  1  0
  4 33  1  0
  6 34  1  0
  7 35  1  0
  9 36  1  0
 10 37  1  0
 11 38  1  0
 13 39  1  1
 14 40  1  0
 14 41  1  0
 16 42  1  1
 17 43  1  1
 21 44  1  0
 22 45  1  0
 22 46  1  0
 24 47  1  0
 25 48  1  0
 26 49  1  0
 27 50  1  0
 28 51  1  0
 29 52  1  0
 29 53  1  0
 31 54  1  6
M  END
$$$$
