@<TRIPOS>MOLECULE
*****
 54 57 0 0 0
SMALL
GASTEIGER

@<TRIPOS>ATOM
      1 O           3.6046    1.8706    1.4128 O.2     1  UNL1       -0.2456
      2 C           3.3619    0.7840    0.8468 C.2     1  UNL1        0.3324
      3 C           4.4820   -0.1107    0.5659 C.2     1  UNL1        0.0231
      4 C           5.7151    0.1889    0.8860 C.2     1  UNL1       -0.0478
      5 C           6.8245   -0.6988    0.6070 C.ar    1  UNL1       -0.0246
      6 C           6.7079   -1.9220   -0.0126 C.ar    1  UNL1       -0.0511
      7 C           7.8241   -2.7292   -0.2510 C.ar    1  UNL1       -0.0196
      8 C           9.0936   -2.3477    0.1185 C.ar    1  UNL1        0.1169
      9 O          10.1966   -3.1537   -0.1211 O.3     1  UNL1       -0.5068
     10 C           9.2202   -1.1232    0.7403 C.ar    1  UNL1       -0.0196
     11 C           8.1268   -0.3257    0.9771 C.ar    1  UNL1       -0.0511
     12 O           2.0557    0.4975    0.5230 O.3     1  UNL1       -0.4532
     13 C           0.9995    1.3788    0.8051 C.3     1  UNL1        0.1550
     14 C          -0.0237    0.8646    1.7323 C.3     1  UNL1        0.0879
     15 O          -1.1868    0.8002    1.0209 O.3     1  UNL1       -0.3664
     16 C          -1.1638    1.6771   -0.0321 C.3     1  UNL1        0.1274
     17 C          -1.6932    1.0324   -1.2655 C.3     1  UNL1        0.1563
     18 O          -3.0168    1.3178   -1.5642 O.3     1  UNL1       -0.4421
     19 C          -4.0651    0.4157   -1.6542 C.2     1  UNL1        0.4009
     20 O          -3.7925   -0.7695   -1.4434 O.2     1  UNL1       -0.2265
     21 N          -5.3642    0.8802   -1.9750 N.am    1  UNL1       -0.2770
     22 C          -6.5028   -0.0038   -2.0818 C.3     1  UNL1        0.0400
     23 C          -6.9921   -0.3521   -0.7399 C.ar    1  UNL1       -0.0302
     24 C          -7.8857    0.4665   -0.0881 C.ar    1  UNL1       -0.0571
     25 C          -8.3543    0.1210    1.1728 C.ar    1  UNL1       -0.0615
     26 C          -7.9439   -1.0236    1.7852 C.ar    1  UNL1       -0.0617
     27 C          -7.0545   -1.8472    1.1466 C.ar    1  UNL1       -0.0615
     28 C          -6.5809   -1.4998   -0.1262 C.ar    1  UNL1       -0.0571
     29 C          -0.6935    1.3884   -2.2987 C.3     1  UNL1        0.0879
     30 O           0.5096    1.2000   -1.5683 O.3     1  UNL1       -0.3664
     31 C           0.2924    1.9011   -0.3817 C.3     1  UNL1        0.1274
     32 H           4.2230   -1.0355    0.0763 H       1  UNL1        0.0689
     33 H           5.9124    1.1279    1.3733 H       1  UNL1        0.0626
     34 H           5.7271   -2.2721   -0.3250 H       1  UNL1        0.0625
     35 H           7.6917   -3.6973   -0.7477 H       1  UNL1        0.0654
     36 H          11.1267   -2.7175   -0.0627 H       1  UNL1        0.2921
     37 H          10.2221   -0.8086    1.0388 H       1  UNL1        0.0654
     38 H           8.2349    0.6329    1.4652 H       1  UNL1        0.0625
     39 H           1.4682    2.2806    1.3116 H       1  UNL1        0.0785
     40 H          -0.2242    1.5584    2.6033 H       1  UNL1        0.0598
     41 H           0.2338   -0.0993    2.2212 H       1  UNL1        0.0598
     42 H          -1.6373    2.6556    0.1959 H       1  UNL1        0.0661
     43 H          -1.6278   -0.0844   -1.1133 H       1  UNL1        0.0785
     44 H          -5.4659    1.9290   -2.1371 H       1  UNL1        0.1523
     45 H          -7.3108    0.4926   -2.6907 H       1  UNL1        0.0513
     46 H          -6.1989   -0.9178   -2.6538 H       1  UNL1        0.0513
     47 H          -8.2561    1.3927   -0.5140 H       1  UNL1        0.0621
     48 H          -9.0673    0.7916    1.6714 H       1  UNL1        0.0618
     49 H          -8.3098   -1.2950    2.7715 H       1  UNL1        0.0618
     50 H          -6.7099   -2.7723    1.6183 H       1  UNL1        0.0618
     51 H          -5.8826   -2.2161   -0.5665 H       1  UNL1        0.0621
     52 H          -0.6784    2.4717   -2.5603 H       1  UNL1        0.0598
     53 H          -0.6789    0.7388   -3.1886 H       1  UNL1        0.0598
     54 H           0.5073    2.9665   -0.6102 H       1  UNL1        0.0661
@<TRIPOS>BOND
     1     1     2    2
     2     2     3    1
     3     3     4    2
     4     4     5    1
     5     5     6   ar
     6     6     7   ar
     7     7     8   ar
     8     8     9    1
     9     8    10   ar
    10    10    11   ar
    11     2    12    1
    12    12    13    1
    13    13    14    1
    14    14    15    1
    15    15    16    1
    16    16    17    1
    17    17    18    1
    18    18    19    1
    19    19    20    2
    20    19    21   am
    21    21    22    1
    22    22    23    1
    23    23    24   ar
    24    24    25   ar
    25    25    26   ar
    26    26    27   ar
    27    27    28   ar
    28    17    29    1
    29    29    30    1
    30    30    31    1
    31    11     5   ar
    32    31    13    1
    33    31    16    1
    34    28    23   ar
    35     3    32    1
    36     4    33    1
    37     6    34    1
    38     7    35    1
    39     9    36    1
    40    10    37    1
    41    11    38    1
    42    13    39    1
    43    14    40    1
    44    14    41    1
    45    16    42    1
    46    17    43    1
    47    21    44    1
    48    22    45    1
    49    22    46    1
    50    24    47    1
    51    25    48    1
    52    26    49    1
    53    27    50    1
    54    28    51    1
    55    29    52    1
    56    29    53    1
    57    31    54    1
