@<TRIPOS>MOLECULE
*****
 27 27 0 0 0
SMALL
GASTEIGER

@<TRIPOS>ATOM
      1 C           4.7990    0.4220    0.6761 C.3     1  UNL1        0.0788
      2 O           3.8330   -0.5228    0.3336 O.3     1  UNL1       -0.4951
      3 C           2.5120   -0.2950    0.0422 C.ar    1  UNL1        0.1201
      4 C           1.7991   -1.4597   -0.2650 C.ar    1  UNL1       -0.0197
      5 C           0.4576   -1.3731   -0.5777 C.ar    1  UNL1       -0.0551
      6 C          -0.2250   -0.1663   -0.6014 C.ar    1  UNL1       -0.0457
      7 C          -1.6676   -0.1918   -0.9515 C.3     1  UNL1       -0.0127
      8 C          -2.5671   -0.3587    0.2540 C.3     1  UNL1        0.0060
      9 C          -3.9978   -0.3721   -0.2059 C.3     1  UNL1       -0.0496
     10 N          -2.3933    0.8116    1.0862 N.3     1  UNL1       -0.3272
     11 C           0.5121    0.9575   -0.2932 C.ar    1  UNL1       -0.0551
     12 C           1.8481    0.9052    0.0222 C.ar    1  UNL1       -0.0197
     13 H           5.4046   -0.0446    1.5054 H       1  UNL1        0.0660
     14 H           4.3658    1.3434    1.1034 H       1  UNL1        0.0660
     15 H           5.5387    0.6421   -0.1118 H       1  UNL1        0.0660
     16 H           2.2466   -2.4591   -0.2736 H       1  UNL1        0.0654
     17 H          -0.0875   -2.2874   -0.8153 H       1  UNL1        0.0621
     18 H          -1.8400   -1.0543   -1.6491 H       1  UNL1        0.0328
     19 H          -1.9185    0.7151   -1.5260 H       1  UNL1        0.0328
     20 H          -2.3412   -1.2498    0.8369 H       1  UNL1        0.0459
     21 H          -4.0076   -0.8690   -1.2099 H       1  UNL1        0.0245
     22 H          -4.4058    0.6339   -0.3383 H       1  UNL1        0.0245
     23 H          -4.6559   -1.0138    0.4468 H       1  UNL1        0.0245
     24 H          -2.6920    1.6829    0.5654 H       1  UNL1        0.1185
     25 H          -2.9266    0.7222    1.9951 H       1  UNL1        0.1185
     26 H          -0.0167    1.9056   -0.3100 H       1  UNL1        0.0621
     27 H           2.4260    1.7655    0.2615 H       1  UNL1        0.0654
@<TRIPOS>BOND
     1     1     2    1
     2     2     3    1
     3     3     4   ar
     4     4     5   ar
     5     5     6   ar
     6     6     7    1
     7     7     8    1
     8     8     9    1
     9     8    10    1
    10     6    11   ar
    11    11    12   ar
    12    12     3   ar
    13     1    13    1
    14     1    14    1
    15     1    15    1
    16     4    16    1
    17     5    17    1
    18     7    18    1
    19     7    19    1
    20     8    20    1
    21     9    21    1
    22     9    22    1
    23     9    23    1
    24    10    24    1
    25    10    25    1
    26    11    26    1
    27    12    27    1
