@<TRIPOS>MOLECULE
*****
 36 38 0 0 0
SMALL
GASTEIGER

@<TRIPOS>ATOM
      1 O           0.1242   -2.5876    0.7769 O.2     1  UNL1       -0.2872
      2 C           0.0438   -1.4477    0.3215 C.2     1  UNL1        0.1878
      3 C           1.2735   -0.6685    0.0492 C.2     1  UNL1        0.0153
      4 C           2.3758   -0.8552    0.7191 C.2     1  UNL1       -0.0283
      5 C           3.6115   -0.1368    0.5186 C.ar    1  UNL1        0.0643
      6 C           4.8627   -0.7460    0.5413 C.ar    1  UNL1       -0.0363
      7 C           6.0367   -0.0366    0.3775 C.ar    1  UNL1       -0.0583
      8 C           5.9879    1.3229    0.1850 C.ar    1  UNL1       -0.0436
      9 C           4.7405    1.9286    0.1639 C.ar    1  UNL1        0.0282
     10 N           3.6364    1.1969    0.3264 N.ar    1  UNL1       -0.2556
     11 C           1.1735    0.3339   -1.0407 C.3     1  UNL1        0.0252
     12 N          -0.0447    0.1668   -1.8002 N.3     1  UNL1       -0.3078
     13 C          -1.2625    0.2296   -1.0225 C.3     1  UNL1        0.0252
     14 C          -1.2518   -0.7957    0.0280 C.2     1  UNL1        0.0153
     15 C          -2.3235   -1.1254    0.7191 C.2     1  UNL1       -0.0283
     16 C          -3.6247   -0.5345    0.4996 C.ar    1  UNL1        0.0643
     17 C          -4.3624   -0.1695    1.6285 C.ar    1  UNL1       -0.0363
     18 C          -5.6099    0.4005    1.5203 C.ar    1  UNL1       -0.0583
     19 C          -6.1531    0.6209    0.2731 C.ar    1  UNL1       -0.0436
     20 C          -5.4105    0.2526   -0.8242 C.ar    1  UNL1        0.0282
     21 N          -4.1799   -0.3079   -0.6852 N.ar    1  UNL1       -0.2556
     22 H           2.3619   -1.6120    1.4908 H       1  UNL1        0.0643
     23 H           4.9054   -1.8014    0.6886 H       1  UNL1        0.0639
     24 H           6.9908   -0.5718    0.4038 H       1  UNL1        0.0619
     25 H           6.8913    1.9292    0.0492 H       1  UNL1        0.0633
     26 H           4.6952    3.0103    0.0140 H       1  UNL1        0.0830
     27 H           1.2493    1.3636   -0.6924 H       1  UNL1        0.0475
     28 H           1.9971    0.0715   -1.7539 H       1  UNL1        0.0475
     29 H          -0.0486   -0.7605   -2.2945 H       1  UNL1        0.1226
     30 H          -2.0878    0.1096   -1.7527 H       1  UNL1        0.0475
     31 H          -1.2713    1.2654   -0.5730 H       1  UNL1        0.0475
     32 H          -2.1811   -1.9076    1.4960 H       1  UNL1        0.0643
     33 H          -3.9440   -0.3361    2.6228 H       1  UNL1        0.0639
     34 H          -6.1974    0.6945    2.3786 H       1  UNL1        0.0619
     35 H          -7.1545    1.0754    0.1642 H       1  UNL1        0.0633
     36 H          -5.8500    0.4286   -1.7948 H       1  UNL1        0.0830
@<TRIPOS>BOND
     1     1     2    2
     2     2     3    1
     3     3     4    2
     4     4     5    1
     5     5     6   ar
     6     6     7   ar
     7     7     8   ar
     8     8     9   ar
     9     9    10   ar
    10     3    11    1
    11    11    12    1
    12    12    13    1
    13    13    14    1
    14    14    15    2
    15    15    16    1
    16    16    17   ar
    17    17    18   ar
    18    18    19   ar
    19    19    20   ar
    20    20    21   ar
    21    14     2    1
    22    21    16   ar
    23    10     5   ar
    24     4    22    1
    25     6    23    1
    26     7    24    1
    27     8    25    1
    28     9    26    1
    29    11    27    1
    30    11    28    1
    31    12    29    1
    32    13    30    1
    33    13    31    1
    34    15    32    1
    35    17    33    1
    36    18    34    1
    37    19    35    1
    38    20    36    1
