@<TRIPOS>MOLECULE
*****
 71 72 0 0 0
SMALL
GASTEIGER

@<TRIPOS>ATOM
      1 C           8.8645    1.0495    0.8945 C.3     1  UNL1        0.0790
      2 O           8.2039   -0.0885    0.4174 O.3     1  UNL1       -0.4915
      3 C           6.9328   -0.1293   -0.0758 C.ar    1  UNL1        0.1615
      4 C           6.5231   -1.3990   -0.4677 C.ar    1  UNL1        0.1617
      5 O           7.3762   -2.4940   -0.3446 O.3     1  UNL1       -0.4914
      6 C           6.9728   -3.7960   -0.7419 C.3     1  UNL1        0.0790
      7 C           5.2453   -1.5636   -0.9879 C.ar    1  UNL1       -0.0131
      8 C           4.2756   -0.5496   -1.1727 C.ar    1  UNL1       -0.0425
      9 C           3.0678   -1.0770   -1.7768 C.3     1  UNL1       -0.0148
     10 C           2.0274   -1.7067   -0.9637 C.3     1  UNL1        0.0026
     11 N           1.2544   -1.0071   -0.0120 N.3     1  UNL1       -0.3050
     12 C           0.4822   -1.8915    0.7194 C.3     1  UNL1       -0.0128
     13 C           1.1012    0.3242   -0.2001 C.3     1  UNL1       -0.0013
     14 C           0.0526    1.1460    0.5063 C.3     1  UNL1       -0.0385
     15 C          -1.2912    0.6686    0.1044 C.3     1  UNL1       -0.0290
     16 C          -2.4792    1.3707    0.6826 C.3     1  UNL1        0.0846
     17 C          -2.4224    1.2662    2.1365 C.1     1  UNL1        0.0742
     18 N          -2.3673    1.2012    3.2905 N.1     1  UNL1       -0.1956
     19 C          -2.7904    2.7191    0.1623 C.3     1  UNL1       -0.0242
     20 C          -3.0579    2.7127   -1.3459 C.3     1  UNL1       -0.0609
     21 C          -1.9145    3.8508    0.4936 C.3     1  UNL1       -0.0609
     22 C          -3.6682    0.5144    0.2854 C.ar    1  UNL1       -0.0236
     23 C          -4.9019    0.8123    0.8323 C.ar    1  UNL1       -0.0116
     24 C          -6.0259    0.0687    0.5158 C.ar    1  UNL1        0.1618
     25 O          -7.3122    0.3012    1.0237 O.3     1  UNL1       -0.4914
     26 C          -7.5110    1.3567    1.9273 C.3     1  UNL1        0.0790
     27 C          -5.9339   -0.9836   -0.3523 C.ar    1  UNL1        0.1615
     28 O          -7.0398   -1.7545   -0.6940 O.3     1  UNL1       -0.4915
     29 C          -6.8975   -2.8378   -1.6013 C.3     1  UNL1        0.0790
     30 C          -4.7316   -1.3009   -0.9079 C.ar    1  UNL1       -0.0160
     31 C          -3.6297   -0.5511   -0.5808 C.ar    1  UNL1       -0.0534
     32 C           4.7759    0.6760   -0.7539 C.ar    1  UNL1       -0.0548
     33 C           6.0277    0.8721   -0.2369 C.ar    1  UNL1       -0.0160
     34 H           9.4062    0.7939    1.8399 H       1  UNL1        0.0660
     35 H           8.1883    1.9035    1.0791 H       1  UNL1        0.0660
     36 H           9.6438    1.4125    0.1529 H       1  UNL1        0.0660
     37 H           7.8741   -4.4409   -0.6843 H       1  UNL1        0.0660
     38 H           6.1992   -4.1413   -0.0520 H       1  UNL1        0.0660
     39 H           6.6092   -3.7789   -1.7824 H       1  UNL1        0.0660
     40 H           5.0265   -2.6088   -1.2625 H       1  UNL1        0.0658
     41 H           3.3736   -1.7880   -2.6125 H       1  UNL1        0.0326
     42 H           2.6494   -0.2099   -2.4042 H       1  UNL1        0.0326
     43 H           1.2514   -2.1460   -1.6984 H       1  UNL1        0.0430
     44 H           2.3870   -2.6577   -0.4607 H       1  UNL1        0.0430
     45 H           0.0317   -1.5960    1.6754 H       1  UNL1        0.0391
     46 H          -0.2951   -2.4718    0.1585 H       1  UNL1        0.0391
     47 H           1.1926   -2.7381    1.0556 H       1  UNL1        0.0391
     48 H           1.0880    0.5658   -1.3084 H       1  UNL1        0.0426
     49 H           2.0961    0.8192    0.1007 H       1  UNL1        0.0426
     50 H           0.2243    2.2142    0.2593 H       1  UNL1        0.0278
     51 H           0.2107    1.1337    1.6241 H       1  UNL1        0.0278
     52 H          -1.3199    0.6527   -1.0138 H       1  UNL1        0.0284
     53 H          -1.4117   -0.3919    0.3858 H       1  UNL1        0.0284
     54 H          -3.8159    2.9759    0.5865 H       1  UNL1        0.0314
     55 H          -4.0566    2.3494   -1.6078 H       1  UNL1        0.0233
     56 H          -2.2303    2.2332   -1.9144 H       1  UNL1        0.0233
     57 H          -3.0286    3.7827   -1.6526 H       1  UNL1        0.0233
     58 H          -1.5655    3.8009    1.5591 H       1  UNL1        0.0233
     59 H          -2.5552    4.7932    0.4675 H       1  UNL1        0.0233
     60 H          -1.1077    4.1003   -0.2241 H       1  UNL1        0.0233
     61 H          -5.0112    1.6275    1.5137 H       1  UNL1        0.0658
     62 H          -8.4696    1.2591    2.4967 H       1  UNL1        0.0660
     63 H          -6.6684    1.4705    2.6604 H       1  UNL1        0.0660
     64 H          -7.6076    2.3342    1.3936 H       1  UNL1        0.0660
     65 H          -7.8648   -3.3126   -1.8015 H       1  UNL1        0.0660
     66 H          -6.1736   -3.5876   -1.1790 H       1  UNL1        0.0660
     67 H          -6.5022   -2.4685   -2.5583 H       1  UNL1        0.0660
     68 H          -4.6535   -2.1265   -1.5914 H       1  UNL1        0.0655
     69 H          -2.7027   -0.8332   -1.0473 H       1  UNL1        0.0622
     70 H           4.0532    1.4449   -0.9089 H       1  UNL1        0.0621
     71 H           6.3252    1.8504    0.0600 H       1  UNL1        0.0655
@<TRIPOS>BOND
     1     1     2    1
     2     2     3    1
     3     3     4   ar
     4     4     5    1
     5     5     6    1
     6     4     7   ar
     7     7     8   ar
     8     8     9    1
     9     9    10    1
    10    10    11    1
    11    11    12    1
    12    11    13    1
    13    13    14    1
    14    14    15    1
    15    15    16    1
    16    16    17    1
    17    17    18    3
    18    16    19    1
    19    19    20    1
    20    19    21    1
    21    16    22    1
    22    22    23   ar
    23    23    24   ar
    24    24    25    1
    25    25    26    1
    26    24    27   ar
    27    27    28    1
    28    28    29    1
    29    27    30   ar
    30    30    31   ar
    31     8    32   ar
    32    32    33   ar
    33    33     3   ar
    34    31    22   ar
    35     1    34    1
    36     1    35    1
    37     1    36    1
    38     6    37    1
    39     6    38    1
    40     6    39    1
    41     7    40    1
    42     9    41    1
    43     9    42    1
    44    10    43    1
    45    10    44    1
    46    12    45    1
    47    12    46    1
    48    12    47    1
    49    13    48    1
    50    13    49    1
    51    14    50    1
    52    14    51    1
    53    15    52    1
    54    15    53    1
    55    19    54    1
    56    20    55    1
    57    20    56    1
    58    20    57    1
    59    21    58    1
    60    21    59    1
    61    21    60    1
    62    23    61    1
    63    26    62    1
    64    26    63    1
    65    26    64    1
    66    29    65    1
    67    29    66    1
    68    29    67    1
    69    30    68    1
    70    31    69    1
    71    32    70    1
    72    33    71    1
