@<TRIPOS>MOLECULE
*****
 55 59 0 0 0
SMALL
GASTEIGER

@<TRIPOS>ATOM
      1 C           4.6611    2.7465   -1.2484 C.3     1  UNL1       -0.0158
      2 N           4.2056    2.9409    0.1111 N.3     1  UNL1       -0.3189
      3 C           2.7786    3.0518    0.2115 C.3     1  UNL1       -0.0028
      4 C           2.0423    1.7898   -0.0957 C.3     1  UNL1       -0.0224
      5 C           2.4132    0.6623    0.8335 C.3     1  UNL1        0.0245
      6 N           1.6533   -0.5174    0.4614 N.ar    1  UNL1       -0.3460
      7 C           0.4265   -0.8627    0.9119 C.ar    1  UNL1        0.0136
      8 C           0.0411   -2.0525    0.3124 C.ar    1  UNL1        0.0131
      9 C          -1.2351   -2.7425    0.5210 C.2     1  UNL1        0.0590
     10 C          -2.4071   -2.0805    0.5086 C.2     1  UNL1        0.0590
     11 C          -2.5280   -0.6432    0.2889 C.ar    1  UNL1        0.0131
     12 C          -1.8812    0.0793   -0.7034 C.ar    1  UNL1        0.0133
     13 N          -2.1994    1.3771   -0.6078 N.ar    1  UNL1       -0.3491
     14 C          -1.7667    2.4944   -1.4206 C.3     1  UNL1        0.0119
     15 C          -3.0434    1.4848    0.4397 C.ar    1  UNL1        0.0494
     16 C          -3.6727    2.5869    0.9870 C.ar    1  UNL1       -0.0376
     17 C          -4.5029    2.4383    2.0889 C.ar    1  UNL1       -0.0598
     18 C          -4.7126    1.1941    2.6526 C.ar    1  UNL1       -0.0611
     19 C          -4.0946    0.0841    2.1201 C.ar    1  UNL1       -0.0520
     20 C          -3.2672    0.2499    1.0171 C.ar    1  UNL1        0.0077
     21 C          -3.4477   -3.0393    0.7378 C.2     1  UNL1        0.2519
     22 O          -4.7127   -2.8345    0.7998 O.2     1  UNL1       -0.2697
     23 N          -2.8708   -4.3255    0.8963 N.am    1  UNL1       -0.2483
     24 C          -1.4785   -4.1487    0.7620 C.2     1  UNL1        0.2519
     25 O          -0.5754   -5.0604    0.8381 O.2     1  UNL1       -0.2697
     26 C           1.0776   -2.4020   -0.5079 C.ar    1  UNL1        0.0077
     27 C           1.3206   -3.4450   -1.3679 C.ar    1  UNL1       -0.0520
     28 C           2.4755   -3.5796   -2.1135 C.ar    1  UNL1       -0.0611
     29 C           3.4577   -2.6239   -2.0061 C.ar    1  UNL1       -0.0598
     30 C           3.2427   -1.5660   -1.1530 C.ar    1  UNL1       -0.0376
     31 C           2.0873   -1.4434   -0.4162 C.ar    1  UNL1        0.0497
     32 H           4.3814    3.6470   -1.8282 H       1  UNL1        0.0388
     33 H           5.7639    2.6560   -1.2241 H       1  UNL1        0.0388
     34 H           4.2654    1.8294   -1.7185 H       1  UNL1        0.0388
     35 H           4.6348    2.3104    0.7964 H       1  UNL1        0.1216
     36 H           2.5338    3.4060    1.2434 H       1  UNL1        0.0424
     37 H           2.4567    3.8569   -0.4847 H       1  UNL1        0.0424
     38 H           0.9470    2.0203    0.0661 H       1  UNL1        0.0295
     39 H           2.1404    1.5484   -1.1584 H       1  UNL1        0.0295
     40 H           2.2274    0.9818    1.8633 H       1  UNL1        0.0492
     41 H           3.5074    0.4590    0.6456 H       1  UNL1        0.0492
     42 H          -0.1897   -0.3246    1.6247 H       1  UNL1        0.0815
     43 H          -1.2210   -0.3184   -1.4482 H       1  UNL1        0.0815
     44 H          -2.4280    2.6040   -2.3209 H       1  UNL1        0.0456
     45 H          -1.8508    3.4110   -0.8238 H       1  UNL1        0.0456
     46 H          -0.7015    2.3882   -1.7258 H       1  UNL1        0.0456
     47 H          -3.5093    3.5708    0.5469 H       1  UNL1        0.0638
     48 H          -4.9802    3.3217    2.4921 H       1  UNL1        0.0618
     49 H          -5.3677    1.0749    3.5243 H       1  UNL1        0.0618
     50 H          -4.2548   -0.8934    2.5718 H       1  UNL1        0.0624
     51 H          -3.3518   -5.2223    1.0740 H       1  UNL1        0.1581
     52 H           0.5202   -4.2003   -1.4501 H       1  UNL1        0.0624
     53 H           2.5613   -4.4316   -2.7518 H       1  UNL1        0.0618
     54 H           4.3920   -2.7007   -2.5870 H       1  UNL1        0.0618
     55 H           4.0359   -0.8077   -1.0765 H       1  UNL1        0.0638
@<TRIPOS>BOND
     1     1     2    1
     2     2     3    1
     3     3     4    1
     4     4     5    1
     5     5     6    1
     6     6     7   ar
     7     7     8   ar
     8     8     9    1
     9     9    10    2
    10    10    11    1
    11    11    12   ar
    12    12    13   ar
    13    13    14    1
    14    13    15   ar
    15    15    16   ar
    16    16    17   ar
    17    17    18   ar
    18    18    19   ar
    19    19    20   ar
    20    10    21    1
    21    21    22    2
    22    21    23   am
    23    23    24   am
    24    24    25    2
    25     8    26   ar
    26    26    27   ar
    27    27    28   ar
    28    28    29   ar
    29    29    30   ar
    30    30    31   ar
    31    31     6   ar
    32    24     9    1
    33    31    26   ar
    34    20    11   ar
    35    20    15   ar
    36     1    32    1
    37     1    33    1
    38     1    34    1
    39     2    35    1
    40     3    36    1
    41     3    37    1
    42     4    38    1
    43     4    39    1
    44     5    40    1
    45     5    41    1
    46     7    42    1
    47    12    43    1
    48    14    44    1
    49    14    45    1
    50    14    46    1
    51    16    47    1
    52    17    48    1
    53    18    49    1
    54    19    50    1
    55    23    51    1
    56    27    52    1
    57    28    53    1
    58    29    54    1
    59    30    55    1
