@<TRIPOS>MOLECULE
*****
 70 72 0 0 0
SMALL
GASTEIGER

@<TRIPOS>ATOM
      1 C           7.5459   -3.2240    1.9110 C.2     1  UNL1       -0.0938
      2 C           7.1669   -3.8329    0.8134 C.2     1  UNL1       -0.0070
      3 C           6.2574   -3.2418   -0.1453 C.2     1  UNL1        0.2363
      4 O           5.9347   -3.8869   -1.1836 O.2     1  UNL1       -0.2709
      5 N           5.6757   -1.9559   -0.0173 N.am    1  UNL1       -0.3118
      6 C           4.7761   -1.3980   -0.9853 C.3     1  UNL1        0.0119
      7 C           3.5102   -2.2176   -1.1828 C.3     1  UNL1       -0.0373
      8 C           2.7361   -2.3327    0.1169 C.3     1  UNL1       -0.0495
      9 C           2.2934   -1.0276    0.6788 C.3     1  UNL1       -0.0259
     10 C           1.3873   -0.2680   -0.2155 C.3     1  UNL1        0.0996
     11 N           1.0366    1.0141    0.3802 N.am    1  UNL1       -0.3037
     12 C           1.2194    2.2448   -0.3063 C.2     1  UNL1        0.2179
     13 O           1.7049    2.1688   -1.4673 O.2     1  UNL1       -0.2754
     14 C           0.8562    3.5550    0.3129 C.3     1  UNL1        0.0491
     15 C           1.1496    4.6505   -0.6375 C.ar    1  UNL1       -0.0386
     16 C           0.1530    5.0206   -1.5090 C.ar    1  UNL1       -0.0581
     17 C           0.3948    6.0296   -2.3984 C.ar    1  UNL1       -0.0615
     18 C           1.6155    6.6588   -2.4154 C.ar    1  UNL1       -0.0617
     19 C           2.6022    6.2765   -1.5366 C.ar    1  UNL1       -0.0615
     20 C           2.3812    5.2639   -0.6332 C.ar    1  UNL1       -0.0581
     21 C           0.1915   -0.9969   -0.6052 C.2     1  UNL1        0.2360
     22 O           0.4024   -2.1733   -1.1552 O.2     1  UNL1       -0.2736
     23 N          -1.1588   -0.6809   -0.5063 N.am    1  UNL1       -0.2970
     24 C          -2.0906   -1.7405   -1.0122 C.3     1  UNL1        0.0305
     25 C          -3.5155   -1.3122   -0.9358 C.3     1  UNL1        0.0293
     26 N          -3.8276   -0.7825    0.3886 N.pl3   1  UNL1       -0.3122
     27 C          -5.1002   -0.9750    0.9898 C.ar    1  UNL1        0.1216
     28 C          -5.3436   -0.4768    2.2509 C.ar    1  UNL1       -0.0217
     29 C          -6.5712   -0.6303    2.8944 C.ar    1  UNL1       -0.0568
     30 C          -7.5572   -1.3086    2.2209 C.ar    1  UNL1       -0.0405
     31 C          -7.2949   -1.8005    0.9583 C.ar    1  UNL1        0.0403
     32 C          -8.3238   -2.5377    0.1908 C.3     1  UNL1       -0.0223
     33 N          -6.0969   -1.6316    0.3713 N.ar    1  UNL1       -0.2372
     34 C          -2.7910   -0.0444    1.0795 C.3     1  UNL1        0.0293
     35 C          -1.8390    0.4745   -0.0257 C.3     1  UNL1        0.0305
     36 H           8.2264   -3.6734    2.6223 H       1  UNL1        0.0536
     37 H           7.1903   -2.2402    2.1503 H       1  UNL1        0.0536
     38 H           7.5548   -4.8203    0.6223 H       1  UNL1        0.0663
     39 H           5.9216   -1.3958    0.8282 H       1  UNL1        0.1490
     40 H           4.5096   -0.3576   -0.7195 H       1  UNL1        0.0462
     41 H           5.2457   -1.3308   -2.0040 H       1  UNL1        0.0462
     42 H           2.9013   -1.6473   -1.8980 H       1  UNL1        0.0280
     43 H           3.7457   -3.2149   -1.5464 H       1  UNL1        0.0280
     44 H           3.4905   -2.8265    0.8245 H       1  UNL1        0.0266
     45 H           1.9745   -3.1125   -0.0085 H       1  UNL1        0.0266
     46 H           3.2283   -0.4417    0.8893 H       1  UNL1        0.0288
     47 H           1.7782   -1.2632    1.6511 H       1  UNL1        0.0288
     48 H           1.9352   -0.0264   -1.1621 H       1  UNL1        0.0594
     49 H           0.6776    1.0027    1.3419 H       1  UNL1        0.1495
     50 H           1.4663    3.6512    1.2497 H       1  UNL1        0.0407
     51 H          -0.2059    3.6072    0.6110 H       1  UNL1        0.0407
     52 H          -0.8264    4.5412   -1.5215 H       1  UNL1        0.0620
     53 H          -0.3925    6.3172   -3.0818 H       1  UNL1        0.0618
     54 H           1.8226    7.4679   -3.1219 H       1  UNL1        0.0618
     55 H           3.5861    6.7542   -1.5203 H       1  UNL1        0.0618
     56 H           3.1641    4.9539    0.0708 H       1  UNL1        0.0620
     57 H          -1.9258   -2.5810   -0.3204 H       1  UNL1        0.0480
     58 H          -1.8000   -2.0225   -2.0232 H       1  UNL1        0.0480
     59 H          -4.1429   -2.2021   -1.0977 H       1  UNL1        0.0480
     60 H          -3.7849   -0.5525   -1.6993 H       1  UNL1        0.0480
     61 H          -4.5926    0.0695    2.8285 H       1  UNL1        0.0652
     62 H          -6.7521   -0.2327    3.8906 H       1  UNL1        0.0619
     63 H          -8.5523   -1.4746    2.6532 H       1  UNL1        0.0635
     64 H          -8.3007   -2.1423   -0.8530 H       1  UNL1        0.0292
     65 H          -9.3319   -2.3849    0.6143 H       1  UNL1        0.0292
     66 H          -8.0292   -3.5910    0.1509 H       1  UNL1        0.0292
     67 H          -2.1909   -0.6943    1.7431 H       1  UNL1        0.0480
     68 H          -3.1937    0.8550    1.5776 H       1  UNL1        0.0480
     69 H          -2.5781    0.8382   -0.8226 H       1  UNL1        0.0480
     70 H          -1.3000    1.2898    0.3968 H       1  UNL1        0.0480
@<TRIPOS>BOND
     1     1     2    2
     2     2     3    1
     3     3     4    2
     4     3     5   am
     5     5     6    1
     6     6     7    1
     7     7     8    1
     8     8     9    1
     9     9    10    1
    10    10    11    1
    11    11    12   am
    12    12    13    2
    13    12    14    1
    14    14    15    1
    15    15    16   ar
    16    16    17   ar
    17    17    18   ar
    18    18    19   ar
    19    19    20   ar
    20    10    21    1
    21    21    22    2
    22    21    23   am
    23    23    24    1
    24    24    25    1
    25    25    26    1
    26    26    27    1
    27    27    28   ar
    28    28    29   ar
    29    29    30   ar
    30    30    31   ar
    31    31    32    1
    32    31    33   ar
    33    26    34    1
    34    34    35    1
    35    20    15   ar
    36    35    23    1
    37    33    27   ar
    38     1    36    1
    39     1    37    1
    40     2    38    1
    41     5    39    1
    42     6    40    1
    43     6    41    1
    44     7    42    1
    45     7    43    1
    46     8    44    1
    47     8    45    1
    48     9    46    1
    49     9    47    1
    50    10    48    1
    51    11    49    1
    52    14    50    1
    53    14    51    1
    54    16    52    1
    55    17    53    1
    56    18    54    1
    57    19    55    1
    58    20    56    1
    59    24    57    1
    60    24    58    1
    61    25    59    1
    62    25    60    1
    63    28    61    1
    64    29    62    1
    65    30    63    1
    66    32    64    1
    67    32    65    1
    68    32    66    1
    69    34    67    1
    70    34    68    1
    71    35    69    1
    72    35    70    1
