
     RDKit          3D

 70 72  0  0  0  0  0  0  0  0999 V2000
    7.5459   -3.2240    1.9110 C   0  0  0  0  0  0  0  0  0  0  0  0
    7.1669   -3.8329    0.8134 C   0  0  0  0  0  0  0  0  0  0  0  0
    6.2574   -3.2418   -0.1453 C   0  0  0  0  0  0  0  0  0  0  0  0
    5.9347   -3.8869   -1.1836 O   0  0  0  0  0  0  0  0  0  0  0  0
    5.6757   -1.9559   -0.0173 N   0  0  0  0  0  0  0  0  0  0  0  0
    4.7761   -1.3980   -0.9853 C   0  0  0  0  0  0  0  0  0  0  0  0
    3.5102   -2.2176   -1.1828 C   0  0  0  0  0  0  0  0  0  0  0  0
    2.7361   -2.3327    0.1169 C   0  0  0  0  0  0  0  0  0  0  0  0
    2.2934   -1.0276    0.6788 C   0  0  0  0  0  0  0  0  0  0  0  0
    1.3873   -0.2680   -0.2155 C   0  0  2  0  0  0  0  0  0  0  0  0
    1.0366    1.0141    0.3802 N   0  0  0  0  0  0  0  0  0  0  0  0
    1.2194    2.2448   -0.3063 C   0  0  0  0  0  0  0  0  0  0  0  0
    1.7049    2.1688   -1.4673 O   0  0  0  0  0  0  0  0  0  0  0  0
    0.8562    3.5550    0.3129 C   0  0  0  0  0  0  0  0  0  0  0  0
    1.1496    4.6505   -0.6375 C   0  0  0  0  0  0  0  0  0  0  0  0
    0.1530    5.0206   -1.5090 C   0  0  0  0  0  0  0  0  0  0  0  0
    0.3948    6.0296   -2.3984 C   0  0  0  0  0  0  0  0  0  0  0  0
    1.6155    6.6588   -2.4154 C   0  0  0  0  0  0  0  0  0  0  0  0
    2.6022    6.2765   -1.5366 C   0  0  0  0  0  0  0  0  0  0  0  0
    2.3812    5.2639   -0.6332 C   0  0  0  0  0  0  0  0  0  0  0  0
    0.1915   -0.9969   -0.6052 C   0  0  0  0  0  0  0  0  0  0  0  0
    0.4024   -2.1733   -1.1552 O   0  0  0  0  0  0  0  0  0  0  0  0
   -1.1588   -0.6809   -0.5063 N   0  0  0  0  0  0  0  0  0  0  0  0
   -2.0906   -1.7405   -1.0122 C   0  0  0  0  0  0  0  0  0  0  0  0
   -3.5155   -1.3122   -0.9358 C   0  0  0  0  0  0  0  0  0  0  0  0
   -3.8276   -0.7825    0.3886 N   0  0  0  0  0  0  0  0  0  0  0  0
   -5.1002   -0.9750    0.9898 C   0  0  0  0  0  0  0  0  0  0  0  0
   -5.3436   -0.4768    2.2509 C   0  0  0  0  0  0  0  0  0  0  0  0
   -6.5712   -0.6303    2.8944 C   0  0  0  0  0  0  0  0  0  0  0  0
   -7.5572   -1.3086    2.2209 C   0  0  0  0  0  0  0  0  0  0  0  0
   -7.2949   -1.8005    0.9583 C   0  0  0  0  0  0  0  0  0  0  0  0
   -8.3238   -2.5377    0.1908 C   0  0  0  0  0  0  0  0  0  0  0  0
   -6.0969   -1.6316    0.3713 N   0  0  0  0  0  0  0  0  0  0  0  0
   -2.7910   -0.0444    1.0795 C   0  0  0  0  0  0  0  0  0  0  0  0
   -1.8390    0.4745   -0.0257 C   0  0  0  0  0  0  0  0  0  0  0  0
    8.2264   -3.6734    2.6223 H   0  0  0  0  0  0  0  0  0  0  0  0
    7.1903   -2.2402    2.1503 H   0  0  0  0  0  0  0  0  0  0  0  0
    7.5548   -4.8203    0.6223 H   0  0  0  0  0  0  0  0  0  0  0  0
    5.9216   -1.3958    0.8282 H   0  0  0  0  0  0  0  0  0  0  0  0
    4.5096   -0.3576   -0.7195 H   0  0  0  0  0  0  0  0  0  0  0  0
    5.2457   -1.3308   -2.0040 H   0  0  0  0  0  0  0  0  0  0  0  0
    2.9013   -1.6473   -1.8980 H   0  0  0  0  0  0  0  0  0  0  0  0
    3.7457   -3.2149   -1.5464 H   0  0  0  0  0  0  0  0  0  0  0  0
    3.4905   -2.8265    0.8245 H   0  0  0  0  0  0  0  0  0  0  0  0
    1.9745   -3.1125   -0.0085 H   0  0  0  0  0  0  0  0  0  0  0  0
    3.2283   -0.4417    0.8893 H   0  0  0  0  0  0  0  0  0  0  0  0
    1.7782   -1.2632    1.6511 H   0  0  0  0  0  0  0  0  0  0  0  0
    1.9352   -0.0264   -1.1621 H   0  0  0  0  0  0  0  0  0  0  0  0
    0.6776    1.0027    1.3419 H   0  0  0  0  0  0  0  0  0  0  0  0
    1.4663    3.6512    1.2497 H   0  0  0  0  0  0  0  0  0  0  0  0
   -0.2059    3.6072    0.6110 H   0  0  0  0  0  0  0  0  0  0  0  0
   -0.8264    4.5412   -1.5215 H   0  0  0  0  0  0  0  0  0  0  0  0
   -0.3925    6.3172   -3.0818 H   0  0  0  0  0  0  0  0  0  0  0  0
    1.8226    7.4679   -3.1219 H   0  0  0  0  0  0  0  0  0  0  0  0
    3.5861    6.7542   -1.5203 H   0  0  0  0  0  0  0  0  0  0  0  0
    3.1641    4.9539    0.0708 H   0  0  0  0  0  0  0  0  0  0  0  0
   -1.9258   -2.5810   -0.3204 H   0  0  0  0  0  0  0  0  0  0  0  0
   -1.8000   -2.0225   -2.0232 H   0  0  0  0  0  0  0  0  0  0  0  0
   -4.1429   -2.2021   -1.0977 H   0  0  0  0  0  0  0  0  0  0  0  0
   -3.7849   -0.5525   -1.6993 H   0  0  0  0  0  0  0  0  0  0  0  0
   -4.5926    0.0695    2.8285 H   0  0  0  0  0  0  0  0  0  0  0  0
   -6.7521   -0.2327    3.8906 H   0  0  0  0  0  0  0  0  0  0  0  0
   -8.5523   -1.4746    2.6532 H   0  0  0  0  0  0  0  0  0  0  0  0
   -8.3007   -2.1423   -0.8530 H   0  0  0  0  0  0  0  0  0  0  0  0
   -9.3319   -2.3849    0.6143 H   0  0  0  0  0  0  0  0  0  0  0  0
   -8.0292   -3.5910    0.1509 H   0  0  0  0  0  0  0  0  0  0  0  0
   -2.1909   -0.6943    1.7431 H   0  0  0  0  0  0  0  0  0  0  0  0
   -3.1937    0.8550    1.5776 H   0  0  0  0  0  0  0  0  0  0  0  0
   -2.5781    0.8382   -0.8226 H   0  0  0  0  0  0  0  0  0  0  0  0
   -1.3000    1.2898    0.3968 H   0  0  0  0  0  0  0  0  0  0  0  0
  1  2  2  3
  2  3  1  0
  3  4  2  0
  3  5  1  0
  5  6  1  0
  6  7  1  0
  7  8  1  0
  8  9  1  0
  9 10  1  0
 10 11  1  0
 11 12  1  0
 12 13  2  0
 12 14  1  0
 14 15  1  0
 15 16  2  0
 16 17  1  0
 17 18  2  0
 18 19  1  0
 19 20  2  0
 10 21  1  0
 21 22  2  0
 21 23  1  0
 23 24  1  0
 24 25  1  0
 25 26  1  0
 26 27  1  0
 27 28  2  0
 28 29  1  0
 29 30  2  0
 30 31  1  0
 31 32  1  0
 31 33  2  0
 26 34  1  0
 34 35  1  0
 20 15  1  0
 35 23  1  0
 33 27  1  0
  1 36  1  0
  1 37  1  0
  2 38  1  0
  5 39  1  0
  6 40  1  0
  6 41  1  0
  7 42  1  0
  7 43  1  0
  8 44  1  0
  8 45  1  0
  9 46  1  0
  9 47  1  0
 10 48  1  6
 11 49  1  0
 14 50  1  0
 14 51  1  0
 16 52  1  0
 17 53  1  0
 18 54  1  0
 19 55  1  0
 20 56  1  0
 24 57  1  0
 24 58  1  0
 25 59  1  0
 25 60  1  0
 28 61  1  0
 29 62  1  0
 30 63  1  0
 32 64  1  0
 32 65  1  0
 32 66  1  0
 34 67  1  0
 34 68  1  0
 35 69  1  0
 35 70  1  0
M  END
$$$$
