
     RDKit          3D

 55 57  0  0  0  0  0  0  0  0999 V2000
    4.9441    1.4162   -0.8354 C   0  0  0  0  0  0  0  0  0  0  0  0
    4.9769    0.0072   -1.3693 C   0  0  0  0  0  0  0  0  0  0  0  0
    4.2212   -0.9246   -0.3676 C   0  0  0  0  0  0  0  0  0  0  0  0
    4.2787   -2.2954   -0.9325 C   0  0  0  0  0  0  0  0  0  0  0  0
    2.9109   -0.5034   -0.2760 O   0  0  0  0  0  0  0  0  0  0  0  0
    2.1577   -1.3656    0.4675 C   0  0  0  0  0  0  0  0  0  0  0  0
    0.7358   -0.8784    0.5613 C   0  0  0  0  0  0  0  0  0  0  0  0
   -0.3074   -1.1545   -0.2837 C   0  0  0  0  0  0  0  0  0  0  0  0
   -1.4585   -0.4964    0.1766 C   0  0  0  0  0  0  0  0  0  0  0  0
   -2.7617   -0.5753   -0.4511 C   0  0  0  0  0  0  0  0  0  0  0  0
   -3.5529    0.5049   -0.7059 C   0  0  0  0  0  0  0  0  0  0  0  0
   -4.8094    0.3244   -1.3164 C   0  0  0  0  0  0  0  0  0  0  0  0
   -5.2472   -0.9294   -1.6587 C   0  0  0  0  0  0  0  0  0  0  0  0
   -4.4539   -2.0151   -1.4038 C   0  0  0  0  0  0  0  0  0  0  0  0
   -4.8970   -3.2732   -1.7494 O   0  0  0  0  0  0  0  0  0  0  0  0
   -4.1540   -4.4498   -1.5282 C   0  0  0  0  0  0  0  0  0  0  0  0
   -3.2247   -1.8273   -0.8052 C   0  0  0  0  0  0  0  0  0  0  0  0
   -1.0558    0.1510    1.2844 N   0  0  0  0  0  0  0  0  0  0  0  0
   -1.8168    0.9997    2.1696 C   0  0  0  0  0  0  0  0  0  0  0  0
   -1.6874    2.4135    1.7350 C   0  0  0  0  0  0  0  0  0  0  0  0
   -0.8914    2.7652    0.6572 C   0  0  0  0  0  0  0  0  0  0  0  0
   -0.7629    4.0754    0.2492 C   0  0  0  0  0  0  0  0  0  0  0  0
   -1.4244    5.0959    0.9001 C   0  0  0  0  0  0  0  0  0  0  0  0
   -2.2200    4.7539    1.9757 C   0  0  0  0  0  0  0  0  0  0  0  0
   -2.3448    3.4388    2.3798 C   0  0  0  0  0  0  0  0  0  0  0  0
   -3.3581    3.0125    3.7477 Cl  0  0  0  0  0  0  0  0  0  0  0  0
    0.2412   -0.0833    1.4998 N   0  0  0  0  0  0  0  0  0  0  0  0
    4.8775   -0.7624    0.9537 C   0  0  0  0  0  0  0  0  0  0  0  0
    4.2795   -0.2021    1.8849 O   0  0  0  0  0  0  0  0  0  0  0  0
    6.1635   -1.2160    1.2167 O   0  0  0  0  0  0  0  0  0  0  0  0
    5.2111    1.4416    0.2304 H   0  0  0  0  0  0  0  0  0  0  0  0
    5.6809    2.0119   -1.4060 H   0  0  0  0  0  0  0  0  0  0  0  0
    3.9442    1.8614   -1.0429 H   0  0  0  0  0  0  0  0  0  0  0  0
    6.0089   -0.3388   -1.4806 H   0  0  0  0  0  0  0  0  0  0  0  0
    4.4301   -0.0405   -2.3131 H   0  0  0  0  0  0  0  0  0  0  0  0
    3.9580   -3.0927   -0.2595 H   0  0  0  0  0  0  0  0  0  0  0  0
    3.5597   -2.3119   -1.8039 H   0  0  0  0  0  0  0  0  0  0  0  0
    5.2646   -2.5462   -1.3943 H   0  0  0  0  0  0  0  0  0  0  0  0
    2.5784   -1.4993    1.4695 H   0  0  0  0  0  0  0  0  0  0  0  0
    2.0679   -2.3808   -0.0024 H   0  0  0  0  0  0  0  0  0  0  0  0
   -0.3062   -1.7647   -1.1658 H   0  0  0  0  0  0  0  0  0  0  0  0
   -3.2332    1.4865   -0.4546 H   0  0  0  0  0  0  0  0  0  0  0  0
   -5.3930    1.2233   -1.4929 H   0  0  0  0  0  0  0  0  0  0  0  0
   -6.2270   -0.9899   -2.1261 H   0  0  0  0  0  0  0  0  0  0  0  0
   -4.6120   -5.2955   -2.0705 H   0  0  0  0  0  0  0  0  0  0  0  0
   -3.1088   -4.3648   -1.9320 H   0  0  0  0  0  0  0  0  0  0  0  0
   -4.0372   -4.7025   -0.4568 H   0  0  0  0  0  0  0  0  0  0  0  0
   -2.6203   -2.7141   -0.6175 H   0  0  0  0  0  0  0  0  0  0  0  0
   -2.8896    0.6947    2.1433 H   0  0  0  0  0  0  0  0  0  0  0  0
   -1.4144    0.9495    3.2136 H   0  0  0  0  0  0  0  0  0  0  0  0
   -0.3670    1.9479    0.1430 H   0  0  0  0  0  0  0  0  0  0  0  0
   -0.1288    4.3101   -0.6007 H   0  0  0  0  0  0  0  0  0  0  0  0
   -1.3008    6.1144    0.5530 H   0  0  0  0  0  0  0  0  0  0  0  0
   -2.7579    5.5379    2.5135 H   0  0  0  0  0  0  0  0  0  0  0  0
    6.3338   -1.5436    2.1771 H   0  0  0  0  0  0  0  0  0  0  0  0
  1  2  1  0
  2  3  1  0
  3  4  1  0
  3  5  1  0
  5  6  1  0
  6  7  1  0
  7  8  1  0
  8  9  2  0
  9 10  1  0
 10 11  2  0
 11 12  1  0
 12 13  2  0
 13 14  1  0
 14 15  1  0
 15 16  1  0
 14 17  2  0
  9 18  1  0
 18 19  1  0
 19 20  1  0
 20 21  2  0
 21 22  1  0
 22 23  2  0
 23 24  1  0
 24 25  2  0
 25 26  1  0
 18 27  1  0
  3 28  1  0
 28 29  2  0
 28 30  1  0
 27  7  2  0
 17 10  1  0
 25 20  1  0
  1 31  1  0
  1 32  1  0
  1 33  1  0
  2 34  1  0
  2 35  1  0
  4 36  1  0
  4 37  1  0
  4 38  1  0
  6 39  1  0
  6 40  1  0
  8 41  1  0
 11 42  1  0
 12 43  1  0
 13 44  1  0
 16 45  1  0
 16 46  1  0
 16 47  1  0
 17 48  1  0
 19 49  1  0
 19 50  1  0
 21 51  1  0
 22 52  1  0
 23 53  1  0
 24 54  1  0
 30 55  1  0
M  END
$$$$
