@<TRIPOS>MOLECULE
*****
 55 57 0 0 0
SMALL
GASTEIGER

@<TRIPOS>ATOM
      1 C           4.9441    1.4162   -0.8354 C.3     1  UNL1       -0.0621
      2 C           4.9769    0.0072   -1.3693 C.3     1  UNL1       -0.0164
      3 C           4.2212   -0.9246   -0.3676 C.3     1  UNL1        0.1627
      4 C           4.2787   -2.2954   -0.9325 C.3     1  UNL1       -0.0253
      5 O           2.9109   -0.5034   -0.2760 O.3     1  UNL1       -0.3563
      6 C           2.1577   -1.3656    0.4675 C.3     1  UNL1        0.0928
      7 C           0.7358   -0.8784    0.5613 C.ar    1  UNL1        0.0892
      8 C          -0.3074   -1.1545   -0.2837 C.ar    1  UNL1       -0.0108
      9 C          -1.4585   -0.4964    0.1766 C.ar    1  UNL1        0.0697
     10 C          -2.7617   -0.5753   -0.4511 C.ar    1  UNL1        0.0035
     11 C          -3.5529    0.5049   -0.7059 C.ar    1  UNL1       -0.0524
     12 C          -4.8094    0.3244   -1.3164 C.ar    1  UNL1       -0.0577
     13 C          -5.2472   -0.9294   -1.6587 C.ar    1  UNL1       -0.0199
     14 C          -4.4539   -2.0151   -1.4038 C.ar    1  UNL1        0.1207
     15 O          -4.8970   -3.2732   -1.7494 O.3     1  UNL1       -0.4951
     16 C          -4.1540   -4.4498   -1.5282 C.3     1  UNL1        0.0788
     17 C          -3.2247   -1.8273   -0.8052 C.ar    1  UNL1       -0.0108
     18 N          -1.0558    0.1510    1.2844 N.ar    1  UNL1       -0.2590
     19 C          -1.8168    0.9997    2.1696 C.3     1  UNL1        0.0685
     20 C          -1.6874    2.4135    1.7350 C.ar    1  UNL1       -0.0078
     21 C          -0.8914    2.7652    0.6572 C.ar    1  UNL1       -0.0554
     22 C          -0.7629    4.0754    0.2492 C.ar    1  UNL1       -0.0614
     23 C          -1.4244    5.0959    0.9001 C.ar    1  UNL1       -0.0604
     24 C          -2.2200    4.7539    1.9757 C.ar    1  UNL1       -0.0431
     25 C          -2.3448    3.4388    2.3798 C.ar    1  UNL1        0.0459
     26 CL         -3.3581    3.0125    3.7477 Cl      1  UNL1       -0.0832
     27 N           0.2412   -0.0833    1.4998 N.ar    1  UNL1       -0.1730
     28 C           4.8775   -0.7624    0.9537 C.2     1  UNL1        0.3368
     29 O           4.2795   -0.2021    1.8849 O.2     1  UNL1       -0.2478
     30 O           6.1635   -1.2160    1.2167 O.3     1  UNL1       -0.4786
     31 H           5.2111    1.4416    0.2304 H       1  UNL1        0.0231
     32 H           5.6809    2.0119   -1.4060 H       1  UNL1        0.0231
     33 H           3.9442    1.8614   -1.0429 H       1  UNL1        0.0231
     34 H           6.0089   -0.3388   -1.4806 H       1  UNL1        0.0296
     35 H           4.4301   -0.0405   -2.3131 H       1  UNL1        0.0296
     36 H           3.9580   -3.0927   -0.2595 H       1  UNL1        0.0263
     37 H           3.5597   -2.3119   -1.8039 H       1  UNL1        0.0263
     38 H           5.2646   -2.5462   -1.3943 H       1  UNL1        0.0263
     39 H           2.5784   -1.4993    1.4695 H       1  UNL1        0.0626
     40 H           2.0679   -2.3808   -0.0024 H       1  UNL1        0.0626
     41 H          -0.3062   -1.7647   -1.1658 H       1  UNL1        0.0658
     42 H          -3.2332    1.4865   -0.4546 H       1  UNL1        0.0624
     43 H          -5.3930    1.2233   -1.4929 H       1  UNL1        0.0619
     44 H          -6.2270   -0.9899   -2.1261 H       1  UNL1        0.0654
     45 H          -4.6120   -5.2955   -2.0705 H       1  UNL1        0.0660
     46 H          -3.1088   -4.3648   -1.9320 H       1  UNL1        0.0660
     47 H          -4.0372   -4.7025   -0.4568 H       1  UNL1        0.0660
     48 H          -2.6203   -2.7141   -0.6175 H       1  UNL1        0.0661
     49 H          -2.8896    0.6947    2.1433 H       1  UNL1        0.0559
     50 H          -1.4144    0.9495    3.2136 H       1  UNL1        0.0559
     51 H          -0.3670    1.9479    0.1430 H       1  UNL1        0.0621
     52 H          -0.1288    4.3101   -0.6007 H       1  UNL1        0.0618
     53 H          -1.3008    6.1144    0.5530 H       1  UNL1        0.0618
     54 H          -2.7579    5.5379    2.5135 H       1  UNL1        0.0632
     55 H           6.3338   -1.5436    2.1771 H       1  UNL1        0.2951
@<TRIPOS>BOND
     1     1     2    1
     2     2     3    1
     3     3     4    1
     4     3     5    1
     5     5     6    1
     6     6     7    1
     7     7     8   ar
     8     8     9   ar
     9     9    10    1
    10    10    11   ar
    11    11    12   ar
    12    12    13   ar
    13    13    14   ar
    14    14    15    1
    15    15    16    1
    16    14    17   ar
    17     9    18   ar
    18    18    19    1
    19    19    20    1
    20    20    21   ar
    21    21    22   ar
    22    22    23   ar
    23    23    24   ar
    24    24    25   ar
    25    25    26    1
    26    18    27   ar
    27     3    28    1
    28    28    29    2
    29    28    30    1
    30    27     7   ar
    31    17    10   ar
    32    25    20   ar
    33     1    31    1
    34     1    32    1
    35     1    33    1
    36     2    34    1
    37     2    35    1
    38     4    36    1
    39     4    37    1
    40     4    38    1
    41     6    39    1
    42     6    40    1
    43     8    41    1
    44    11    42    1
    45    12    43    1
    46    13    44    1
    47    16    45    1
    48    16    46    1
    49    16    47    1
    50    17    48    1
    51    19    49    1
    52    19    50    1
    53    21    51    1
    54    22    52    1
    55    23    53    1
    56    24    54    1
    57    30    55    1
