
     RDKit          3D

 51 55  0  0  0  0  0  0  0  0999 V2000
    6.5402   -1.5185    2.2515 C   0  0  0  0  0  0  0  0  0  0  0  0
    6.4829   -1.7258    0.4442 P   0  0  0  0  0  5  0  0  0  0  0  0
    8.1180   -1.2935   -0.2085 C   0  0  0  0  0  0  0  0  0  0  0  0
    6.2294   -3.1810    0.0768 O   0  0  0  0  0  0  0  0  0  0  0  0
    5.2152   -0.6939   -0.2699 C   0  0  0  0  0  0  0  0  0  0  0  0
    3.9886   -0.5450    0.3444 C   0  0  0  0  0  0  0  0  0  0  0  0
    3.0130    0.2587   -0.2203 C   0  0  0  0  0  0  0  0  0  0  0  0
    3.2060    0.9405   -1.4008 C   0  0  0  0  0  0  0  0  0  0  0  0
    2.1957    1.7646   -1.9736 N   0  0  0  0  0  0  0  0  0  0  0  0
    0.9606    1.8641   -1.2690 C   0  0  0  0  0  0  0  0  0  0  0  0
    0.8357    2.8457   -0.3604 N   0  0  0  0  0  0  0  0  0  0  0  0
   -0.3324    2.9254    0.2937 C   0  0  0  0  0  0  0  0  0  0  0  0
   -1.3090    2.0500    0.0286 N   0  0  0  0  0  0  0  0  0  0  0  0
   -1.2253    1.0566   -0.8696 C   0  0  0  0  0  0  0  0  0  0  0  0
   -0.0321    0.9541   -1.5559 C   0  0  0  0  0  0  0  0  0  0  0  0
   -0.1918   -0.0946   -2.3796 N   0  0  0  0  0  0  0  0  0  0  0  0
   -1.4235   -0.6046   -2.2019 C   0  0  0  0  0  0  0  0  0  0  0  0
   -2.0771    0.1072   -1.2609 N   0  0  0  0  0  0  0  0  0  0  0  0
   -3.4301   -0.1842   -0.8340 C   0  0  0  0  0  0  0  0  0  0  0  0
   -4.0647    0.5033    0.0770 C   0  0  0  0  0  0  0  0  0  0  0  0
   -5.3697    0.3811    0.6323 C   0  0  0  0  0  0  0  0  0  0  0  0
   -5.8388    1.4468    1.4106 C   0  0  0  0  0  0  0  0  0  0  0  0
   -7.0705    1.4307    2.0182 C   0  0  0  0  0  0  0  0  0  0  0  0
   -7.8904    0.3595    1.8825 C   0  0  0  0  0  0  0  0  0  0  0  0
   -7.4624   -0.7049    1.1279 C   0  0  0  0  0  0  0  0  0  0  0  0
   -8.0608   -1.8825    0.8560 N   0  0  0  0  0  0  0  0  0  0  0  0
   -7.2676   -2.6116    0.1096 N   0  0  0  0  0  0  0  0  0  0  0  0
   -6.1275   -1.9033   -0.1150 C   0  0  0  0  0  0  0  0  0  0  0  0
   -6.2058   -0.6842    0.5103 C   0  0  0  0  0  0  0  0  0  0  0  0
    4.4423    0.7894   -2.0183 C   0  0  0  0  0  0  0  0  0  0  0  0
    5.4143   -0.0158   -1.4488 C   0  0  0  0  0  0  0  0  0  0  0  0
    6.3333   -0.4454    2.4463 H   0  0  0  0  0  0  0  0  0  0  0  0
    7.5702   -1.7267    2.5718 H   0  0  0  0  0  0  0  0  0  0  0  0
    5.8613   -2.1963    2.7689 H   0  0  0  0  0  0  0  0  0  0  0  0
    8.8237   -2.0835    0.0893 H   0  0  0  0  0  0  0  0  0  0  0  0
    8.0523   -1.1742   -1.3095 H   0  0  0  0  0  0  0  0  0  0  0  0
    8.4309   -0.3533    0.2984 H   0  0  0  0  0  0  0  0  0  0  0  0
    3.8176   -1.0825    1.2876 H   0  0  0  0  0  0  0  0  0  0  0  0
    2.0564    0.3698    0.2664 H   0  0  0  0  0  0  0  0  0  0  0  0
    2.3435    2.2776   -2.8697 H   0  0  0  0  0  0  0  0  0  0  0  0
   -0.4386    3.7230    1.0345 H   0  0  0  0  0  0  0  0  0  0  0  0
   -1.8539   -1.4586   -2.7221 H   0  0  0  0  0  0  0  0  0  0  0  0
   -3.9713   -0.9781   -1.3003 H   0  0  0  0  0  0  0  0  0  0  0  0
   -3.4203    1.3361    0.4900 H   0  0  0  0  0  0  0  0  0  0  0  0
   -5.2398    2.3298    1.5600 H   0  0  0  0  0  0  0  0  0  0  0  0
   -7.3911    2.2753    2.6084 H   0  0  0  0  0  0  0  0  0  0  0  0
   -8.8705    0.3445    2.3637 H   0  0  0  0  0  0  0  0  0  0  0  0
   -9.0252   -2.1305    1.2152 H   0  0  0  0  0  0  0  0  0  0  0  0
   -5.3113   -2.2696   -0.6736 H   0  0  0  0  0  0  0  0  0  0  0  0
    4.5995    1.3274   -2.9533 H   0  0  0  0  0  0  0  0  0  0  0  0
    6.3708   -0.1189   -1.9472 H   0  0  0  0  0  0  0  0  0  0  0  0
  1  2  1  0
  2  3  1  0
  2  4  2  0
  2  5  1  0
  5  6  2  0
  6  7  1  0
  7  8  2  0
  8  9  1  0
  9 10  1  0
 10 11  2  0
 11 12  1  0
 12 13  2  0
 13 14  1  0
 14 15  2  0
 15 16  1  0
 16 17  2  0
 17 18  1  0
 18 19  1  0
 19 20  2  0
 20 21  1  0
 21 22  2  0
 22 23  1  0
 23 24  2  0
 24 25  1  0
 25 26  1  0
 26 27  1  0
 27 28  2  0
 28 29  1  0
  8 30  1  0
 30 31  2  0
 31  5  1  0
 15 10  1  0
 29 21  1  0
 18 14  1  0
 29 25  2  0
  1 32  1  0
  1 33  1  0
  1 34  1  0
  3 35  1  0
  3 36  1  0
  3 37  1  0
  6 38  1  0
  7 39  1  0
  9 40  1  0
 12 41  1  0
 17 42  1  0
 19 43  1  0
 20 44  1  0
 22 45  1  0
 23 46  1  0
 24 47  1  0
 26 48  1  0
 28 49  1  0
 30 50  1  0
 31 51  1  0
M  END
$$$$
