@<TRIPOS>MOLECULE
*****
 51 55 0 0 0
SMALL
GASTEIGER

@<TRIPOS>ATOM
      1 C           6.5402   -1.5185    2.2515 C.3     1  UNL1       -0.0073
      2 P           6.4829   -1.7258    0.4442 P.3     1  UNL1        0.1106
      3 C           8.1180   -1.2935   -0.2085 C.3     1  UNL1       -0.0073
      4 O           6.2294   -3.1810    0.0768 O.2     1  UNL1       -0.3167
      5 C           5.2152   -0.6939   -0.2699 C.ar    1  UNL1        0.0115
      6 C           3.9886   -0.5450    0.3444 C.ar    1  UNL1       -0.0496
      7 C           3.0130    0.2587   -0.2203 C.ar    1  UNL1       -0.0398
      8 C           3.2060    0.9405   -1.4008 C.ar    1  UNL1        0.0325
      9 N           2.1957    1.7646   -1.9736 N.pl3   1  UNL1       -0.2976
     10 C           0.9606    1.8641   -1.2690 C.ar    1  UNL1        0.1539
     11 N           0.8357    2.8457   -0.3604 N.ar    1  UNL1       -0.2183
     12 C          -0.3324    2.9254    0.2937 C.ar    1  UNL1        0.1205
     13 N          -1.3090    2.0500    0.0286 N.ar    1  UNL1       -0.2157
     14 C          -1.2253    1.0566   -0.8696 C.ar    1  UNL1        0.1693
     15 C          -0.0321    0.9541   -1.5559 C.ar    1  UNL1        0.1481
     16 N          -0.1918   -0.0946   -2.3796 N.ar    1  UNL1       -0.2303
     17 C          -1.4235   -0.6046   -2.2019 C.ar    1  UNL1        0.1024
     18 N          -2.0771    0.1072   -1.2609 N.ar    1  UNL1       -0.2899
     19 C          -3.4301   -0.1842   -0.8340 C.2     1  UNL1        0.0132
     20 C          -4.0647    0.5033    0.0770 C.2     1  UNL1       -0.0373
     21 C          -5.3697    0.3811    0.6323 C.ar    1  UNL1       -0.0130
     22 C          -5.8388    1.4468    1.4106 C.ar    1  UNL1       -0.0538
     23 C          -7.0705    1.4307    2.0182 C.ar    1  UNL1       -0.0592
     24 C          -7.8904    0.3595    1.8825 C.ar    1  UNL1       -0.0363
     25 C          -7.4624   -0.7049    1.1279 C.ar    1  UNL1        0.0663
     26 N          -8.0608   -1.8825    0.8560 N.ar    1  UNL1       -0.2769
     27 N          -7.2676   -2.6116    0.1096 N.ar    1  UNL1       -0.1812
     28 C          -6.1275   -1.9033   -0.1150 C.ar    1  UNL1        0.0574
     29 C          -6.2058   -0.6842    0.5103 C.ar    1  UNL1        0.0266
     30 C           4.4423    0.7894   -2.0183 C.ar    1  UNL1       -0.0398
     31 C           5.4143   -0.0158   -1.4488 C.ar    1  UNL1       -0.0496
     32 H           6.3333   -0.4454    2.4463 H       1  UNL1        0.0309
     33 H           7.5702   -1.7267    2.5718 H       1  UNL1        0.0309
     34 H           5.8613   -2.1963    2.7689 H       1  UNL1        0.0309
     35 H           8.8237   -2.0835    0.0893 H       1  UNL1        0.0309
     36 H           8.0523   -1.1742   -1.3095 H       1  UNL1        0.0309
     37 H           8.4309   -0.3533    0.2984 H       1  UNL1        0.0309
     38 H           3.8176   -1.0825    1.2876 H       1  UNL1        0.0625
     39 H           2.0564    0.3698    0.2664 H       1  UNL1        0.0636
     40 H           2.3435    2.2776   -2.8697 H       1  UNL1        0.1536
     41 H          -0.4386    3.7230    1.0345 H       1  UNL1        0.1048
     42 H          -1.8539   -1.4586   -2.7221 H       1  UNL1        0.1033
     43 H          -3.9713   -0.9781   -1.3003 H       1  UNL1        0.0814
     44 H          -3.4203    1.3361    0.4900 H       1  UNL1        0.0638
     45 H          -5.2398    2.3298    1.5600 H       1  UNL1        0.0624
     46 H          -7.3911    2.2753    2.6084 H       1  UNL1        0.0618
     47 H          -8.8705    0.3445    2.3637 H       1  UNL1        0.0639
     48 H          -9.0252   -2.1305    1.2152 H       1  UNL1        0.1889
     49 H          -5.3113   -2.2696   -0.6736 H       1  UNL1        0.0854
     50 H           4.5995    1.3274   -2.9533 H       1  UNL1        0.0636
     51 H           6.3708   -0.1189   -1.9472 H       1  UNL1        0.0625
@<TRIPOS>BOND
     1     1     2    1
     2     2     3    1
     3     2     4    2
     4     2     5    1
     5     5     6   ar
     6     6     7   ar
     7     7     8   ar
     8     8     9    1
     9     9    10    1
    10    10    11   ar
    11    11    12   ar
    12    12    13   ar
    13    13    14   ar
    14    14    15   ar
    15    15    16   ar
    16    16    17   ar
    17    17    18   ar
    18    18    19    1
    19    19    20    2
    20    20    21    1
    21    21    22   ar
    22    22    23   ar
    23    23    24   ar
    24    24    25   ar
    25    25    26   ar
    26    26    27   ar
    27    27    28   ar
    28    28    29   ar
    29     8    30   ar
    30    30    31   ar
    31    31     5   ar
    32    15    10   ar
    33    29    21   ar
    34    18    14   ar
    35    29    25   ar
    36     1    32    1
    37     1    33    1
    38     1    34    1
    39     3    35    1
    40     3    36    1
    41     3    37    1
    42     6    38    1
    43     7    39    1
    44     9    40    1
    45    12    41    1
    46    17    42    1
    47    19    43    1
    48    20    44    1
    49    22    45    1
    50    23    46    1
    51    24    47    1
    52    26    48    1
    53    28    49    1
    54    30    50    1
    55    31    51    1
