
     RDKit          3D

 59 64  0  0  0  0  0  0  0  0999 V2000
    7.4906    1.2116    1.7092 C   0  0  0  0  0  0  0  0  0  0  0  0
    8.0432    1.5560    0.4225 N   0  0  0  0  0  0  0  0  0  0  0  0
    9.3215    2.1879    0.5758 C   0  0  0  0  0  0  0  0  0  0  0  0
    7.1447    2.3343   -0.3751 C   0  0  0  0  0  0  0  0  0  0  0  0
    5.8875    1.5641   -0.6168 C   0  0  0  0  0  0  0  0  0  0  0  0
    5.7754    0.7450   -1.7155 C   0  0  0  0  0  0  0  0  0  0  0  0
    4.6196    0.0345   -1.9414 C   0  0  0  0  0  0  0  0  0  0  0  0
    3.5405    0.1272   -1.0672 C   0  0  0  0  0  0  0  0  0  0  0  0
    2.3504   -0.6286   -1.3362 C   0  0  0  0  0  0  0  0  0  0  0  0
    1.3026   -0.5796   -0.5423 C   0  0  0  0  0  0  0  0  0  0  0  0
    0.1363   -1.3938   -0.9122 C   0  0  0  0  0  0  0  0  0  0  0  0
   -0.0111   -2.2007   -1.9791 N   0  0  0  0  0  0  0  0  0  0  0  0
   -1.2211   -2.7725   -1.9665 N   0  0  0  0  0  0  0  0  0  0  0  0
   -1.8991   -2.3522   -0.8858 C   0  0  0  0  0  0  0  0  0  0  0  0
   -3.1570   -2.6170   -0.3940 C   0  0  0  0  0  0  0  0  0  0  0  0
   -3.6313   -2.0396    0.7734 C   0  0  0  0  0  0  0  0  0  0  0  0
   -4.9785   -2.3262    1.2955 C   0  0  2  0  0  0  0  0  0  0  0  0
   -6.0511   -2.8034    0.3664 C   0  0  0  0  0  0  0  0  0  0  0  0
   -6.1457   -1.4695    1.0100 C   0  0  1  0  0  0  0  0  0  0  0  0
   -7.2403   -1.3468    1.9870 C   0  0  0  0  0  0  0  0  0  0  0  0
   -7.6797   -2.2344    2.7957 O   0  0  0  0  0  0  0  0  0  0  0  0
   -7.7631   -0.0502    1.9033 N   0  0  0  0  0  0  0  0  0  0  0  0
   -7.0526    0.6327    0.8428 C   0  0  0  0  0  0  0  0  0  0  0  0
   -7.2310    1.9258    0.3599 C   0  0  0  0  0  0  0  0  0  0  0  0
   -6.4681    2.3789   -0.6885 C   0  0  0  0  0  0  0  0  0  0  0  0
   -5.5347    1.5352   -1.2439 C   0  0  0  0  0  0  0  0  0  0  0  0
   -5.3508    0.2585   -0.7747 C   0  0  0  0  0  0  0  0  0  0  0  0
   -6.1253   -0.2049    0.2930 C   0  0  0  0  0  0  0  0  0  0  0  0
   -2.7786   -1.1774    1.4300 C   0  0  0  0  0  0  0  0  0  0  0  0
   -1.5035   -0.9040    0.9388 C   0  0  0  0  0  0  0  0  0  0  0  0
   -1.0688   -1.4947   -0.2204 C   0  0  0  0  0  0  0  0  0  0  0  0
    3.6852    0.9547    0.0213 C   0  0  0  0  0  0  0  0  0  0  0  0
    4.8376    1.6783    0.2684 C   0  0  0  0  0  0  0  0  0  0  0  0
    7.2393    2.1619    2.2332 H   0  0  0  0  0  0  0  0  0  0  0  0
    8.2884    0.6507    2.2760 H   0  0  0  0  0  0  0  0  0  0  0  0
    6.6158    0.5552    1.5584 H   0  0  0  0  0  0  0  0  0  0  0  0
    9.1932    3.3047    0.4939 H   0  0  0  0  0  0  0  0  0  0  0  0
    9.7183    1.9924    1.6006 H   0  0  0  0  0  0  0  0  0  0  0  0
   10.0355    1.8373   -0.1915 H   0  0  0  0  0  0  0  0  0  0  0  0
    7.6426    2.5129   -1.3630 H   0  0  0  0  0  0  0  0  0  0  0  0
    6.8691    3.2653    0.1231 H   0  0  0  0  0  0  0  0  0  0  0  0
    6.6071    0.6507   -2.4221 H   0  0  0  0  0  0  0  0  0  0  0  0
    4.5254   -0.6160   -2.8104 H   0  0  0  0  0  0  0  0  0  0  0  0
    2.3199   -1.2580   -2.2231 H   0  0  0  0  0  0  0  0  0  0  0  0
    1.2653    0.0127    0.3381 H   0  0  0  0  0  0  0  0  0  0  0  0
   -1.5539   -3.4441   -2.7084 H   0  0  0  0  0  0  0  0  0  0  0  0
   -3.7708   -3.3040   -0.9629 H   0  0  0  0  0  0  0  0  0  0  0  0
   -5.0085   -2.7072    2.3718 H   0  0  0  0  0  0  0  0  0  0  0  0
   -6.6957   -3.6281    0.7349 H   0  0  0  0  0  0  0  0  0  0  0  0
   -5.8280   -2.9169   -0.7191 H   0  0  0  0  0  0  0  0  0  0  0  0
   -8.5361    0.3969    2.4854 H   0  0  0  0  0  0  0  0  0  0  0  0
   -7.9898    2.5740    0.8306 H   0  0  0  0  0  0  0  0  0  0  0  0
   -6.6089    3.3992   -1.0691 H   0  0  0  0  0  0  0  0  0  0  0  0
   -4.9292    1.9082   -2.0836 H   0  0  0  0  0  0  0  0  0  0  0  0
   -4.5964   -0.3901   -1.2514 H   0  0  0  0  0  0  0  0  0  0  0  0
   -3.0480   -0.6739    2.3478 H   0  0  0  0  0  0  0  0  0  0  0  0
   -0.8219   -0.2250    1.4487 H   0  0  0  0  0  0  0  0  0  0  0  0
    2.8820    1.0832    0.7575 H   0  0  0  0  0  0  0  0  0  0  0  0
    4.9417    2.3282    1.1296 H   0  0  0  0  0  0  0  0  0  0  0  0
  1  2  1  0
  2  3  1  0
  2  4  1  0
  4  5  1  0
  5  6  2  0
  6  7  1  0
  7  8  2  0
  8  9  1  0
  9 10  2  0
 10 11  1  0
 11 12  2  0
 12 13  1  0
 13 14  1  0
 14 15  2  0
 15 16  1  0
 16 17  1  0
 17 18  1  0
 19 18  1  6
 19 20  1  0
 20 21  2  0
 20 22  1  0
 22 23  1  0
 23 24  2  0
 24 25  1  0
 25 26  2  0
 26 27  1  0
 27 28  2  0
 16 29  2  0
 29 30  1  0
 30 31  2  0
  8 32  1  0
 32 33  2  0
 33  5  1  0
 31 11  1  0
 31 14  1  0
 19 17  1  0
 28 23  1  0
 28 19  1  0
  1 34  1  0
  1 35  1  0
  1 36  1  0
  3 37  1  0
  3 38  1  0
  3 39  1  0
  4 40  1  0
  4 41  1  0
  6 42  1  0
  7 43  1  0
  9 44  1  0
 10 45  1  0
 13 46  1  0
 15 47  1  0
 17 48  1  1
 18 49  1  0
 18 50  1  0
 22 51  1  0
 24 52  1  0
 25 53  1  0
 26 54  1  0
 27 55  1  0
 29 56  1  0
 30 57  1  0
 32 58  1  0
 33 59  1  0
M  END
$$$$
