@<TRIPOS>MOLECULE
*****
 59 64 0 0 0
SMALL
GASTEIGER

@<TRIPOS>ATOM
      1 C           7.4906    1.2116    1.7092 C.3     1  UNL1       -0.0127
      2 N           8.0432    1.5560    0.4225 N.3     1  UNL1       -0.3042
      3 C           9.3215    2.1879    0.5758 C.3     1  UNL1       -0.0127
      4 C           7.1447    2.3343   -0.3751 C.3     1  UNL1        0.0235
      5 C           5.8875    1.5641   -0.6168 C.ar    1  UNL1       -0.0333
      6 C           5.7754    0.7450   -1.7155 C.ar    1  UNL1       -0.0568
      7 C           4.6196    0.0345   -1.9414 C.ar    1  UNL1       -0.0543
      8 C           3.5405    0.1272   -1.0672 C.ar    1  UNL1       -0.0249
      9 C           2.3504   -0.6286   -1.3362 C.2     1  UNL1       -0.0525
     10 C           1.3026   -0.5796   -0.5423 C.2     1  UNL1       -0.0334
     11 C           0.1363   -1.3938   -0.9122 C.ar    1  UNL1        0.0931
     12 N          -0.0111   -2.2007   -1.9791 N.ar    1  UNL1       -0.1733
     13 N          -1.2211   -2.7725   -1.9665 N.ar    1  UNL1       -0.2764
     14 C          -1.8991   -2.3522   -0.8858 C.ar    1  UNL1        0.0666
     15 C          -3.1570   -2.6170   -0.3940 C.ar    1  UNL1       -0.0328
     16 C          -3.6313   -2.0396    0.7734 C.ar    1  UNL1       -0.0409
     17 C          -4.9785   -2.3262    1.2955 C.3     1  UNL1        0.0035
     18 C          -6.0511   -2.8034    0.3664 C.3     1  UNL1       -0.0263
     19 C          -6.1457   -1.4695    1.0100 C.3     1  UNL1        0.0812
     20 C          -7.2403   -1.3468    1.9870 C.2     1  UNL1        0.2284
     21 O          -7.6797   -2.2344    2.7957 O.2     1  UNL1       -0.2745
     22 N          -7.7631   -0.0502    1.9033 N.am    1  UNL1       -0.2845
     23 C          -7.0526    0.6327    0.8428 C.ar    1  UNL1        0.0376
     24 C          -7.2310    1.9258    0.3599 C.ar    1  UNL1       -0.0402
     25 C          -6.4681    2.3789   -0.6885 C.ar    1  UNL1       -0.0600
     26 C          -5.5347    1.5352   -1.2439 C.ar    1  UNL1       -0.0614
     27 C          -5.3508    0.2585   -0.7747 C.ar    1  UNL1       -0.0558
     28 C          -6.1253   -0.2049    0.2930 C.ar    1  UNL1       -0.0106
     29 C          -2.7786   -1.1774    1.4300 C.ar    1  UNL1       -0.0575
     30 C          -1.5035   -0.9040    0.9388 C.ar    1  UNL1       -0.0502
     31 C          -1.0688   -1.4947   -0.2204 C.ar    1  UNL1        0.0268
     32 C           3.6852    0.9547    0.0213 C.ar    1  UNL1       -0.0543
     33 C           4.8376    1.6783    0.2684 C.ar    1  UNL1       -0.0568
     34 H           7.2393    2.1619    2.2332 H       1  UNL1        0.0391
     35 H           8.2884    0.6507    2.2760 H       1  UNL1        0.0391
     36 H           6.6158    0.5552    1.5584 H       1  UNL1        0.0391
     37 H           9.1932    3.3047    0.4939 H       1  UNL1        0.0391
     38 H           9.7183    1.9924    1.6006 H       1  UNL1        0.0391
     39 H          10.0355    1.8373   -0.1915 H       1  UNL1        0.0391
     40 H           7.6426    2.5129   -1.3630 H       1  UNL1        0.0475
     41 H           6.8691    3.2653    0.1231 H       1  UNL1        0.0475
     42 H           6.6071    0.6507   -2.4221 H       1  UNL1        0.0621
     43 H           4.5254   -0.6160   -2.8104 H       1  UNL1        0.0624
     44 H           2.3199   -1.2580   -2.2231 H       1  UNL1        0.0624
     45 H           1.2653    0.0127    0.3381 H       1  UNL1        0.0640
     46 H          -1.5539   -3.4441   -2.7084 H       1  UNL1        0.1889
     47 H          -3.7708   -3.3040   -0.9629 H       1  UNL1        0.0642
     48 H          -5.0085   -2.7072    2.3718 H       1  UNL1        0.0362
     49 H          -6.6957   -3.6281    0.7349 H       1  UNL1        0.0285
     50 H          -5.8280   -2.9169   -0.7191 H       1  UNL1        0.0285
     51 H          -8.5361    0.3969    2.4854 H       1  UNL1        0.1548
     52 H          -7.9898    2.5740    0.8306 H       1  UNL1        0.0636
     53 H          -6.6089    3.3992   -1.0691 H       1  UNL1        0.0618
     54 H          -4.9292    1.9082   -2.0836 H       1  UNL1        0.0618
     55 H          -4.5964   -0.3901   -1.2514 H       1  UNL1        0.0621
     56 H          -3.0480   -0.6739    2.3478 H       1  UNL1        0.0621
     57 H          -0.8219   -0.2250    1.4487 H       1  UNL1        0.0625
     58 H           2.8820    1.0832    0.7575 H       1  UNL1        0.0624
     59 H           4.9417    2.3282    1.1296 H       1  UNL1        0.0621
@<TRIPOS>BOND
     1     1     2    1
     2     2     3    1
     3     2     4    1
     4     4     5    1
     5     5     6   ar
     6     6     7   ar
     7     7     8   ar
     8     8     9    1
     9     9    10    2
    10    10    11    1
    11    11    12   ar
    12    12    13   ar
    13    13    14   ar
    14    14    15   ar
    15    15    16   ar
    16    16    17    1
    17    17    18    1
    18    19    18    1
    19    19    20    1
    20    20    21    2
    21    20    22   am
    22    22    23    1
    23    23    24   ar
    24    24    25   ar
    25    25    26   ar
    26    26    27   ar
    27    27    28   ar
    28    16    29   ar
    29    29    30   ar
    30    30    31   ar
    31     8    32   ar
    32    32    33   ar
    33    33     5   ar
    34    31    11   ar
    35    31    14   ar
    36    19    17    1
    37    28    23   ar
    38    28    19    1
    39     1    34    1
    40     1    35    1
    41     1    36    1
    42     3    37    1
    43     3    38    1
    44     3    39    1
    45     4    40    1
    46     4    41    1
    47     6    42    1
    48     7    43    1
    49     9    44    1
    50    10    45    1
    51    13    46    1
    52    15    47    1
    53    17    48    1
    54    18    49    1
    55    18    50    1
    56    22    51    1
    57    24    52    1
    58    25    53    1
    59    26    54    1
    60    27    55    1
    61    29    56    1
    62    30    57    1
    63    32    58    1
    64    33    59    1
