@<TRIPOS>MOLECULE
*****
 42 44 0 0 0
SMALL
GASTEIGER

@<TRIPOS>ATOM
      1 C           5.3904   -0.8091    1.1043 C.3     1  UNL1       -0.0158
      2 N           3.9526   -0.8561    1.2617 N.3     1  UNL1       -0.3189
      3 C           3.2906   -0.2044    0.1308 C.3     1  UNL1       -0.0030
      4 C           1.7995   -0.2983    0.3750 C.3     1  UNL1       -0.0243
      5 C           1.0271    0.3709   -0.7818 C.3     1  UNL1        0.0184
      6 N          -0.3784    0.2963   -0.5744 N.pl3   1  UNL1       -0.2996
      7 C          -1.1100    1.5333   -0.4468 C.ar    1  UNL1        0.0372
      8 C          -0.5381    2.4855   -1.2668 C.ar    1  UNL1       -0.0401
      9 C          -1.0760    3.7492   -1.3157 C.ar    1  UNL1       -0.0600
     10 C          -2.1985    3.9962   -0.5105 C.ar    1  UNL1       -0.0614
     11 C          -2.7556    3.0324    0.3019 C.ar    1  UNL1       -0.0568
     12 C          -2.2038    1.7411    0.3507 C.ar    1  UNL1       -0.0257
     13 C          -2.8797    0.8253    1.2548 C.3     1  UNL1       -0.0219
     14 C          -3.1354   -0.5535    0.8451 C.3     1  UNL1       -0.0219
     15 C          -2.1393   -1.3204    0.1378 C.ar    1  UNL1       -0.0257
     16 C          -2.5002   -2.6609    0.0936 C.ar    1  UNL1       -0.0568
     17 C          -1.7451   -3.6185   -0.5295 C.ar    1  UNL1       -0.0614
     18 C          -0.5657   -3.2905   -1.1561 C.ar    1  UNL1       -0.0600
     19 C          -0.1565   -1.9526   -1.1406 C.ar    1  UNL1       -0.0401
     20 C          -0.9411   -1.0316   -0.5063 C.ar    1  UNL1        0.0372
     21 H           5.7351    0.1666    1.5184 H       1  UNL1        0.0388
     22 H           5.8590   -1.6705    1.6074 H       1  UNL1        0.0388
     23 H           5.7043   -0.8486    0.0421 H       1  UNL1        0.0388
     24 H           3.6096   -1.8330    1.3768 H       1  UNL1        0.1216
     25 H           3.4928   -0.8086   -0.7881 H       1  UNL1        0.0424
     26 H           3.6382    0.8147   -0.0215 H       1  UNL1        0.0424
     27 H           1.5585   -1.3312    0.5138 H       1  UNL1        0.0293
     28 H           1.5184    0.3034    1.2909 H       1  UNL1        0.0293
     29 H           1.4476    0.2079   -1.7558 H       1  UNL1        0.0468
     30 H           1.3404    1.4328   -0.5303 H       1  UNL1        0.0468
     31 H           0.3165    2.2179   -1.8602 H       1  UNL1        0.0636
     32 H          -0.6751    4.5345   -1.9348 H       1  UNL1        0.0618
     33 H          -2.6365    4.9967   -0.5396 H       1  UNL1        0.0618
     34 H          -3.6186    3.2117    0.9248 H       1  UNL1        0.0621
     35 H          -2.3297    0.8743    2.2337 H       1  UNL1        0.0317
     36 H          -3.8850    1.3023    1.4754 H       1  UNL1        0.0317
     37 H          -4.1086   -0.5804    0.2713 H       1  UNL1        0.0317
     38 H          -3.3932   -1.1355    1.7822 H       1  UNL1        0.0317
     39 H          -3.4204   -2.9900    0.5684 H       1  UNL1        0.0621
     40 H          -2.0863   -4.6652   -0.5290 H       1  UNL1        0.0618
     41 H           0.0477   -4.0070   -1.6508 H       1  UNL1        0.0618
     42 H           0.7483   -1.6271   -1.6223 H       1  UNL1        0.0636
@<TRIPOS>BOND
     1     1     2    1
     2     2     3    1
     3     3     4    1
     4     4     5    1
     5     5     6    1
     6     6     7    1
     7     7     8   ar
     8     8     9   ar
     9     9    10   ar
    10    10    11   ar
    11    11    12   ar
    12    12    13    1
    13    13    14    1
    14    14    15    1
    15    15    16   ar
    16    16    17   ar
    17    17    18   ar
    18    18    19   ar
    19    19    20   ar
    20    20     6    1
    21    12     7   ar
    22    20    15   ar
    23     1    21    1
    24     1    22    1
    25     1    23    1
    26     2    24    1
    27     3    25    1
    28     3    26    1
    29     4    27    1
    30     4    28    1
    31     5    29    1
    32     5    30    1
    33     8    31    1
    34     9    32    1
    35    10    33    1
    36    11    34    1
    37    13    35    1
    38    13    36    1
    39    14    37    1
    40    14    38    1
    41    16    39    1
    42    17    40    1
    43    18    41    1
    44    19    42    1
