
     RDKit          3D

 42 44  0  0  0  0  0  0  0  0999 V2000
    5.3904   -0.8091    1.1043 C   0  0  0  0  0  0  0  0  0  0  0  0
    3.9526   -0.8561    1.2617 N   0  0  0  0  0  0  0  0  0  0  0  0
    3.2906   -0.2044    0.1308 C   0  0  0  0  0  0  0  0  0  0  0  0
    1.7995   -0.2983    0.3750 C   0  0  0  0  0  0  0  0  0  0  0  0
    1.0271    0.3709   -0.7818 C   0  0  0  0  0  0  0  0  0  0  0  0
   -0.3784    0.2963   -0.5744 N   0  0  0  0  0  0  0  0  0  0  0  0
   -1.1100    1.5333   -0.4468 C   0  0  0  0  0  0  0  0  0  0  0  0
   -0.5381    2.4855   -1.2668 C   0  0  0  0  0  0  0  0  0  0  0  0
   -1.0760    3.7492   -1.3157 C   0  0  0  0  0  0  0  0  0  0  0  0
   -2.1985    3.9962   -0.5105 C   0  0  0  0  0  0  0  0  0  0  0  0
   -2.7556    3.0324    0.3019 C   0  0  0  0  0  0  0  0  0  0  0  0
   -2.2038    1.7411    0.3507 C   0  0  0  0  0  0  0  0  0  0  0  0
   -2.8797    0.8253    1.2548 C   0  0  0  0  0  0  0  0  0  0  0  0
   -3.1354   -0.5535    0.8451 C   0  0  0  0  0  0  0  0  0  0  0  0
   -2.1393   -1.3204    0.1378 C   0  0  0  0  0  0  0  0  0  0  0  0
   -2.5002   -2.6609    0.0936 C   0  0  0  0  0  0  0  0  0  0  0  0
   -1.7451   -3.6185   -0.5295 C   0  0  0  0  0  0  0  0  0  0  0  0
   -0.5657   -3.2905   -1.1561 C   0  0  0  0  0  0  0  0  0  0  0  0
   -0.1565   -1.9526   -1.1406 C   0  0  0  0  0  0  0  0  0  0  0  0
   -0.9411   -1.0316   -0.5063 C   0  0  0  0  0  0  0  0  0  0  0  0
    5.7351    0.1666    1.5184 H   0  0  0  0  0  0  0  0  0  0  0  0
    5.8590   -1.6705    1.6074 H   0  0  0  0  0  0  0  0  0  0  0  0
    5.7043   -0.8486    0.0421 H   0  0  0  0  0  0  0  0  0  0  0  0
    3.6096   -1.8330    1.3768 H   0  0  0  0  0  0  0  0  0  0  0  0
    3.4928   -0.8086   -0.7881 H   0  0  0  0  0  0  0  0  0  0  0  0
    3.6382    0.8147   -0.0215 H   0  0  0  0  0  0  0  0  0  0  0  0
    1.5585   -1.3312    0.5138 H   0  0  0  0  0  0  0  0  0  0  0  0
    1.5184    0.3034    1.2909 H   0  0  0  0  0  0  0  0  0  0  0  0
    1.4476    0.2079   -1.7558 H   0  0  0  0  0  0  0  0  0  0  0  0
    1.3404    1.4328   -0.5303 H   0  0  0  0  0  0  0  0  0  0  0  0
    0.3165    2.2179   -1.8602 H   0  0  0  0  0  0  0  0  0  0  0  0
   -0.6751    4.5345   -1.9348 H   0  0  0  0  0  0  0  0  0  0  0  0
   -2.6365    4.9967   -0.5396 H   0  0  0  0  0  0  0  0  0  0  0  0
   -3.6186    3.2117    0.9248 H   0  0  0  0  0  0  0  0  0  0  0  0
   -2.3297    0.8743    2.2337 H   0  0  0  0  0  0  0  0  0  0  0  0
   -3.8850    1.3023    1.4754 H   0  0  0  0  0  0  0  0  0  0  0  0
   -4.1086   -0.5804    0.2713 H   0  0  0  0  0  0  0  0  0  0  0  0
   -3.3932   -1.1355    1.7822 H   0  0  0  0  0  0  0  0  0  0  0  0
   -3.4204   -2.9900    0.5684 H   0  0  0  0  0  0  0  0  0  0  0  0
   -2.0863   -4.6652   -0.5290 H   0  0  0  0  0  0  0  0  0  0  0  0
    0.0477   -4.0070   -1.6508 H   0  0  0  0  0  0  0  0  0  0  0  0
    0.7483   -1.6271   -1.6223 H   0  0  0  0  0  0  0  0  0  0  0  0
  1  2  1  0
  2  3  1  0
  3  4  1  0
  4  5  1  0
  5  6  1  0
  6  7  1  0
  7  8  2  0
  8  9  1  0
  9 10  2  0
 10 11  1  0
 11 12  2  0
 12 13  1  0
 13 14  1  0
 14 15  1  0
 15 16  2  0
 16 17  1  0
 17 18  2  0
 18 19  1  0
 19 20  2  0
 20  6  1  0
 12  7  1  0
 20 15  1  0
  1 21  1  0
  1 22  1  0
  1 23  1  0
  2 24  1  0
  3 25  1  0
  3 26  1  0
  4 27  1  0
  4 28  1  0
  5 29  1  0
  5 30  1  0
  8 31  1  0
  9 32  1  0
 10 33  1  0
 11 34  1  0
 13 35  1  0
 13 36  1  0
 14 37  1  0
 14 38  1  0
 16 39  1  0
 17 40  1  0
 18 41  1  0
 19 42  1  0
M  END
$$$$
