@<TRIPOS>MOLECULE
*****
 47 50 0 0 0
SMALL
GASTEIGER

@<TRIPOS>ATOM
      1 C          -1.3359   -1.0740    1.3169 C.3     1  UNL1       -0.0352
      2 C          -2.1821   -0.1979    0.5067 C.3     1  UNL1        0.0966
      3 C          -1.6275   -0.1723   -0.9107 C.ar    1  UNL1        0.0359
      4 C          -0.3226   -0.5774   -1.0985 C.ar    1  UNL1       -0.0293
      5 C           0.3270   -0.5020   -2.3065 C.ar    1  UNL1        0.0513
      6 N           1.6611   -0.8776   -2.5117 N.pl3   1  UNL1       -0.2965
      7 C           2.5461   -1.1834   -1.3838 C.ar    1  UNL1        0.1491
      8 N           2.4719   -2.4078   -0.8355 N.ar    1  UNL1       -0.2380
      9 C           3.3689   -2.7089    0.1561 C.ar    1  UNL1        0.0304
     10 C           4.2920   -1.7929    0.5510 C.ar    1  UNL1       -0.0342
     11 C           4.4025   -0.5450    0.0260 C.ar    1  UNL1        0.0064
     12 C           5.2643    0.4213    0.4565 C.ar    1  UNL1       -0.0335
     13 C           5.2766    1.6962   -0.0704 C.ar    1  UNL1        0.0704
     14 C           5.9735    2.7888    0.3500 C.1     1  UNL1        0.1007
     15 N           6.5971    3.7435    0.7021 N.1     1  UNL1       -0.1908
     16 C           4.2930    1.8819   -1.1272 C.ar    1  UNL1        0.0458
     17 N           3.4614    0.9896   -1.5494 N.ar    1  UNL1       -0.2503
     18 C           3.4343   -0.2675   -1.0060 C.ar    1  UNL1        0.1109
     19 C          -0.4915    0.0316   -3.3383 C.ar    1  UNL1        0.0518
     20 N          -1.7636    0.4068   -3.1415 N.ar    1  UNL1       -0.2255
     21 C          -2.3912    0.3303   -1.9155 C.ar    1  UNL1        0.2188
     22 F          -3.6614    0.7480   -1.7811 F       1  UNL1       -0.1835
     23 C          -3.6050   -0.7732    0.5935 C.3     1  UNL1        0.0224
     24 C          -4.4705   -0.1266    1.6977 C.3     1  UNL1        0.1997
     25 C          -4.2415   -0.7521    3.0352 C.3     1  UNL1        0.4266
     26 F          -5.1186   -0.1272    3.9498 F       1  UNL1       -0.1669
     27 F          -4.4809   -2.0947    3.0257 F       1  UNL1       -0.1669
     28 F          -2.9792   -0.4618    3.5961 F       1  UNL1       -0.1669
     29 O          -4.2800    1.2569    1.9073 O.2     1  UNL1       -0.4534
     30 C          -3.1716    1.9065    1.3275 C.2     1  UNL1        0.2765
     31 N          -3.1201    3.3483    1.4612 N.pl3   1  UNL1       -0.3134
     32 N          -2.3223    1.2187    0.7553 N.2     1  UNL1       -0.2256
     33 H          -0.7597   -1.8745    0.7052 H       1  UNL1        0.0256
     34 H          -0.5852   -0.6092    1.9571 H       1  UNL1        0.0256
     35 H          -1.9733   -1.8564    1.9023 H       1  UNL1        0.0256
     36 H           0.3180   -0.9463   -0.2856 H       1  UNL1        0.0641
     37 H           2.0523   -1.0070   -3.4215 H       1  UNL1        0.1537
     38 H           3.3402   -3.6669    0.6470 H       1  UNL1        0.0830
     39 H           5.0582   -2.0546    1.3720 H       1  UNL1        0.0639
     40 H           6.0020    0.1995    1.2036 H       1  UNL1        0.0637
     41 H           4.3012    2.8552   -1.5648 H       1  UNL1        0.0843
     42 H          -0.0340    0.1283   -4.3161 H       1  UNL1        0.0849
     43 H          -4.1893   -0.7162   -0.3138 H       1  UNL1        0.0330
     44 H          -3.5556   -1.8298    0.9066 H       1  UNL1        0.0330
     45 H          -5.5403   -0.3475    1.4416 H       1  UNL1        0.0826
     46 H          -3.9149    3.8406    1.0580 H       1  UNL1        0.1466
     47 H          -2.3236    3.7587    1.9368 H       1  UNL1        0.1466
@<TRIPOS>BOND
     1     2     1    1
     2     2     3    1
     3     3     4   ar
     4     4     5   ar
     5     5     6    1
     6     6     7    1
     7     7     8   ar
     8     8     9   ar
     9     9    10   ar
    10    10    11   ar
    11    11    12   ar
    12    12    13   ar
    13    13    14    1
    14    14    15    3
    15    13    16   ar
    16    16    17   ar
    17    17    18   ar
    18     5    19   ar
    19    19    20   ar
    20    20    21   ar
    21    21    22    1
    22     2    23    1
    23    23    24    1
    24    24    25    1
    25    25    26    1
    26    25    27    1
    27    25    28    1
    28    24    29    1
    29    29    30    1
    30    30    31    1
    31    30    32    2
    32    32     2    1
    33    21     3   ar
    34    18     7   ar
    35    18    11   ar
    36     1    33    1
    37     1    34    1
    38     1    35    1
    39     4    36    1
    40     6    37    1
    41     9    38    1
    42    10    39    1
    43    12    40    1
    44    16    41    1
    45    19    42    1
    46    23    43    1
    47    23    44    1
    48    24    45    1
    49    31    46    1
    50    31    47    1
