
     RDKit          3D

 47 50  0  0  0  0  0  0  0  0999 V2000
   -1.3359   -1.0740    1.3169 C   0  0  0  0  0  0  0  0  0  0  0  0
   -2.1821   -0.1979    0.5067 C   0  0  1  0  0  0  0  0  0  0  0  0
   -1.6275   -0.1723   -0.9107 C   0  0  0  0  0  0  0  0  0  0  0  0
   -0.3226   -0.5774   -1.0985 C   0  0  0  0  0  0  0  0  0  0  0  0
    0.3270   -0.5020   -2.3065 C   0  0  0  0  0  0  0  0  0  0  0  0
    1.6611   -0.8776   -2.5117 N   0  0  0  0  0  0  0  0  0  0  0  0
    2.5461   -1.1834   -1.3838 C   0  0  0  0  0  0  0  0  0  0  0  0
    2.4719   -2.4078   -0.8355 N   0  0  0  0  0  0  0  0  0  0  0  0
    3.3689   -2.7089    0.1561 C   0  0  0  0  0  0  0  0  0  0  0  0
    4.2920   -1.7929    0.5510 C   0  0  0  0  0  0  0  0  0  0  0  0
    4.4025   -0.5450    0.0260 C   0  0  0  0  0  0  0  0  0  0  0  0
    5.2643    0.4213    0.4565 C   0  0  0  0  0  0  0  0  0  0  0  0
    5.2766    1.6962   -0.0704 C   0  0  0  0  0  0  0  0  0  0  0  0
    5.9735    2.7888    0.3500 C   0  0  0  0  0  0  0  0  0  0  0  0
    6.5971    3.7435    0.7021 N   0  0  0  0  0  0  0  0  0  0  0  0
    4.2930    1.8819   -1.1272 C   0  0  0  0  0  0  0  0  0  0  0  0
    3.4614    0.9896   -1.5494 N   0  0  0  0  0  0  0  0  0  0  0  0
    3.4343   -0.2675   -1.0060 C   0  0  0  0  0  0  0  0  0  0  0  0
   -0.4915    0.0316   -3.3383 C   0  0  0  0  0  0  0  0  0  0  0  0
   -1.7636    0.4068   -3.1415 N   0  0  0  0  0  0  0  0  0  0  0  0
   -2.3912    0.3303   -1.9155 C   0  0  0  0  0  0  0  0  0  0  0  0
   -3.6614    0.7480   -1.7811 F   0  0  0  0  0  0  0  0  0  0  0  0
   -3.6050   -0.7732    0.5935 C   0  0  0  0  0  0  0  0  0  0  0  0
   -4.4705   -0.1266    1.6977 C   0  0  1  0  0  0  0  0  0  0  0  0
   -4.2415   -0.7521    3.0352 C   0  0  0  0  0  0  0  0  0  0  0  0
   -5.1186   -0.1272    3.9498 F   0  0  0  0  0  0  0  0  0  0  0  0
   -4.4809   -2.0947    3.0257 F   0  0  0  0  0  0  0  0  0  0  0  0
   -2.9792   -0.4618    3.5961 F   0  0  0  0  0  0  0  0  0  0  0  0
   -4.2800    1.2569    1.9073 O   0  0  0  0  0  0  0  0  0  0  0  0
   -3.1716    1.9065    1.3275 C   0  0  0  0  0  0  0  0  0  0  0  0
   -3.1201    3.3483    1.4612 N   0  0  0  0  0  0  0  0  0  0  0  0
   -2.3223    1.2187    0.7553 N   0  0  0  0  0  0  0  0  0  0  0  0
   -0.7597   -1.8745    0.7052 H   0  0  0  0  0  0  0  0  0  0  0  0
   -0.5852   -0.6092    1.9571 H   0  0  0  0  0  0  0  0  0  0  0  0
   -1.9733   -1.8564    1.9023 H   0  0  0  0  0  0  0  0  0  0  0  0
    0.3180   -0.9463   -0.2856 H   0  0  0  0  0  0  0  0  0  0  0  0
    2.0523   -1.0070   -3.4215 H   0  0  0  0  0  0  0  0  0  0  0  0
    3.3402   -3.6669    0.6470 H   0  0  0  0  0  0  0  0  0  0  0  0
    5.0582   -2.0546    1.3720 H   0  0  0  0  0  0  0  0  0  0  0  0
    6.0020    0.1995    1.2036 H   0  0  0  0  0  0  0  0  0  0  0  0
    4.3012    2.8552   -1.5648 H   0  0  0  0  0  0  0  0  0  0  0  0
   -0.0340    0.1283   -4.3161 H   0  0  0  0  0  0  0  0  0  0  0  0
   -4.1893   -0.7162   -0.3138 H   0  0  0  0  0  0  0  0  0  0  0  0
   -3.5556   -1.8298    0.9066 H   0  0  0  0  0  0  0  0  0  0  0  0
   -5.5403   -0.3475    1.4416 H   0  0  0  0  0  0  0  0  0  0  0  0
   -3.9149    3.8406    1.0580 H   0  0  0  0  0  0  0  0  0  0  0  0
   -2.3236    3.7587    1.9368 H   0  0  0  0  0  0  0  0  0  0  0  0
  2  1  1  1
  2  3  1  0
  3  4  2  0
  4  5  1  0
  5  6  1  0
  6  7  1  0
  7  8  2  0
  8  9  1  0
  9 10  2  0
 10 11  1  0
 11 12  2  0
 12 13  1  0
 13 14  1  0
 14 15  3  0
 13 16  2  0
 16 17  1  0
 17 18  2  0
  5 19  2  0
 19 20  1  0
 20 21  2  0
 21 22  1  0
  2 23  1  0
 23 24  1  0
 24 25  1  0
 25 26  1  0
 25 27  1  0
 25 28  1  0
 24 29  1  0
 29 30  1  0
 30 31  1  0
 30 32  2  0
 32  2  1  0
 21  3  1  0
 18  7  1  0
 18 11  1  0
  1 33  1  0
  1 34  1  0
  1 35  1  0
  4 36  1  0
  6 37  1  0
  9 38  1  0
 10 39  1  0
 12 40  1  0
 16 41  1  0
 19 42  1  0
 23 43  1  0
 23 44  1  0
 24 45  1  6
 31 46  1  0
 31 47  1  0
M  END
$$$$
