@<TRIPOS>MOLECULE
*****
 52 56 0 0 0
SMALL
GASTEIGER

@<TRIPOS>ATOM
      1 O          -1.4723   -0.9865    1.7105 O.2     1  UNL1       -0.2699
      2 C          -1.9605   -0.0824    1.0045 C.2     1  UNL1        0.2492
      3 C          -3.3473    0.2850    1.2716 C.ar    1  UNL1        0.0667
      4 C          -3.6615    1.2835    2.1948 C.ar    1  UNL1       -0.0122
      5 C          -4.9980    1.5936    2.4108 C.ar    1  UNL1        0.1243
      6 F          -5.3218    2.5616    3.3048 F       1  UNL1       -0.2055
      7 C          -5.9896    0.9232    1.7223 C.ar    1  UNL1       -0.0243
      8 C          -5.6703   -0.0627    0.8111 C.ar    1  UNL1       -0.0311
      9 C          -4.3340   -0.3874    0.5814 C.ar    1  UNL1        0.0984
     10 N          -3.9940   -1.4027   -0.3563 N.ar    1  UNL1       -0.1496
     11 N          -2.9653   -2.2212   -0.3166 N.ar    1  UNL1       -0.1556
     12 C          -2.9580   -3.0473   -1.3634 C.ar    1  UNL1        0.0697
     13 C          -4.0629   -2.7222   -2.1131 C.ar    1  UNL1        0.0697
     14 N          -4.6697   -1.7029   -1.4517 N.ar    1  UNL1       -0.1556
     15 N          -1.2406    0.5873   -0.0226 N.am    1  UNL1       -0.2897
     16 C          -1.8869    1.6301   -0.7987 C.3     1  UNL1        0.0388
     17 C          -0.7808    2.4189   -1.4816 C.3     1  UNL1        0.0635
     18 O           0.2645    2.6926   -0.6334 O.3     1  UNL1       -0.3764
     19 C           0.9358    1.5616   -0.1983 C.3     1  UNL1        0.0666
     20 C           0.1208    0.3002   -0.3612 C.3     1  UNL1        0.0537
     21 C           0.7247   -0.8319    0.4295 C.3     1  UNL1       -0.0068
     22 C           2.1249   -0.9971   -0.0418 C.ar    1  UNL1       -0.0435
     23 C           2.3611   -1.8581   -1.0902 C.ar    1  UNL1       -0.0584
     24 C           3.6251   -2.0864   -1.6076 C.ar    1  UNL1       -0.0594
     25 C           4.6771   -1.4207   -1.0430 C.ar    1  UNL1       -0.0345
     26 C           4.4820   -0.5522    0.0059 C.ar    1  UNL1        0.0864
     27 N           5.5880    0.1358    0.5857 N.ar    1  UNL1       -0.1503
     28 N           6.8562   -0.2179    0.4524 N.ar    1  UNL1       -0.1556
     29 C           7.6503    0.6405    1.1232 C.ar    1  UNL1        0.0697
     30 C           6.8172    1.5649    1.6941 C.ar    1  UNL1        0.0697
     31 N           5.5747    1.2151    1.3383 N.ar    1  UNL1       -0.1556
     32 C           3.1974   -0.3409    0.5076 C.ar    1  UNL1       -0.0313
     33 H          -2.8514    1.7727    2.7022 H       1  UNL1        0.0654
     34 H          -7.0368    1.1504    1.8766 H       1  UNL1        0.0647
     35 H          -6.4465   -0.5937    0.2663 H       1  UNL1        0.0640
     36 H          -2.2630   -3.8345   -1.6356 H       1  UNL1        0.0864
     37 H          -4.3630   -3.1964   -3.0349 H       1  UNL1        0.0864
     38 H          -2.4939    1.0929   -1.5765 H       1  UNL1        0.0487
     39 H          -2.5379    2.2709   -0.1868 H       1  UNL1        0.0487
     40 H          -1.2288    3.3887   -1.7853 H       1  UNL1        0.0575
     41 H          -0.4549    1.9146   -2.4213 H       1  UNL1        0.0575
     42 H           1.1238    1.7005    0.8909 H       1  UNL1        0.0578
     43 H           1.9107    1.4826   -0.7299 H       1  UNL1        0.0578
     44 H           0.1273    0.0053   -1.4492 H       1  UNL1        0.0526
     45 H           0.2097   -1.7807    0.2955 H       1  UNL1        0.0332
     46 H           0.7948   -0.4834    1.4842 H       1  UNL1        0.0332
     47 H           1.5191   -2.3754   -1.5240 H       1  UNL1        0.0620
     48 H           3.7409   -2.7855   -2.4437 H       1  UNL1        0.0618
     49 H           5.6845   -1.5724   -1.4202 H       1  UNL1        0.0639
     50 H           8.7243    0.6383    1.2181 H       1  UNL1        0.0864
     51 H           7.1079    2.4023    2.3051 H       1  UNL1        0.0864
     52 H           3.0468    0.3296    1.3175 H       1  UNL1        0.0642
@<TRIPOS>BOND
     1     1     2    2
     2     2     3    1
     3     3     4   ar
     4     4     5   ar
     5     5     6    1
     6     5     7   ar
     7     7     8   ar
     8     8     9   ar
     9     9    10    1
    10    10    11   ar
    11    11    12   ar
    12    12    13   ar
    13    13    14   ar
    14     2    15   am
    15    15    16    1
    16    16    17    1
    17    17    18    1
    18    18    19    1
    19    19    20    1
    20    20    21    1
    21    21    22    1
    22    22    23   ar
    23    23    24   ar
    24    24    25   ar
    25    25    26   ar
    26    26    27    1
    27    27    28   ar
    28    28    29   ar
    29    29    30   ar
    30    30    31   ar
    31    26    32   ar
    32     9     3   ar
    33    14    10   ar
    34    20    15    1
    35    32    22   ar
    36    31    27   ar
    37     4    33    1
    38     7    34    1
    39     8    35    1
    40    12    36    1
    41    13    37    1
    42    16    38    1
    43    16    39    1
    44    17    40    1
    45    17    41    1
    46    19    42    1
    47    19    43    1
    48    20    44    1
    49    21    45    1
    50    21    46    1
    51    23    47    1
    52    24    48    1
    53    25    49    1
    54    29    50    1
    55    30    51    1
    56    32    52    1
