
     RDKit          3D

 59 63  0  0  0  0  0  0  0  0999 V2000
   -0.9426   -3.5309    1.2542 C   0  0  0  0  0  0  0  0  0  0  0  0
   -0.4740   -2.3171    0.9832 N   0  0  0  0  0  0  0  0  0  0  0  0
   -1.3184   -1.2952    0.6450 C   0  0  0  0  0  0  0  0  0  0  0  0
   -0.7671   -0.0166    0.4054 N   0  0  0  0  0  0  0  0  0  0  0  0
    0.6736    0.2090    0.4573 C   0  0  1  0  0  0  0  0  0  0  0  0
    1.2623   -0.1000    1.8002 C   0  0  0  0  0  0  0  0  0  0  0  0
    2.7108    0.3606    1.7587 C   0  0  0  0  0  0  0  0  0  0  0  0
    3.4835   -0.2883    0.6330 C   0  0  2  0  0  0  0  0  0  0  0  0
    3.8490    0.7199   -0.3253 N   0  0  0  0  0  0  0  0  0  0  0  0
    4.5855    0.1856   -1.4450 C   0  0  0  0  0  0  0  0  0  0  0  0
    5.7936   -0.5910   -0.9995 C   0  0  0  0  0  0  0  0  0  0  0  0
    6.5834    0.2007   -0.1949 O   0  0  0  0  0  0  0  0  0  0  0  0
    6.1758    1.5179   -0.1445 C   0  0  0  0  0  0  0  0  0  0  0  0
    4.7482    1.6834    0.3293 C   0  0  0  0  0  0  0  0  0  0  0  0
    2.6141   -1.3245   -0.0069 C   0  0  0  0  0  0  0  0  0  0  0  0
    1.3833   -0.6573   -0.5630 C   0  0  0  0  0  0  0  0  0  0  0  0
   -2.6579   -1.5815    0.5969 C   0  0  0  0  0  0  0  0  0  0  0  0
   -3.7616   -0.8368    0.3034 C   0  0  0  0  0  0  0  0  0  0  0  0
   -3.8309    0.5643   -0.1426 C   0  0  0  0  0  0  0  0  0  0  0  0
   -5.0736    0.6487   -1.0761 C   0  0  0  0  0  0  0  0  0  0  0  0
   -5.1794    2.0385   -1.6479 C   0  0  0  0  0  0  0  0  0  0  0  0
   -4.6454    2.9972   -0.7889 O   0  0  0  0  0  0  0  0  0  0  0  0
   -5.0214    2.6290    0.5214 C   0  0  0  0  0  0  0  0  0  0  0  0
   -3.9689    1.5852    0.9484 C   0  0  0  0  0  0  0  0  0  0  0  0
   -4.8718   -1.7064    0.4343 C   0  0  0  0  0  0  0  0  0  0  0  0
   -4.4456   -2.9287    0.7895 N   0  0  0  0  0  0  0  0  0  0  0  0
   -3.1212   -2.8732    0.8900 C   0  0  0  0  0  0  0  0  0  0  0  0
   -2.2548   -3.8206    1.2123 N   0  0  0  0  0  0  0  0  0  0  0  0
   -0.2934   -4.3712    1.5284 H   0  0  0  0  0  0  0  0  0  0  0  0
   -1.3250    0.7995    0.2151 H   0  0  0  0  0  0  0  0  0  0  0  0
    0.9044    1.2664    0.2337 H   0  0  0  0  0  0  0  0  0  0  0  0
    1.2645   -1.1456    2.0965 H   0  0  0  0  0  0  0  0  0  0  0  0
    0.7690    0.5364    2.5757 H   0  0  0  0  0  0  0  0  0  0  0  0
    2.7184    1.4681    1.6609 H   0  0  0  0  0  0  0  0  0  0  0  0
    3.1515    0.0587    2.7519 H   0  0  0  0  0  0  0  0  0  0  0  0
    4.4397   -0.7140    1.0244 H   0  0  0  0  0  0  0  0  0  0  0  0
    4.9420    1.0453   -2.0513 H   0  0  0  0  0  0  0  0  0  0  0  0
    3.9522   -0.4219   -2.1229 H   0  0  0  0  0  0  0  0  0  0  0  0
    6.3752   -0.8828   -1.9030 H   0  0  0  0  0  0  0  0  0  0  0  0
    5.5384   -1.5346   -0.4851 H   0  0  0  0  0  0  0  0  0  0  0  0
    6.3915    2.0910   -1.0701 H   0  0  0  0  0  0  0  0  0  0  0  0
    6.8119    2.0103    0.6489 H   0  0  0  0  0  0  0  0  0  0  0  0
    4.7377    1.5805    1.4235 H   0  0  0  0  0  0  0  0  0  0  0  0
    4.4072    2.7072    0.0716 H   0  0  0  0  0  0  0  0  0  0  0  0
    3.1127   -1.8393   -0.8603 H   0  0  0  0  0  0  0  0  0  0  0  0
    2.3665   -2.1467    0.7087 H   0  0  0  0  0  0  0  0  0  0  0  0
    1.6861   -0.0447   -1.4330 H   0  0  0  0  0  0  0  0  0  0  0  0
    0.6516   -1.4200   -0.9099 H   0  0  0  0  0  0  0  0  0  0  0  0
   -3.0291    0.8475   -0.8876 H   0  0  0  0  0  0  0  0  0  0  0  0
   -4.9229   -0.1051   -1.8499 H   0  0  0  0  0  0  0  0  0  0  0  0
   -5.9499    0.3943   -0.4694 H   0  0  0  0  0  0  0  0  0  0  0  0
   -6.2574    2.2679   -1.7724 H   0  0  0  0  0  0  0  0  0  0  0  0
   -4.7016    2.1219   -2.6278 H   0  0  0  0  0  0  0  0  0  0  0  0
   -4.8740    3.5366    1.1431 H   0  0  0  0  0  0  0  0  0  0  0  0
   -6.0296    2.2175    0.5678 H   0  0  0  0  0  0  0  0  0  0  0  0
   -4.3387    1.1558    1.8959 H   0  0  0  0  0  0  0  0  0  0  0  0
   -3.0460    2.1830    1.0855 H   0  0  0  0  0  0  0  0  0  0  0  0
   -5.8931   -1.3991    0.2685 H   0  0  0  0  0  0  0  0  0  0  0  0
   -5.0887   -3.7350    0.9436 H   0  0  0  0  0  0  0  0  0  0  0  0
  1  2  2  0
  2  3  1  0
  3  4  1  0
  4  5  1  0
  5  6  1  0
  6  7  1  0
  7  8  1  0
  8  9  1  0
  9 10  1  0
 10 11  1  0
 11 12  1  0
 12 13  1  0
 13 14  1  0
  8 15  1  0
 15 16  1  0
  3 17  2  0
 17 18  1  0
 18 19  1  0
 19 20  1  0
 20 21  1  0
 21 22  1  0
 22 23  1  0
 23 24  1  0
 18 25  2  0
 25 26  1  0
 26 27  1  0
 27 28  2  0
 28  1  1  0
 16  5  1  0
 27 17  1  0
 14  9  1  0
 24 19  1  0
  1 29  1  0
  4 30  1  0
  5 31  1  6
  6 32  1  0
  6 33  1  0
  7 34  1  0
  7 35  1  0
  8 36  1  1
 10 37  1  0
 10 38  1  0
 11 39  1  0
 11 40  1  0
 13 41  1  0
 13 42  1  0
 14 43  1  0
 14 44  1  0
 15 45  1  0
 15 46  1  0
 16 47  1  0
 16 48  1  0
 19 49  1  0
 20 50  1  0
 20 51  1  0
 21 52  1  0
 21 53  1  0
 23 54  1  0
 23 55  1  0
 24 56  1  0
 24 57  1  0
 25 58  1  0
 26 59  1  0
M  END
$$$$
