@<TRIPOS>MOLECULE
*****
 59 63 0 0 0
SMALL
GASTEIGER

@<TRIPOS>ATOM
      1 C          -0.9426   -3.5309    1.2542 C.ar    1  UNL1        0.1204
      2 N          -0.4740   -2.3171    0.9832 N.ar    1  UNL1       -0.2202
      3 C          -1.3184   -1.2952    0.6450 C.ar    1  UNL1        0.1317
      4 N          -0.7671   -0.0166    0.4054 N.pl3   1  UNL1       -0.3256
      5 C           0.6736    0.2090    0.4573 C.3     1  UNL1        0.0221
      6 C           1.2623   -0.1000    1.8002 C.3     1  UNL1       -0.0331
      7 C           2.7108    0.3606    1.7587 C.3     1  UNL1       -0.0357
      8 C           3.4835   -0.2883    0.6330 C.3     1  UNL1        0.0107
      9 N           3.8490    0.7199   -0.3253 N.3     1  UNL1       -0.2951
     10 C           4.5855    0.1856   -1.4450 C.3     1  UNL1        0.0227
     11 C           5.7936   -0.5910   -0.9995 C.3     1  UNL1        0.0604
     12 O           6.5834    0.2007   -0.1949 O.3     1  UNL1       -0.3772
     13 C           6.1758    1.5179   -0.1445 C.3     1  UNL1        0.0604
     14 C           4.7482    1.6834    0.3293 C.3     1  UNL1        0.0227
     15 C           2.6141   -1.3245   -0.0069 C.3     1  UNL1       -0.0357
     16 C           1.3833   -0.6573   -0.5630 C.3     1  UNL1       -0.0331
     17 C          -2.6579   -1.5815    0.5969 C.ar    1  UNL1        0.0618
     18 C          -3.7616   -0.8368    0.3034 C.ar    1  UNL1       -0.0143
     19 C          -3.8309    0.5643   -0.1426 C.3     1  UNL1       -0.0096
     20 C          -5.0736    0.6487   -1.0761 C.3     1  UNL1       -0.0225
     21 C          -5.1794    2.0385   -1.6479 C.3     1  UNL1        0.0482
     22 O          -4.6454    2.9972   -0.7889 O.3     1  UNL1       -0.3797
     23 C          -5.0214    2.6290    0.5214 C.3     1  UNL1        0.0482
     24 C          -3.9689    1.5852    0.9484 C.3     1  UNL1       -0.0225
     25 C          -4.8718   -1.7064    0.4343 C.ar    1  UNL1        0.0077
     26 N          -4.4456   -2.9287    0.7895 N.ar    1  UNL1       -0.3454
     27 C          -3.1212   -2.8732    0.8900 C.ar    1  UNL1        0.1434
     28 N          -2.2548   -3.8206    1.2123 N.ar    1  UNL1       -0.2178
     29 H          -0.2934   -4.3712    1.5284 H       1  UNL1        0.1048
     30 H          -1.3250    0.7995    0.2151 H       1  UNL1        0.1478
     31 H           0.9044    1.2664    0.2337 H       1  UNL1        0.0498
     32 H           1.2645   -1.1456    2.0965 H       1  UNL1        0.0284
     33 H           0.7690    0.5364    2.5757 H       1  UNL1        0.0284
     34 H           2.7184    1.4681    1.6609 H       1  UNL1        0.0281
     35 H           3.1515    0.0587    2.7519 H       1  UNL1        0.0281
     36 H           4.4397   -0.7140    1.0244 H       1  UNL1        0.0462
     37 H           4.9420    1.0453   -2.0513 H       1  UNL1        0.0449
     38 H           3.9522   -0.4219   -2.1229 H       1  UNL1        0.0449
     39 H           6.3752   -0.8828   -1.9030 H       1  UNL1        0.0572
     40 H           5.5384   -1.5346   -0.4851 H       1  UNL1        0.0572
     41 H           6.3915    2.0910   -1.0701 H       1  UNL1        0.0572
     42 H           6.8119    2.0103    0.6489 H       1  UNL1        0.0572
     43 H           4.7377    1.5805    1.4235 H       1  UNL1        0.0449
     44 H           4.4072    2.7072    0.0716 H       1  UNL1        0.0449
     45 H           3.1127   -1.8393   -0.8603 H       1  UNL1        0.0281
     46 H           2.3665   -2.1467    0.7087 H       1  UNL1        0.0281
     47 H           1.6861   -0.0447   -1.4330 H       1  UNL1        0.0284
     48 H           0.6516   -1.4200   -0.9099 H       1  UNL1        0.0284
     49 H          -3.0291    0.8475   -0.8876 H       1  UNL1        0.0351
     50 H          -4.9229   -0.1051   -1.8499 H       1  UNL1        0.0293
     51 H          -5.9499    0.3943   -0.4694 H       1  UNL1        0.0293
     52 H          -6.2574    2.2679   -1.7724 H       1  UNL1        0.0560
     53 H          -4.7016    2.1219   -2.6278 H       1  UNL1        0.0560
     54 H          -4.8740    3.5366    1.1431 H       1  UNL1        0.0560
     55 H          -6.0296    2.2175    0.5678 H       1  UNL1        0.0560
     56 H          -4.3387    1.1558    1.8959 H       1  UNL1        0.0293
     57 H          -3.0460    2.1830    1.0855 H       1  UNL1        0.0293
     58 H          -5.8931   -1.3991    0.2685 H       1  UNL1        0.0810
     59 H          -5.0887   -3.7350    0.9436 H       1  UNL1        0.1668
@<TRIPOS>BOND
     1     1     2   ar
     2     2     3   ar
     3     3     4    1
     4     4     5    1
     5     5     6    1
     6     6     7    1
     7     7     8    1
     8     8     9    1
     9     9    10    1
    10    10    11    1
    11    11    12    1
    12    12    13    1
    13    13    14    1
    14     8    15    1
    15    15    16    1
    16     3    17   ar
    17    17    18   ar
    18    18    19    1
    19    19    20    1
    20    20    21    1
    21    21    22    1
    22    22    23    1
    23    23    24    1
    24    18    25   ar
    25    25    26   ar
    26    26    27   ar
    27    27    28   ar
    28    28     1   ar
    29    16     5    1
    30    27    17   ar
    31    14     9    1
    32    24    19    1
    33     1    29    1
    34     4    30    1
    35     5    31    1
    36     6    32    1
    37     6    33    1
    38     7    34    1
    39     7    35    1
    40     8    36    1
    41    10    37    1
    42    10    38    1
    43    11    39    1
    44    11    40    1
    45    13    41    1
    46    13    42    1
    47    14    43    1
    48    14    44    1
    49    15    45    1
    50    15    46    1
    51    16    47    1
    52    16    48    1
    53    19    49    1
    54    20    50    1
    55    20    51    1
    56    21    52    1
    57    21    53    1
    58    23    54    1
    59    23    55    1
    60    24    56    1
    61    24    57    1
    62    25    58    1
    63    26    59    1
