
     RDKit          3D

 51 54  0  0  0  0  0  0  0  0999 V2000
    8.0733    0.2925    0.5183 C   0  0  0  0  0  0  0  0  0  0  0  0
    7.3417   -0.3062   -0.5348 O   0  0  0  0  0  0  0  0  0  0  0  0
    5.9618   -0.2985   -0.4473 C   0  0  0  0  0  0  0  0  0  0  0  0
    5.2213   -0.8701   -1.4506 C   0  0  0  0  0  0  0  0  0  0  0  0
    3.8486   -0.8925   -1.4184 C   0  0  0  0  0  0  0  0  0  0  0  0
    3.1561   -0.3338   -0.3624 C   0  0  0  0  0  0  0  0  0  0  0  0
    1.6620   -0.3465   -0.3061 C   0  0  0  0  0  0  0  0  0  0  0  0
    1.1477   -1.4347   -1.2445 C   0  0  0  0  0  0  0  0  0  0  0  0
    1.2886   -0.7332    1.0260 N   0  0  0  0  0  0  0  0  0  0  0  0
    0.2329   -0.4178    1.6163 N   0  0  0  0  0  0  0  0  0  0  0  0
   -0.7834    0.4015    1.0224 C   0  0  0  0  0  0  0  0  0  0  0  0
   -0.4911    1.6905    0.7209 N   0  0  0  0  0  0  0  0  0  0  0  0
   -1.4007    2.5046    0.1643 C   0  0  0  0  0  0  0  0  0  0  0  0
   -1.0853    3.8215   -0.1380 C   0  0  0  0  0  0  0  0  0  0  0  0
   -2.0367    4.6517   -0.7136 C   0  0  0  0  0  0  0  0  0  0  0  0
   -3.2881    4.1710   -0.9836 C   0  0  0  0  0  0  0  0  0  0  0  0
   -3.5717    2.8568   -0.6715 C   0  0  0  0  0  0  0  0  0  0  0  0
   -2.6601    2.0026   -0.1017 C   0  0  0  0  0  0  0  0  0  0  0  0
   -2.9538    0.7100    0.2003 N   0  0  0  0  0  0  0  0  0  0  0  0
   -2.0344   -0.0943    0.7572 C   0  0  0  0  0  0  0  0  0  0  0  0
   -2.3247   -1.5071    1.0976 C   0  0  0  0  0  0  0  0  0  0  0  0
   -3.6989   -1.8982    0.7585 C   0  0  0  0  0  0  0  0  0  0  0  0
   -4.7160   -1.7429    1.6966 C   0  0  0  0  0  0  0  0  0  0  0  0
   -6.0226   -2.0906    1.4385 C   0  0  0  0  0  0  0  0  0  0  0  0
   -6.3151   -2.6163    0.1836 C   0  0  0  0  0  0  0  0  0  0  0  0
   -5.3227   -2.7800   -0.7641 C   0  0  0  0  0  0  0  0  0  0  0  0
   -4.0269   -2.4197   -0.4668 C   0  0  0  0  0  0  0  0  0  0  0  0
    3.9230    0.2366    0.6372 C   0  0  0  0  0  0  0  0  0  0  0  0
    5.2982    0.2639    0.6138 C   0  0  0  0  0  0  0  0  0  0  0  0
    9.1675    0.1268    0.4152 H   0  0  0  0  0  0  0  0  0  0  0  0
    7.6933   -0.1456    1.4656 H   0  0  0  0  0  0  0  0  0  0  0  0
    7.9015    1.3800    0.4501 H   0  0  0  0  0  0  0  0  0  0  0  0
    5.7369   -1.3159   -2.2912 H   0  0  0  0  0  0  0  0  0  0  0  0
    3.2553   -1.3495   -2.2205 H   0  0  0  0  0  0  0  0  0  0  0  0
    1.2342    0.6295   -0.5287 H   0  0  0  0  0  0  0  0  0  0  0  0
    0.0838   -1.6648   -1.0328 H   0  0  0  0  0  0  0  0  0  0  0  0
    1.1905   -1.0674   -2.3041 H   0  0  0  0  0  0  0  0  0  0  0  0
    1.7880   -2.3245   -1.1924 H   0  0  0  0  0  0  0  0  0  0  0  0
   -0.1105    4.2390    0.0589 H   0  0  0  0  0  0  0  0  0  0  0  0
   -1.7494    5.6848   -0.9375 H   0  0  0  0  0  0  0  0  0  0  0  0
   -4.0446    4.8187   -1.4374 H   0  0  0  0  0  0  0  0  0  0  0  0
   -4.5653    2.5017   -0.8940 H   0  0  0  0  0  0  0  0  0  0  0  0
   -1.5548   -2.1738    0.6454 H   0  0  0  0  0  0  0  0  0  0  0  0
   -2.1786   -1.6194    2.2087 H   0  0  0  0  0  0  0  0  0  0  0  0
   -4.4873   -1.3298    2.6830 H   0  0  0  0  0  0  0  0  0  0  0  0
   -6.8265   -1.9767    2.1562 H   0  0  0  0  0  0  0  0  0  0  0  0
   -7.3336   -2.9029   -0.0588 H   0  0  0  0  0  0  0  0  0  0  0  0
   -5.5544   -3.1851   -1.7279 H   0  0  0  0  0  0  0  0  0  0  0  0
   -3.2588   -2.5463   -1.2001 H   0  0  0  0  0  0  0  0  0  0  0  0
    3.3495    0.6757    1.4686 H   0  0  0  0  0  0  0  0  0  0  0  0
    5.8403    0.7245    1.4252 H   0  0  0  0  0  0  0  0  0  0  0  0
  1  2  1  0
  2  3  1  0
  3  4  2  0
  4  5  1  0
  5  6  2  0
  6  7  1  0
  7  8  1  0
  7  9  1  0
  9 10  2  3
 10 11  1  0
 11 12  2  0
 12 13  1  0
 13 14  2  0
 14 15  1  0
 15 16  2  0
 16 17  1  0
 17 18  2  0
 18 19  1  0
 19 20  2  0
 20 21  1  0
 21 22  1  0
 22 23  2  0
 23 24  1  0
 24 25  2  0
 25 26  1  0
 26 27  2  0
  6 28  1  0
 28 29  2  0
 29  3  1  0
 20 11  1  0
 27 22  1  0
 18 13  1  0
  1 30  1  0
  1 31  1  0
  1 32  1  0
  4 33  1  0
  5 34  1  0
  7 35  1  0
  8 36  1  0
  8 37  1  0
  8 38  1  0
 14 39  1  0
 15 40  1  0
 16 41  1  0
 17 42  1  0
 21 43  1  0
 21 44  1  0
 23 45  1  0
 24 46  1  0
 25 47  1  0
 26 48  1  0
 27 49  1  0
 28 50  1  0
 29 51  1  0
M  END
$$$$
