@<TRIPOS>MOLECULE
*****
 51 54 0 0 0
SMALL
GASTEIGER

@<TRIPOS>ATOM
      1 C           8.0733    0.2925    0.5183 C.3     1  UNL1        0.0788
      2 O           7.3417   -0.3062   -0.5348 O.3     1  UNL1       -0.4951
      3 C           5.9618   -0.2985   -0.4473 C.ar    1  UNL1        0.1201
      4 C           5.2213   -0.8701   -1.4506 C.ar    1  UNL1       -0.0196
      5 C           3.8486   -0.8925   -1.4184 C.ar    1  UNL1       -0.0530
      6 C           3.1561   -0.3338   -0.3624 C.ar    1  UNL1       -0.0214
      7 C           1.6620   -0.3465   -0.3061 C.3     1  UNL1        0.0940
      8 C           1.1477   -1.4347   -1.2445 C.3     1  UNL1       -0.0368
      9 N           1.2886   -0.7332    1.0260 N.2     1  UNL1       -0.1778
     10 N           0.2329   -0.4178    1.6163 N.2     1  UNL1       -0.1321
     11 C          -0.7834    0.4015    1.0224 C.ar    1  UNL1        0.1966
     12 N          -0.4911    1.6905    0.7209 N.ar    1  UNL1       -0.2233
     13 C          -1.4007    2.5046    0.1643 C.ar    1  UNL1        0.0916
     14 C          -1.0853    3.8215   -0.1380 C.ar    1  UNL1       -0.0342
     15 C          -2.0367    4.6517   -0.7136 C.ar    1  UNL1       -0.0596
     16 C          -3.2881    4.1710   -0.9836 C.ar    1  UNL1       -0.0596
     17 C          -3.5717    2.8568   -0.6715 C.ar    1  UNL1       -0.0342
     18 C          -2.6601    2.0026   -0.1017 C.ar    1  UNL1        0.0896
     19 N          -2.9538    0.7100    0.2003 N.ar    1  UNL1       -0.2460
     20 C          -2.0344   -0.0943    0.7572 C.ar    1  UNL1        0.0920
     21 C          -2.3247   -1.5071    1.0976 C.3     1  UNL1        0.0185
     22 C          -3.6989   -1.8982    0.7585 C.ar    1  UNL1       -0.0415
     23 C          -4.7160   -1.7429    1.6966 C.ar    1  UNL1       -0.0582
     24 C          -6.0226   -2.0906    1.4385 C.ar    1  UNL1       -0.0615
     25 C          -6.3151   -2.6163    0.1836 C.ar    1  UNL1       -0.0617
     26 C          -5.3227   -2.7800   -0.7641 C.ar    1  UNL1       -0.0615
     27 C          -4.0269   -2.4197   -0.4668 C.ar    1  UNL1       -0.0582
     28 C           3.9230    0.2366    0.6372 C.ar    1  UNL1       -0.0530
     29 C           5.2982    0.2639    0.6138 C.ar    1  UNL1       -0.0196
     30 H           9.1675    0.1268    0.4152 H       1  UNL1        0.0660
     31 H           7.6933   -0.1456    1.4656 H       1  UNL1        0.0660
     32 H           7.9015    1.3800    0.4501 H       1  UNL1        0.0660
     33 H           5.7369   -1.3159   -2.2912 H       1  UNL1        0.0654
     34 H           3.2553   -1.3495   -2.2205 H       1  UNL1        0.0622
     35 H           1.2342    0.6295   -0.5287 H       1  UNL1        0.0610
     36 H           0.0838   -1.6648   -1.0328 H       1  UNL1        0.0254
     37 H           1.1905   -1.0674   -2.3041 H       1  UNL1        0.0254
     38 H           1.7880   -2.3245   -1.1924 H       1  UNL1        0.0254
     39 H          -0.1105    4.2390    0.0589 H       1  UNL1        0.0639
     40 H          -1.7494    5.6848   -0.9375 H       1  UNL1        0.0618
     41 H          -4.0446    4.8187   -1.4374 H       1  UNL1        0.0618
     42 H          -4.5653    2.5017   -0.8940 H       1  UNL1        0.0639
     43 H          -1.5548   -2.1738    0.6454 H       1  UNL1        0.0378
     44 H          -2.1786   -1.6194    2.2087 H       1  UNL1        0.0378
     45 H          -4.4873   -1.3298    2.6830 H       1  UNL1        0.0620
     46 H          -6.8265   -1.9767    2.1562 H       1  UNL1        0.0618
     47 H          -7.3336   -2.9029   -0.0588 H       1  UNL1        0.0618
     48 H          -5.5544   -3.1851   -1.7279 H       1  UNL1        0.0618
     49 H          -3.2588   -2.5463   -1.2001 H       1  UNL1        0.0620
     50 H           3.3495    0.6757    1.4686 H       1  UNL1        0.0622
     51 H           5.8403    0.7245    1.4252 H       1  UNL1        0.0654
@<TRIPOS>BOND
     1     1     2    1
     2     2     3    1
     3     3     4   ar
     4     4     5   ar
     5     5     6   ar
     6     6     7    1
     7     7     8    1
     8     7     9    1
     9     9    10    2
    10    10    11    1
    11    11    12   ar
    12    12    13   ar
    13    13    14   ar
    14    14    15   ar
    15    15    16   ar
    16    16    17   ar
    17    17    18   ar
    18    18    19   ar
    19    19    20   ar
    20    20    21    1
    21    21    22    1
    22    22    23   ar
    23    23    24   ar
    24    24    25   ar
    25    25    26   ar
    26    26    27   ar
    27     6    28   ar
    28    28    29   ar
    29    29     3   ar
    30    20    11   ar
    31    27    22   ar
    32    18    13   ar
    33     1    30    1
    34     1    31    1
    35     1    32    1
    36     4    33    1
    37     5    34    1
    38     7    35    1
    39     8    36    1
    40     8    37    1
    41     8    38    1
    42    14    39    1
    43    15    40    1
    44    16    41    1
    45    17    42    1
    46    21    43    1
    47    21    44    1
    48    23    45    1
    49    24    46    1
    50    25    47    1
    51    26    48    1
    52    27    49    1
    53    28    50    1
    54    29    51    1
