
     RDKit          3D

 61 65  0  0  0  0  0  0  0  0999 V2000
   -8.4246    1.2761    0.3671 C   0  0  0  0  0  0  0  0  0  0  0  0
   -7.1560    1.9106    0.5337 N   0  0  0  0  0  0  0  0  0  0  0  0
   -6.8759    2.8965   -0.4603 C   0  0  0  0  0  0  0  0  0  0  0  0
   -6.0716    1.0482    0.8803 C   0  0  0  0  0  0  0  0  0  0  0  0
   -5.6865    0.1082   -0.2063 C   0  0  0  0  0  0  0  0  0  0  0  0
   -6.2969    0.1219   -1.2925 O   0  0  0  0  0  0  0  0  0  0  0  0
   -4.6117   -0.7818    0.0612 N   0  0  0  0  0  0  0  0  0  0  0  0
   -3.8945   -0.7984    1.3196 C   0  0  0  0  0  0  0  0  0  0  0  0
   -2.4055   -0.5118    1.0828 C   0  0  0  0  0  0  0  0  0  0  0  0
   -1.9209   -1.5178    0.0853 C   0  0  0  0  0  0  0  0  0  0  0  0
   -0.5083   -1.2244   -0.3421 C   0  0  0  0  0  0  0  0  0  0  0  0
    0.5887   -1.9671   -0.1510 N   0  0  0  0  0  0  0  0  0  0  0  0
    1.6342   -1.3228   -0.6991 C   0  0  0  0  0  0  0  0  0  0  0  0
    3.0236   -1.7472   -0.7349 C   0  0  0  0  0  0  0  0  0  0  0  0
    3.3224   -3.0077   -1.2104 C   0  0  0  0  0  0  0  0  0  0  0  0
    4.6092   -3.4161   -1.2501 N   0  0  0  0  0  0  0  0  0  0  0  0
    5.5827   -2.5808   -0.8225 C   0  0  0  0  0  0  0  0  0  0  0  0
    6.9396   -3.0155   -0.8656 N   0  0  0  0  0  0  0  0  0  0  0  0
    5.3102   -1.3183   -0.3437 C   0  0  0  0  0  0  0  0  0  0  0  0
    6.3737   -0.4704    0.0958 N   0  0  0  0  0  0  0  0  0  0  0  0
    7.6682   -0.7291    0.1144 N   0  0  0  0  0  0  0  0  0  0  0  0
    8.3707    0.2638    0.5792 N   0  0  0  0  0  0  0  0  0  0  0  0
    7.5087    1.2462    0.8922 C   0  0  0  0  0  0  0  0  0  0  0  0
    7.7294    2.5183    1.4244 C   0  0  0  0  0  0  0  0  0  0  0  0
    6.6506    3.3423    1.6537 C   0  0  0  0  0  0  0  0  0  0  0  0
    5.3890    2.8808    1.3492 C   0  0  0  0  0  0  0  0  0  0  0  0
    5.1602    1.6114    0.8175 C   0  0  0  0  0  0  0  0  0  0  0  0
    6.2450    0.7849    0.5874 C   0  0  0  0  0  0  0  0  0  0  0  0
    4.0265   -0.9285   -0.3109 N   0  0  0  0  0  0  0  0  0  0  0  0
    1.1840   -0.1761   -1.2322 N   0  0  0  0  0  0  0  0  0  0  0  0
    2.0040    0.8272   -1.9327 C   0  0  0  0  0  0  0  0  0  0  0  0
   -0.1116   -0.1317   -1.0081 N   0  0  0  0  0  0  0  0  0  0  0  0
   -2.7260   -1.5901   -1.1767 C   0  0  0  0  0  0  0  0  0  0  0  0
   -4.2038   -1.7142   -0.9494 C   0  0  0  0  0  0  0  0  0  0  0  0
   -8.8612    1.4413   -0.6580 H   0  0  0  0  0  0  0  0  0  0  0  0
   -9.1164    1.6662    1.1481 H   0  0  0  0  0  0  0  0  0  0  0  0
   -8.2860    0.1678    0.4840 H   0  0  0  0  0  0  0  0  0  0  0  0
   -5.8143    3.1527   -0.5596 H   0  0  0  0  0  0  0  0  0  0  0  0
   -7.3944    3.8519   -0.1779 H   0  0  0  0  0  0  0  0  0  0  0  0
   -7.2267    2.5860   -1.4725 H   0  0  0  0  0  0  0  0  0  0  0  0
   -6.3657    0.4589    1.7648 H   0  0  0  0  0  0  0  0  0  0  0  0
   -5.1833    1.6813    1.0727 H   0  0  0  0  0  0  0  0  0  0  0  0
   -3.9301   -1.8437    1.6996 H   0  0  0  0  0  0  0  0  0  0  0  0
   -4.3041   -0.1368    2.0803 H   0  0  0  0  0  0  0  0  0  0  0  0
   -2.2250    0.5255    0.7900 H   0  0  0  0  0  0  0  0  0  0  0  0
   -1.9087   -0.7727    2.0616 H   0  0  0  0  0  0  0  0  0  0  0  0
   -1.9696   -2.5105    0.5889 H   0  0  0  0  0  0  0  0  0  0  0  0
    2.5047   -3.6350   -1.5406 H   0  0  0  0  0  0  0  0  0  0  0  0
    7.3934   -3.2330   -1.8010 H   0  0  0  0  0  0  0  0  0  0  0  0
    7.5269   -3.1372   -0.0342 H   0  0  0  0  0  0  0  0  0  0  0  0
    8.7511    2.7963    1.6329 H   0  0  0  0  0  0  0  0  0  0  0  0
    6.8083    4.3414    2.0705 H   0  0  0  0  0  0  0  0  0  0  0  0
    4.5265    3.5377    1.5326 H   0  0  0  0  0  0  0  0  0  0  0  0
    4.1676    1.2657    0.5845 H   0  0  0  0  0  0  0  0  0  0  0  0
    2.9936    0.9269   -1.4799 H   0  0  0  0  0  0  0  0  0  0  0  0
    1.4258    1.7844   -1.8925 H   0  0  0  0  0  0  0  0  0  0  0  0
    2.0664    0.5425   -3.0177 H   0  0  0  0  0  0  0  0  0  0  0  0
   -2.3167   -2.4303   -1.7784 H   0  0  0  0  0  0  0  0  0  0  0  0
   -2.5729   -0.6240   -1.7398 H   0  0  0  0  0  0  0  0  0  0  0  0
   -4.7004   -1.5208   -1.9368 H   0  0  0  0  0  0  0  0  0  0  0  0
   -4.4159   -2.7693   -0.6706 H   0  0  0  0  0  0  0  0  0  0  0  0
  1  2  1  0
  2  3  1  0
  2  4  1  0
  4  5  1  0
  5  6  2  0
  5  7  1  0
  7  8  1  0
  8  9  1  0
  9 10  1  0
 10 11  1  0
 11 12  1  0
 12 13  2  0
 13 14  1  0
 14 15  2  0
 15 16  1  0
 16 17  2  0
 17 18  1  0
 17 19  1  0
 19 20  1  0
 20 21  1  0
 21 22  2  0
 22 23  1  0
 23 24  2  0
 24 25  1  0
 25 26  2  0
 26 27  1  0
 27 28  2  0
 19 29  2  0
 13 30  1  0
 30 31  1  0
 30 32  1  0
 10 33  1  0
 33 34  1  0
 34  7  1  0
 32 11  2  0
 29 14  1  0
 28 20  1  0
 28 23  1  0
  1 35  1  0
  1 36  1  0
  1 37  1  0
  3 38  1  0
  3 39  1  0
  3 40  1  0
  4 41  1  0
  4 42  1  0
  8 43  1  0
  8 44  1  0
  9 45  1  0
  9 46  1  0
 10 47  1  0
 15 48  1  0
 18 49  1  0
 18 50  1  0
 24 51  1  0
 25 52  1  0
 26 53  1  0
 27 54  1  0
 31 55  1  0
 31 56  1  0
 31 57  1  0
 33 58  1  0
 33 59  1  0
 34 60  1  0
 34 61  1  0
M  END
$$$$
