@<TRIPOS>MOLECULE
*****
 61 65 0 0 0
SMALL
GASTEIGER

@<TRIPOS>ATOM
      1 C          -8.4246    1.2761    0.3671 C.3     1  UNL1       -0.0126
      2 N          -7.1560    1.9106    0.5337 N.3     1  UNL1       -0.3002
      3 C          -6.8759    2.8965   -0.4603 C.3     1  UNL1       -0.0126
      4 C          -6.0716    1.0482    0.8803 C.3     1  UNL1        0.0754
      5 C          -5.6865    0.1082   -0.2063 C.2     1  UNL1        0.2296
      6 O          -6.2969    0.1219   -1.2925 O.2     1  UNL1       -0.2742
      7 N          -4.6117   -0.7818    0.0612 N.am    1  UNL1       -0.3004
      8 C          -3.8945   -0.7984    1.3196 C.3     1  UNL1        0.0153
      9 C          -2.4055   -0.5118    1.0828 C.3     1  UNL1       -0.0273
     10 C          -1.9209   -1.5178    0.0853 C.3     1  UNL1        0.0236
     11 C          -0.5083   -1.2244   -0.3421 C.ar    1  UNL1        0.1548
     12 N           0.5887   -1.9671   -0.1510 N.ar    1  UNL1       -0.2093
     13 C           1.6342   -1.3228   -0.6991 C.ar    1  UNL1        0.1785
     14 C           3.0236   -1.7472   -0.7349 C.ar    1  UNL1        0.1281
     15 C           3.3224   -3.0077   -1.2104 C.ar    1  UNL1        0.0589
     16 N           4.6092   -3.4161   -1.2501 N.ar    1  UNL1       -0.2348
     17 C           5.5827   -2.5808   -0.8225 C.ar    1  UNL1        0.1610
     18 N           6.9396   -3.0155   -0.8656 N.pl3   1  UNL1       -0.3402
     19 C           5.3102   -1.3183   -0.3437 C.ar    1  UNL1        0.1967
     20 N           6.3737   -0.4704    0.0958 N.ar    1  UNL1       -0.1908
     21 N           7.6682   -0.7291    0.1144 N.ar    1  UNL1       -0.0582
     22 N           8.3707    0.2638    0.5792 N.ar    1  UNL1       -0.1291
     23 C           7.5087    1.2462    0.8922 C.ar    1  UNL1        0.1132
     24 C           7.7294    2.5183    1.4244 C.ar    1  UNL1       -0.0324
     25 C           6.6506    3.3423    1.6537 C.ar    1  UNL1       -0.0596
     26 C           5.3890    2.8808    1.3492 C.ar    1  UNL1       -0.0596
     27 C           5.1602    1.6114    0.8175 C.ar    1  UNL1       -0.0340
     28 C           6.2450    0.7849    0.5874 C.ar    1  UNL1        0.0965
     29 N           4.0265   -0.9285   -0.3109 N.ar    1  UNL1       -0.2202
     30 N           1.1840   -0.1761   -1.2322 N.ar    1  UNL1       -0.2466
     31 C           2.0040    0.8272   -1.9327 C.3     1  UNL1        0.0325
     32 N          -0.1116   -0.1317   -1.0081 N.ar    1  UNL1       -0.1544
     33 C          -2.7260   -1.5901   -1.1767 C.3     1  UNL1       -0.0273
     34 C          -4.2038   -1.7142   -0.9494 C.3     1  UNL1        0.0153
     35 H          -8.8612    1.4413   -0.6580 H       1  UNL1        0.0391
     36 H          -9.1164    1.6662    1.1481 H       1  UNL1        0.0391
     37 H          -8.2860    0.1678    0.4840 H       1  UNL1        0.0391
     38 H          -5.8143    3.1527   -0.5596 H       1  UNL1        0.0391
     39 H          -7.3944    3.8519   -0.1779 H       1  UNL1        0.0391
     40 H          -7.2267    2.5860   -1.4725 H       1  UNL1        0.0391
     41 H          -6.3657    0.4589    1.7648 H       1  UNL1        0.0522
     42 H          -5.1833    1.6813    1.0727 H       1  UNL1        0.0522
     43 H          -3.9301   -1.8437    1.6996 H       1  UNL1        0.0465
     44 H          -4.3041   -0.1368    2.0803 H       1  UNL1        0.0465
     45 H          -2.2250    0.5255    0.7900 H       1  UNL1        0.0287
     46 H          -1.9087   -0.7727    2.0616 H       1  UNL1        0.0287
     47 H          -1.9696   -2.5105    0.5889 H       1  UNL1        0.0381
     48 H           2.5047   -3.6350   -1.5406 H       1  UNL1        0.0853
     49 H           7.3934   -3.2330   -1.8010 H       1  UNL1        0.1438
     50 H           7.5269   -3.1372   -0.0342 H       1  UNL1        0.1438
     51 H           8.7511    2.7963    1.6329 H       1  UNL1        0.0640
     52 H           6.8083    4.3414    2.0705 H       1  UNL1        0.0618
     53 H           4.5265    3.5377    1.5326 H       1  UNL1        0.0618
     54 H           4.1676    1.2657    0.5845 H       1  UNL1        0.0639
     55 H           2.9936    0.9269   -1.4799 H       1  UNL1        0.0473
     56 H           1.4258    1.7844   -1.8925 H       1  UNL1        0.0473
     57 H           2.0664    0.5425   -3.0177 H       1  UNL1        0.0473
     58 H          -2.3167   -2.4303   -1.7784 H       1  UNL1        0.0287
     59 H          -2.5729   -0.6240   -1.7398 H       1  UNL1        0.0287
     60 H          -4.7004   -1.5208   -1.9368 H       1  UNL1        0.0465
     61 H          -4.4159   -2.7693   -0.6706 H       1  UNL1        0.0465
@<TRIPOS>BOND
     1     1     2    1
     2     2     3    1
     3     2     4    1
     4     4     5    1
     5     5     6    2
     6     5     7   am
     7     7     8    1
     8     8     9    1
     9     9    10    1
    10    10    11    1
    11    11    12   ar
    12    12    13   ar
    13    13    14    1
    14    14    15   ar
    15    15    16   ar
    16    16    17   ar
    17    17    18    1
    18    17    19   ar
    19    19    20    1
    20    20    21   ar
    21    21    22   ar
    22    22    23   ar
    23    23    24   ar
    24    24    25   ar
    25    25    26   ar
    26    26    27   ar
    27    27    28   ar
    28    19    29   ar
    29    13    30   ar
    30    30    31    1
    31    30    32   ar
    32    10    33    1
    33    33    34    1
    34    34     7    1
    35    32    11   ar
    36    29    14   ar
    37    28    20   ar
    38    28    23   ar
    39     1    35    1
    40     1    36    1
    41     1    37    1
    42     3    38    1
    43     3    39    1
    44     3    40    1
    45     4    41    1
    46     4    42    1
    47     8    43    1
    48     8    44    1
    49     9    45    1
    50     9    46    1
    51    10    47    1
    52    15    48    1
    53    18    49    1
    54    18    50    1
    55    24    51    1
    56    25    52    1
    57    26    53    1
    58    27    54    1
    59    31    55    1
    60    31    56    1
    61    31    57    1
    62    33    58    1
    63    33    59    1
    64    34    60    1
    65    34    61    1
