@<TRIPOS>MOLECULE
*****
 46 49 0 0 0
SMALL
GASTEIGER

@<TRIPOS>ATOM
      1 C           4.2495   -1.2450    0.1060 C.3     1  UNL1        0.0678
      2 C           5.7557   -1.2738   -0.0235 C.3     1  UNL1       -0.0375
      3 O           3.8248   -1.9756    1.1868 O.3     1  UNL1       -0.3905
      4 C           3.7651    0.1813    0.1237 C.3     1  UNL1        0.0362
      5 N           2.3120    0.2901    0.1218 N.pl3   1  UNL1       -0.3260
      6 C           1.7037    1.5748    0.1280 C.ar    1  UNL1        0.1319
      7 C           0.3405    1.7737    0.1297 C.ar    1  UNL1        0.0666
      8 C          -0.1830    3.0421    0.1277 C.ar    1  UNL1        0.1442
      9 N          -1.5034    2.8432    0.1297 N.ar    1  UNL1       -0.3384
     10 C          -1.8241    1.5201    0.1332 C.ar    1  UNL1        0.0565
     11 C          -0.6233    0.8154    0.1333 C.ar    1  UNL1        0.0200
     12 C          -0.6625   -0.6301    0.1358 C.ar    1  UNL1       -0.0151
     13 C          -0.7172   -1.2974   -1.0942 C.ar    1  UNL1       -0.0539
     14 C          -0.7671   -2.6815   -1.2011 C.ar    1  UNL1       -0.0612
     15 C          -0.7627   -3.4448   -0.0342 C.ar    1  UNL1       -0.0617
     16 C          -0.7097   -2.8235    1.2022 C.ar    1  UNL1       -0.0612
     17 C          -0.6615   -1.4574    1.2669 C.ar    1  UNL1       -0.0539
     18 C          -3.2097    1.0218    0.1383 C.ar    1  UNL1       -0.0010
     19 C          -3.6612    0.2882    1.2179 C.ar    1  UNL1       -0.0526
     20 C          -4.9587   -0.1847    1.2335 C.ar    1  UNL1       -0.0611
     21 C          -5.8503    0.0536    0.1804 C.ar    1  UNL1       -0.0617
     22 C          -5.3839    0.7880   -0.8908 C.ar    1  UNL1       -0.0611
     23 C          -4.0765    1.2657   -0.9084 C.ar    1  UNL1       -0.0526
     24 N           0.6111    4.1225    0.1244 N.ar    1  UNL1       -0.2178
     25 C           1.9393    3.9253    0.1230 C.ar    1  UNL1        0.1204
     26 N           2.4812    2.6732    0.1247 N.ar    1  UNL1       -0.2202
     27 H           3.8239   -1.7058   -0.8211 H       1  UNL1        0.0606
     28 H           6.1490   -0.6685    0.8188 H       1  UNL1        0.0255
     29 H           6.1595   -2.2838   -0.0701 H       1  UNL1        0.0255
     30 H           6.0601   -0.7625   -0.9658 H       1  UNL1        0.0255
     31 H           4.4871   -2.0017    1.8950 H       1  UNL1        0.2098
     32 H           4.2155    0.6553    1.0446 H       1  UNL1        0.0487
     33 H           4.1428    0.7652   -0.7174 H       1  UNL1        0.0487
     34 H           1.8201   -0.6240    0.1134 H       1  UNL1        0.1476
     35 H          -2.2109    3.6341    0.1289 H       1  UNL1        0.1674
     36 H          -0.7222   -0.7385   -2.0149 H       1  UNL1        0.0624
     37 H          -0.8086   -3.1435   -2.1822 H       1  UNL1        0.0618
     38 H          -0.8013   -4.5204   -0.1151 H       1  UNL1        0.0618
     39 H          -0.7053   -3.4023    2.1345 H       1  UNL1        0.0618
     40 H          -0.6194   -0.9464    2.2181 H       1  UNL1        0.0624
     41 H          -3.0400    0.0541    2.0805 H       1  UNL1        0.0624
     42 H          -5.3217   -0.7672    2.0884 H       1  UNL1        0.0618
     43 H          -6.8738   -0.3209    0.1955 H       1  UNL1        0.0618
     44 H          -6.0683    0.9776   -1.7114 H       1  UNL1        0.0618
     45 H          -3.7031    1.8359   -1.7319 H       1  UNL1        0.0624
     46 H           2.5885    4.7981    0.1205 H       1  UNL1        0.1048
@<TRIPOS>BOND
     1     1     2    1
     2     1     3    1
     3     1     4    1
     4     4     5    1
     5     5     6    1
     6     6     7   ar
     7     7     8   ar
     8     8     9   ar
     9     9    10   ar
    10    10    11   ar
    11    11    12    1
    12    12    13   ar
    13    13    14   ar
    14    14    15   ar
    15    15    16   ar
    16    16    17   ar
    17    10    18    1
    18    18    19   ar
    19    19    20   ar
    20    20    21   ar
    21    21    22   ar
    22    22    23   ar
    23     8    24   ar
    24    24    25   ar
    25    25    26   ar
    26    26     6   ar
    27    11     7   ar
    28    17    12   ar
    29    23    18   ar
    30     1    27    1
    31     2    28    1
    32     2    29    1
    33     2    30    1
    34     3    31    1
    35     4    32    1
    36     4    33    1
    37     5    34    1
    38     9    35    1
    39    13    36    1
    40    14    37    1
    41    15    38    1
    42    16    39    1
    43    17    40    1
    44    19    41    1
    45    20    42    1
    46    21    43    1
    47    22    44    1
    48    23    45    1
    49    25    46    1
