@<TRIPOS>MOLECULE
*****
 49 54 0 0 0
SMALL
GASTEIGER

@<TRIPOS>ATOM
      1 C           8.1816   -0.3608    0.8357 C.3     1  UNL1        0.0085
      2 N           6.7704   -0.7628    0.7568 N.am    1  UNL1       -0.2674
      3 C           6.3163   -1.9903    1.2901 C.2     1  UNL1        0.2573
      4 O           7.0387   -2.6518    2.0564 O.2     1  UNL1       -0.2715
      5 C           4.9700   -2.5528    0.9711 C.3     1  UNL1        0.1658
      6 O           4.0539   -1.5385    0.6058 O.3     1  UNL1       -0.4802
      7 C           4.4883   -0.3171    0.0718 C.ar    1  UNL1        0.1531
      8 C           5.8073    0.0752    0.1370 C.ar    1  UNL1        0.0970
      9 C           6.1458    1.2875   -0.4115 C.ar    1  UNL1        0.0532
     10 N           5.2694    2.1034   -1.0022 N.ar    1  UNL1       -0.2529
     11 C           3.9631    1.7323   -1.0757 C.ar    1  UNL1        0.0747
     12 C           3.0279    2.5462   -1.6769 C.ar    1  UNL1       -0.0346
     13 C           1.7232    2.1245   -1.7242 C.ar    1  UNL1       -0.0458
     14 C           1.2890    0.9296   -1.2040 C.ar    1  UNL1        0.0164
     15 S          -0.4335    0.4738   -1.3170 S.3     1  UNL1       -0.0496
     16 C          -1.2455    1.0934    0.1500 C.ar    1  UNL1        0.2007
     17 N          -0.7158    1.7748    1.1770 N.ar    1  UNL1       -0.1214
     18 N          -1.6387    2.0603    2.0775 N.ar    1  UNL1       -0.1256
     19 C          -2.7903    1.5452    1.6094 C.ar    1  UNL1        0.1972
     20 C          -4.0958    1.5269    2.1109 C.ar    1  UNL1        0.1684
     21 F          -4.3487    2.1179    3.2962 F       1  UNL1       -0.2016
     22 C          -5.0775    0.9025    1.3722 C.ar    1  UNL1       -0.0135
     23 C          -4.8255    0.2958    0.1602 C.ar    1  UNL1        0.0045
     24 C          -5.8676   -0.3652   -0.6230 C.ar    1  UNL1        0.0210
     25 C          -5.9416   -0.4758   -2.0077 C.ar    1  UNL1        0.0571
     26 N          -7.0601   -1.1585   -2.3137 N.ar    1  UNL1       -0.1793
     27 N          -7.7082   -1.4924   -1.2037 N.ar    1  UNL1       -0.2739
     28 C          -8.9710   -2.2424   -1.1187 C.3     1  UNL1        0.0302
     29 C          -6.9934   -1.0155   -0.1616 C.ar    1  UNL1        0.0329
     30 C          -3.5252    0.3391   -0.2933 C.ar    1  UNL1        0.0216
     31 N          -2.5475    0.9524    0.4270 N.ar    1  UNL1       -0.2744
     32 C           2.2425    0.1377   -0.6102 C.ar    1  UNL1       -0.0351
     33 C           3.5626    0.5327   -0.5462 C.ar    1  UNL1        0.0450
     34 H           8.3022    0.5137    1.5023 H       1  UNL1        0.0433
     35 H           8.7694   -1.1843    1.2400 H       1  UNL1        0.0433
     36 H           8.4937   -0.1080   -0.2053 H       1  UNL1        0.0433
     37 H           4.5710   -3.1035    1.8474 H       1  UNL1        0.0795
     38 H           5.1193   -3.2357    0.1135 H       1  UNL1        0.0795
     39 H           7.2075    1.5612   -0.3370 H       1  UNL1        0.0850
     40 H           3.3027    3.5026   -2.1075 H       1  UNL1        0.0639
     41 H           0.9858    2.7685   -2.2002 H       1  UNL1        0.0629
     42 H          -6.1084    0.8725    1.7398 H       1  UNL1        0.0654
     43 H          -5.2134   -0.0735   -2.6847 H       1  UNL1        0.0854
     44 H          -9.0606   -2.7404   -0.1454 H       1  UNL1        0.0473
     45 H          -9.7713   -1.4467   -1.1548 H       1  UNL1        0.0473
     46 H          -9.0742   -2.9073   -1.9862 H       1  UNL1        0.0473
     47 H          -7.2493   -1.1181    0.8952 H       1  UNL1        0.0832
     48 H          -3.2971   -0.1269   -1.2383 H       1  UNL1        0.0820
     49 H           1.9584   -0.8016   -0.1905 H       1  UNL1        0.0636
@<TRIPOS>BOND
     1     1     2    1
     2     2     3   am
     3     3     4    2
     4     3     5    1
     5     5     6    1
     6     6     7    1
     7     7     8   ar
     8     8     9   ar
     9     9    10   ar
    10    10    11   ar
    11    11    12   ar
    12    12    13   ar
    13    13    14   ar
    14    14    15    1
    15    15    16    1
    16    16    17   ar
    17    17    18   ar
    18    18    19   ar
    19    19    20   ar
    20    20    21    1
    21    20    22   ar
    22    22    23   ar
    23    23    24    1
    24    24    25   ar
    25    25    26   ar
    26    26    27   ar
    27    27    28    1
    28    27    29   ar
    29    23    30   ar
    30    30    31   ar
    31    14    32   ar
    32    32    33   ar
    33     8     2    1
    34    33    11   ar
    35    33     7   ar
    36    31    16   ar
    37    31    19   ar
    38    29    24   ar
    39     1    34    1
    40     1    35    1
    41     1    36    1
    42     5    37    1
    43     5    38    1
    44     9    39    1
    45    12    40    1
    46    13    41    1
    47    22    42    1
    48    25    43    1
    49    28    44    1
    50    28    45    1
    51    28    46    1
    52    29    47    1
    53    30    48    1
    54    32    49    1
