
     RDKit          3D

 49 54  0  0  0  0  0  0  0  0999 V2000
    8.1816   -0.3608    0.8357 C   0  0  0  0  0  0  0  0  0  0  0  0
    6.7704   -0.7628    0.7568 N   0  0  0  0  0  0  0  0  0  0  0  0
    6.3163   -1.9903    1.2901 C   0  0  0  0  0  0  0  0  0  0  0  0
    7.0387   -2.6518    2.0564 O   0  0  0  0  0  0  0  0  0  0  0  0
    4.9700   -2.5528    0.9711 C   0  0  0  0  0  0  0  0  0  0  0  0
    4.0539   -1.5385    0.6058 O   0  0  0  0  0  0  0  0  0  0  0  0
    4.4883   -0.3171    0.0718 C   0  0  0  0  0  0  0  0  0  0  0  0
    5.8073    0.0752    0.1370 C   0  0  0  0  0  0  0  0  0  0  0  0
    6.1458    1.2875   -0.4115 C   0  0  0  0  0  0  0  0  0  0  0  0
    5.2694    2.1034   -1.0022 N   0  0  0  0  0  0  0  0  0  0  0  0
    3.9631    1.7323   -1.0757 C   0  0  0  0  0  0  0  0  0  0  0  0
    3.0279    2.5462   -1.6769 C   0  0  0  0  0  0  0  0  0  0  0  0
    1.7232    2.1245   -1.7242 C   0  0  0  0  0  0  0  0  0  0  0  0
    1.2890    0.9296   -1.2040 C   0  0  0  0  0  0  0  0  0  0  0  0
   -0.4335    0.4738   -1.3170 S   0  0  0  0  0  0  0  0  0  0  0  0
   -1.2455    1.0934    0.1500 C   0  0  0  0  0  0  0  0  0  0  0  0
   -0.7158    1.7748    1.1770 N   0  0  0  0  0  0  0  0  0  0  0  0
   -1.6387    2.0603    2.0775 N   0  0  0  0  0  0  0  0  0  0  0  0
   -2.7903    1.5452    1.6094 C   0  0  0  0  0  0  0  0  0  0  0  0
   -4.0958    1.5269    2.1109 C   0  0  0  0  0  0  0  0  0  0  0  0
   -4.3487    2.1179    3.2962 F   0  0  0  0  0  0  0  0  0  0  0  0
   -5.0775    0.9025    1.3722 C   0  0  0  0  0  0  0  0  0  0  0  0
   -4.8255    0.2958    0.1602 C   0  0  0  0  0  0  0  0  0  0  0  0
   -5.8676   -0.3652   -0.6230 C   0  0  0  0  0  0  0  0  0  0  0  0
   -5.9416   -0.4758   -2.0077 C   0  0  0  0  0  0  0  0  0  0  0  0
   -7.0601   -1.1585   -2.3137 N   0  0  0  0  0  0  0  0  0  0  0  0
   -7.7082   -1.4924   -1.2037 N   0  0  0  0  0  0  0  0  0  0  0  0
   -8.9710   -2.2424   -1.1187 C   0  0  0  0  0  0  0  0  0  0  0  0
   -6.9934   -1.0155   -0.1616 C   0  0  0  0  0  0  0  0  0  0  0  0
   -3.5252    0.3391   -0.2933 C   0  0  0  0  0  0  0  0  0  0  0  0
   -2.5475    0.9524    0.4270 N   0  0  0  0  0  0  0  0  0  0  0  0
    2.2425    0.1377   -0.6102 C   0  0  0  0  0  0  0  0  0  0  0  0
    3.5626    0.5327   -0.5462 C   0  0  0  0  0  0  0  0  0  0  0  0
    8.3022    0.5137    1.5023 H   0  0  0  0  0  0  0  0  0  0  0  0
    8.7694   -1.1843    1.2400 H   0  0  0  0  0  0  0  0  0  0  0  0
    8.4937   -0.1080   -0.2053 H   0  0  0  0  0  0  0  0  0  0  0  0
    4.5710   -3.1035    1.8474 H   0  0  0  0  0  0  0  0  0  0  0  0
    5.1193   -3.2357    0.1135 H   0  0  0  0  0  0  0  0  0  0  0  0
    7.2075    1.5612   -0.3370 H   0  0  0  0  0  0  0  0  0  0  0  0
    3.3027    3.5026   -2.1075 H   0  0  0  0  0  0  0  0  0  0  0  0
    0.9858    2.7685   -2.2002 H   0  0  0  0  0  0  0  0  0  0  0  0
   -6.1084    0.8725    1.7398 H   0  0  0  0  0  0  0  0  0  0  0  0
   -5.2134   -0.0735   -2.6847 H   0  0  0  0  0  0  0  0  0  0  0  0
   -9.0606   -2.7404   -0.1454 H   0  0  0  0  0  0  0  0  0  0  0  0
   -9.7713   -1.4467   -1.1548 H   0  0  0  0  0  0  0  0  0  0  0  0
   -9.0742   -2.9073   -1.9862 H   0  0  0  0  0  0  0  0  0  0  0  0
   -7.2493   -1.1181    0.8952 H   0  0  0  0  0  0  0  0  0  0  0  0
   -3.2971   -0.1269   -1.2383 H   0  0  0  0  0  0  0  0  0  0  0  0
    1.9584   -0.8016   -0.1905 H   0  0  0  0  0  0  0  0  0  0  0  0
  1  2  1  0
  2  3  1  0
  3  4  2  0
  3  5  1  0
  5  6  1  0
  6  7  1  0
  7  8  2  0
  8  9  1  0
  9 10  2  0
 10 11  1  0
 11 12  2  0
 12 13  1  0
 13 14  2  0
 14 15  1  0
 15 16  1  0
 16 17  2  0
 17 18  1  0
 18 19  2  0
 19 20  1  0
 20 21  1  0
 20 22  2  0
 22 23  1  0
 23 24  1  0
 24 25  1  0
 25 26  2  0
 26 27  1  0
 27 28  1  0
 27 29  1  0
 23 30  2  0
 30 31  1  0
 14 32  1  0
 32 33  2  0
  8  2  1  0
 33 11  1  0
 33  7  1  0
 31 16  1  0
 31 19  1  0
 29 24  2  0
  1 34  1  0
  1 35  1  0
  1 36  1  0
  5 37  1  0
  5 38  1  0
  9 39  1  0
 12 40  1  0
 13 41  1  0
 22 42  1  0
 25 43  1  0
 28 44  1  0
 28 45  1  0
 28 46  1  0
 29 47  1  0
 30 48  1  0
 32 49  1  0
M  END
$$$$
