
     RDKit          3D

 52 55  0  0  0  0  0  0  0  0999 V2000
   -2.1239   -2.2971    0.2583 C   0  0  0  0  0  0  0  0  0  0  0  0
   -1.4124   -0.9968    0.2758 C   0  0  0  0  0  0  0  0  0  0  0  0
   -0.1338   -1.0217    0.9879 C   0  0  0  0  0  0  0  0  0  0  0  0
    1.0102   -0.6146    0.2828 C   0  0  0  0  0  0  0  0  0  0  0  0
    2.2659   -0.5747    0.8718 C   0  0  0  0  0  0  0  0  0  0  0  0
    3.3440   -0.1502    0.0705 N   0  0  0  0  0  0  0  0  0  0  0  0
    4.7003   -0.0338    0.4604 C   0  0  0  0  0  0  0  0  0  0  0  0
    5.0381   -0.3249    1.6288 O   0  0  0  0  0  0  0  0  0  0  0  0
    5.7328    0.4292   -0.4961 C   0  0  0  0  0  0  0  0  0  0  0  0
    7.0218    0.5081   -0.0195 C   0  0  0  0  0  0  0  0  0  0  0  0
    8.0576    0.9352   -0.8537 C   0  0  0  0  0  0  0  0  0  0  0  0
    7.7406    1.2677   -2.1488 C   0  0  0  0  0  0  0  0  0  0  0  0
    8.7155    1.6931   -3.0122 F   0  0  0  0  0  0  0  0  0  0  0  0
    6.4338    1.1694   -2.5706 C   0  0  0  0  0  0  0  0  0  0  0  0
    5.4584    0.7565   -1.7492 N   0  0  0  0  0  0  0  0  0  0  0  0
    2.3157   -0.9577    2.1836 C   0  0  0  0  0  0  0  0  0  0  0  0
    1.1984   -1.3693    2.9179 C   0  0  0  0  0  0  0  0  0  0  0  0
   -0.0244   -1.3893    2.2791 C   0  0  0  0  0  0  0  0  0  0  0  0
   -1.0893   -1.8101    2.9752 F   0  0  0  0  0  0  0  0  0  0  0  0
   -1.2058   -0.5886   -1.1354 N   0  0  0  0  0  0  0  0  0  0  0  0
   -2.1776   -0.1656   -1.8276 C   0  0  0  0  0  0  0  0  0  0  0  0
   -2.0512    0.2411   -3.1839 N   0  0  0  0  0  0  0  0  0  0  0  0
   -3.4499   -0.0918   -1.2289 O   0  0  0  0  0  0  0  0  0  0  0  0
   -3.5514    0.3331    0.1185 C   0  0  0  0  0  0  0  0  0  0  0  0
   -3.8649    1.8270    0.0687 C   0  0  0  0  0  0  0  0  0  0  0  0
   -5.3851    1.9130   -0.0856 C   0  0  0  0  0  0  0  0  0  0  0  0
   -5.8358    0.7838   -0.7878 O   0  0  0  0  0  0  0  0  0  0  0  0
   -5.8868   -0.3480    0.0290 C   0  0  0  0  0  0  0  0  0  0  0  0
   -4.6430   -0.3227    0.8926 C   0  0  0  0  0  0  0  0  0  0  0  0
   -2.2364    0.1526    0.8495 C   0  0  0  0  0  0  0  0  0  0  0  0
   -2.3896    0.0897    2.1953 F   0  0  0  0  0  0  0  0  0  0  0  0
   -1.4738    1.2986    0.5690 F   0  0  0  0  0  0  0  0  0  0  0  0
   -3.0335   -2.2153   -0.3709 H   0  0  0  0  0  0  0  0  0  0  0  0
   -2.4500   -2.6567    1.2496 H   0  0  0  0  0  0  0  0  0  0  0  0
   -1.4703   -3.0279   -0.2652 H   0  0  0  0  0  0  0  0  0  0  0  0
    0.9240   -0.3194   -0.7560 H   0  0  0  0  0  0  0  0  0  0  0  0
    3.1892    0.1289   -0.9530 H   0  0  0  0  0  0  0  0  0  0  0  0
    7.2952    0.2502    1.0008 H   0  0  0  0  0  0  0  0  0  0  0  0
    9.0822    1.0127   -0.5241 H   0  0  0  0  0  0  0  0  0  0  0  0
    6.2273    1.4404   -3.5964 H   0  0  0  0  0  0  0  0  0  0  0  0
    3.2488   -0.9539    2.7095 H   0  0  0  0  0  0  0  0  0  0  0  0
    1.2663   -1.6628    3.9403 H   0  0  0  0  0  0  0  0  0  0  0  0
   -2.7312   -0.0237   -3.9079 H   0  0  0  0  0  0  0  0  0  0  0  0
   -1.2374    0.8273   -3.4409 H   0  0  0  0  0  0  0  0  0  0  0  0
   -3.3742    2.2513   -0.8404 H   0  0  0  0  0  0  0  0  0  0  0  0
   -3.4972    2.3692    0.9364 H   0  0  0  0  0  0  0  0  0  0  0  0
   -5.8958    1.9281    0.8844 H   0  0  0  0  0  0  0  0  0  0  0  0
   -5.6238    2.8008   -0.7152 H   0  0  0  0  0  0  0  0  0  0  0  0
   -6.7925   -0.3445    0.6614 H   0  0  0  0  0  0  0  0  0  0  0  0
   -5.9249   -1.2422   -0.6261 H   0  0  0  0  0  0  0  0  0  0  0  0
   -4.4060   -1.2782    1.3552 H   0  0  0  0  0  0  0  0  0  0  0  0
   -4.8942    0.3742    1.7467 H   0  0  0  0  0  0  0  0  0  0  0  0
  1  2  1  0
  2  3  1  0
  3  4  2  0
  4  5  1  0
  5  6  1  0
  6  7  1  0
  7  8  2  0
  7  9  1  0
  9 10  2  0
 10 11  1  0
 11 12  2  0
 12 13  1  0
 12 14  1  0
 14 15  2  0
  5 16  2  0
 16 17  1  0
 17 18  2  0
 18 19  1  0
  2 20  1  0
 20 21  2  0
 21 22  1  0
 21 23  1  0
 23 24  1  0
 24 25  1  0
 25 26  1  0
 26 27  1  0
 27 28  1  0
 28 29  1  0
 24 30  1  0
 30 31  1  0
 30 32  1  0
 30  2  1  0
 18  3  1  0
 29 24  1  0
 15  9  1  0
  1 33  1  0
  1 34  1  0
  1 35  1  0
  4 36  1  0
  6 37  1  0
 10 38  1  0
 11 39  1  0
 14 40  1  0
 16 41  1  0
 17 42  1  0
 22 43  1  0
 22 44  1  0
 25 45  1  0
 25 46  1  0
 26 47  1  0
 26 48  1  0
 28 49  1  0
 28 50  1  0
 29 51  1  0
 29 52  1  0
M  END
$$$$
