@<TRIPOS>MOLECULE
*****
 52 55 0 0 0
SMALL
GASTEIGER

@<TRIPOS>ATOM
      1 C          -2.1239   -2.2971    0.2583 C.3     1  UNL1       -0.0295
      2 C          -1.4124   -0.9968    0.2758 C.3     1  UNL1        0.1580
      3 C          -0.1338   -1.0217    0.9879 C.ar    1  UNL1        0.0226
      4 C           1.0102   -0.6146    0.2828 C.ar    1  UNL1       -0.0321
      5 C           2.2659   -0.5747    0.8718 C.ar    1  UNL1        0.0342
      6 N           3.3440   -0.1502    0.0705 N.am    1  UNL1       -0.2802
      7 C           4.7003   -0.0338    0.4604 C.2     1  UNL1        0.2666
      8 O           5.0381   -0.3249    1.6288 O.2     1  UNL1       -0.2682
      9 C           5.7328    0.4292   -0.4961 C.ar    1  UNL1        0.1258
     10 C           7.0218    0.5081   -0.0195 C.ar    1  UNL1       -0.0285
     11 C           8.0576    0.9352   -0.8537 C.ar    1  UNL1       -0.0228
     12 C           7.7406    1.2677   -2.1488 C.ar    1  UNL1        0.1414
     13 F           8.7155    1.6931   -3.0122 F       1  UNL1       -0.2039
     14 C           6.4338    1.1694   -2.5706 C.ar    1  UNL1        0.0636
     15 N           5.4584    0.7565   -1.7492 N.ar    1  UNL1       -0.2475
     16 C           2.3157   -0.9577    2.1836 C.ar    1  UNL1       -0.0377
     17 C           1.1984   -1.3693    2.9179 C.ar    1  UNL1       -0.0243
     18 C          -0.0244   -1.3893    2.2791 C.ar    1  UNL1        0.1292
     19 F          -1.0893   -1.8101    2.9752 F       1  UNL1       -0.2051
     20 N          -1.2058   -0.5886   -1.1354 N.2     1  UNL1       -0.2196
     21 C          -2.1776   -0.1656   -1.8276 C.2     1  UNL1        0.2768
     22 N          -2.0512    0.2411   -3.1839 N.pl3   1  UNL1       -0.3133
     23 O          -3.4499   -0.0918   -1.2289 O.2     1  UNL1       -0.4530
     24 C          -3.5514    0.3331    0.1185 C.3     1  UNL1        0.1828
     25 C          -3.8649    1.8270    0.0687 C.3     1  UNL1        0.0166
     26 C          -5.3851    1.9130   -0.0856 C.3     1  UNL1        0.0515
     27 O          -5.8358    0.7838   -0.7878 O.3     1  UNL1       -0.3795
     28 C          -5.8868   -0.3480    0.0290 C.3     1  UNL1        0.0515
     29 C          -4.6430   -0.3227    0.8926 C.3     1  UNL1        0.0166
     30 C          -2.2364    0.1526    0.8495 C.3     1  UNL1        0.3161
     31 F          -2.3896    0.0897    2.1953 F       1  UNL1       -0.1983
     32 F          -1.4738    1.2986    0.5690 F       1  UNL1       -0.1983
     33 H          -3.0335   -2.2153   -0.3709 H       1  UNL1        0.0258
     34 H          -2.4500   -2.6567    1.2496 H       1  UNL1        0.0258
     35 H          -1.4703   -3.0279   -0.2652 H       1  UNL1        0.0258
     36 H           0.9240   -0.3194   -0.7560 H       1  UNL1        0.0640
     37 H           3.1892    0.1289   -0.9530 H       1  UNL1        0.1552
     38 H           7.2952    0.2502    1.0008 H       1  UNL1        0.0641
     39 H           9.0822    1.0127   -0.5241 H       1  UNL1        0.0647
     40 H           6.2273    1.4404   -3.5964 H       1  UNL1        0.0859
     41 H           3.2488   -0.9539    2.7095 H       1  UNL1        0.0637
     42 H           1.2663   -1.6628    3.9403 H       1  UNL1        0.0647
     43 H          -2.7312   -0.0237   -3.9079 H       1  UNL1        0.1466
     44 H          -1.2374    0.8273   -3.4409 H       1  UNL1        0.1466
     45 H          -3.3742    2.2513   -0.8404 H       1  UNL1        0.0328
     46 H          -3.4972    2.3692    0.9364 H       1  UNL1        0.0328
     47 H          -5.8958    1.9281    0.8844 H       1  UNL1        0.0561
     48 H          -5.6238    2.8008   -0.7152 H       1  UNL1        0.0561
     49 H          -6.7925   -0.3445    0.6614 H       1  UNL1        0.0561
     50 H          -5.9249   -1.2422   -0.6261 H       1  UNL1        0.0561
     51 H          -4.4060   -1.2782    1.3552 H       1  UNL1        0.0328
     52 H          -4.8942    0.3742    1.7467 H       1  UNL1        0.0328
@<TRIPOS>BOND
     1     1     2    1
     2     2     3    1
     3     3     4   ar
     4     4     5   ar
     5     5     6    1
     6     6     7   am
     7     7     8    2
     8     7     9    1
     9     9    10   ar
    10    10    11   ar
    11    11    12   ar
    12    12    13    1
    13    12    14   ar
    14    14    15   ar
    15     5    16   ar
    16    16    17   ar
    17    17    18   ar
    18    18    19    1
    19     2    20    1
    20    20    21    2
    21    21    22    1
    22    21    23    1
    23    23    24    1
    24    24    25    1
    25    25    26    1
    26    26    27    1
    27    27    28    1
    28    28    29    1
    29    24    30    1
    30    30    31    1
    31    30    32    1
    32    30     2    1
    33    18     3   ar
    34    29    24    1
    35    15     9   ar
    36     1    33    1
    37     1    34    1
    38     1    35    1
    39     4    36    1
    40     6    37    1
    41    10    38    1
    42    11    39    1
    43    14    40    1
    44    16    41    1
    45    17    42    1
    46    22    43    1
    47    22    44    1
    48    25    45    1
    49    25    46    1
    50    26    47    1
    51    26    48    1
    52    28    49    1
    53    28    50    1
    54    29    51    1
    55    29    52    1
