@<TRIPOS>MOLECULE
*****
 46 47 0 0 0
SMALL
GASTEIGER

@<TRIPOS>ATOM
      1 C          -6.7088   -0.3999    1.2243 C.3     1  UNL1       -0.0280
      2 C          -5.9485    0.4193    0.2038 C.3     1  UNL1        0.0976
      3 C          -6.7074    0.3348   -1.1010 C.3     1  UNL1       -0.0280
      4 O          -4.6486   -0.0971    0.1116 O.3     1  UNL1       -0.4592
      5 C          -3.5216    0.6502    0.3024 C.2     1  UNL1        0.3511
      6 O          -3.7045    1.8602    0.5766 O.2     1  UNL1       -0.2463
      7 C          -2.1860    0.0053    0.1765 C.3     1  UNL1        0.2005
      8 C          -2.1172   -0.6798   -1.1490 C.3     1  UNL1       -0.0145
      9 C          -2.0295   -1.0610    1.2666 C.3     1  UNL1       -0.0145
     10 O          -1.2071    0.9725    0.4007 O.3     1  UNL1       -0.4750
     11 C           0.1374    0.6542    0.3174 C.ar    1  UNL1        0.1221
     12 C           0.5516    0.8751   -1.0044 C.ar    1  UNL1       -0.0192
     13 C           1.8746    0.6399   -1.3977 C.ar    1  UNL1       -0.0475
     14 C           2.8026    0.1838   -0.4903 C.ar    1  UNL1        0.0225
     15 C           2.3690   -0.0260    0.8027 C.ar    1  UNL1       -0.0475
     16 C           1.0720    0.2015    1.2027 C.ar    1  UNL1       -0.0192
     17 C           4.1691   -0.0632   -0.9131 C.2     1  UNL1        0.1931
     18 O           4.2432   -0.3686   -2.1537 O.2     1  UNL1       -0.2867
     19 C           5.4095   -0.0168   -0.1658 C.ar    1  UNL1        0.0223
     20 C           5.5576    0.6769    1.0167 C.ar    1  UNL1       -0.0495
     21 C           6.7321    0.7291    1.7600 C.ar    1  UNL1       -0.0427
     22 C           7.8288    0.0393    1.2827 C.ar    1  UNL1        0.0410
     23 CL          9.3726    0.0176    2.1157 Cl      1  UNL1       -0.0835
     24 C           7.6854   -0.6536    0.1034 C.ar    1  UNL1       -0.0427
     25 C           6.5117   -0.7110   -0.6480 C.ar    1  UNL1       -0.0495
     26 H          -6.0496   -1.0322    1.8451 H       1  UNL1        0.0265
     27 H          -7.2251    0.2964    1.9409 H       1  UNL1        0.0265
     28 H          -7.4439   -1.0767    0.7429 H       1  UNL1        0.0265
     29 H          -5.9117    1.5057    0.4519 H       1  UNL1        0.0728
     30 H          -7.7839    0.2605   -0.8431 H       1  UNL1        0.0265
     31 H          -6.5909    1.2683   -1.6979 H       1  UNL1        0.0265
     32 H          -6.4655   -0.5736   -1.6885 H       1  UNL1        0.0265
     33 H          -2.8644   -1.5277   -1.1022 H       1  UNL1        0.0273
     34 H          -1.1354   -1.1774   -1.3331 H       1  UNL1        0.0273
     35 H          -2.4634   -0.0478   -1.9909 H       1  UNL1        0.0273
     36 H          -2.9766   -1.6247    1.3667 H       1  UNL1        0.0273
     37 H          -1.8166   -0.4867    2.1936 H       1  UNL1        0.0273
     38 H          -1.2099   -1.7306    0.9665 H       1  UNL1        0.0273
     39 H          -0.0505    1.2327   -1.8441 H       1  UNL1        0.0654
     40 H           2.2119    0.8090   -2.4294 H       1  UNL1        0.0626
     41 H           3.0375   -0.3902    1.5696 H       1  UNL1        0.0626
     42 H           0.6384    0.0699    2.1758 H       1  UNL1        0.0654
     43 H           4.7389    1.2437    1.4422 H       1  UNL1        0.0625
     44 H           6.8092    1.2846    2.6830 H       1  UNL1        0.0632
     45 H           8.5334   -1.2074   -0.2987 H       1  UNL1        0.0632
     46 H           6.4801   -1.2785   -1.5684 H       1  UNL1        0.0625
@<TRIPOS>BOND
     1     1     2    1
     2     2     3    1
     3     2     4    1
     4     4     5    1
     5     5     6    2
     6     5     7    1
     7     7     8    1
     8     7     9    1
     9     7    10    1
    10    10    11    1
    11    11    12   ar
    12    12    13   ar
    13    13    14   ar
    14    14    15   ar
    15    15    16   ar
    16    14    17    1
    17    17    18    2
    18    17    19    1
    19    19    20   ar
    20    20    21   ar
    21    21    22   ar
    22    22    23    1
    23    22    24   ar
    24    24    25   ar
    25    16    11   ar
    26    25    19   ar
    27     1    26    1
    28     1    27    1
    29     1    28    1
    30     2    29    1
    31     3    30    1
    32     3    31    1
    33     3    32    1
    34     8    33    1
    35     8    34    1
    36     8    35    1
    37     9    36    1
    38     9    37    1
    39     9    38    1
    40    12    39    1
    41    13    40    1
    42    15    41    1
    43    16    42    1
    44    20    43    1
    45    21    44    1
    46    24    45    1
    47    25    46    1
