
     RDKit          3D

 17 16  0  0  0  0  0  0  0  0999 V2000
   -0.5766    0.5268    1.5574 N   0  0  0  0  0  0  0  0  0  0  0  0
   -0.4465    0.3150    0.1292 C   0  0  1  0  0  0  0  0  0  0  0  0
    0.4970   -0.7887   -0.2176 C   0  0  0  0  0  0  0  0  0  0  0  0
    2.1418   -0.4977    0.3777 S   0  0  0  0  0  0  0  0  0  0  0  0
    2.7982    0.8960   -0.2534 O   0  0  0  0  0  0  0  0  0  0  0  0
    2.0998   -0.3586    1.8816 O   0  0  0  0  0  0  0  0  0  0  0  0
    3.0382   -1.6652    0.0930 O   0  0  0  0  0  0  0  0  0  0  0  0
   -1.7952    0.0311   -0.4221 C   0  0  0  0  0  0  0  0  0  0  0  0
   -3.0396   -0.0436    0.2277 O   0  0  0  0  0  0  0  0  0  0  0  0
   -1.9904   -0.1953   -1.6482 O   0  0  0  0  0  0  0  0  0  0  0  0
   -0.8834   -0.3660    2.0065 H   0  0  0  0  0  0  0  0  0  0  0  0
   -1.3241    1.2768    1.6494 H   0  0  0  0  0  0  0  0  0  0  0  0
   -0.1071    1.2527   -0.3570 H   0  0  0  0  0  0  0  0  0  0  0  0
    0.1124   -1.7287    0.1890 H   0  0  0  0  0  0  0  0  0  0  0  0
    0.5435   -0.8689   -1.3145 H   0  0  0  0  0  0  0  0  0  0  0  0
    2.7205    1.6735    0.3797 H   0  0  0  0  0  0  0  0  0  0  0  0
   -3.7882    0.5409   -0.1187 H   0  0  0  0  0  0  0  0  0  0  0  0
  1  2  1  0
  2  3  1  0
  3  4  1  0
  4  5  1  0
  4  6  2  0
  4  7  2  0
  2  8  1  0
  8  9  1  0
  8 10  2  0
  1 11  1  0
  1 12  1  0
  2 13  1  6
  3 14  1  0
  3 15  1  0
  5 16  1  0
  9 17  1  0
M  END
$$$$
