@<TRIPOS>MOLECULE
*****
 17 16 0 0 0
SMALL
GASTEIGER

@<TRIPOS>ATOM
      1 N1         -0.5766    0.5268    1.5574 N.3     1  <1>        -0.3170
      2 C1         -0.4465    0.3150    0.1292 C.3     1  <1>         0.1251
      3 C2          0.4970   -0.7887   -0.2176 C.3     1  <1>         0.1180
      4 S1          2.1418   -0.4977    0.3777 S.O2    1  <1>         0.0818
      5 O1          2.7982    0.8960   -0.2534 O.3     1  <1>        -0.2539
      6 O2          2.0998   -0.3586    1.8816 O.2     1  <1>        -0.1473
      7 O3          3.0382   -1.6652    0.0930 O.2     1  <1>        -0.1473
      8 C3         -1.7952    0.0311   -0.4221 C.2     1  <1>         0.3234
      9 O4         -3.0396   -0.0436    0.2277 O.3     1  <1>        -0.4795
     10 O5         -1.9904   -0.1953   -1.6482 O.2     1  <1>        -0.2492
     11 H1         -0.8834   -0.3660    2.0065 H       1  <1>         0.1190
     12 H2         -1.3241    1.2768    1.6494 H       1  <1>         0.1190
     13 H3         -0.1071    1.2527   -0.3570 H       1  <1>         0.0591
     14 H4          0.1124   -1.7287    0.1890 H       1  <1>         0.0546
     15 H5          0.5435   -0.8689   -1.3145 H       1  <1>         0.0546
     16 H6          2.7205    1.6735    0.3797 H       1  <1>         0.2445
     17 H7         -3.7882    0.5409   -0.1187 H       1  <1>         0.2951
@<TRIPOS>BOND
     1     1     2    1
     2     2     3    1
     3     3     4    1
     4     4     5    1
     5     4     6    2
     6     4     7    2
     7     2     8    1
     8     8     9    1
     9     8    10    2
    10     1    11    1
    11     1    12    1
    12     2    13    1
    13     3    14    1
    14     3    15    1
    15     5    16    1
    16     9    17    1
