
     RDKit          3D

 31 32  0  0  0  0  0  0  0  0999 V2000
   -4.6114   -0.6158   -0.0806 C   0  0  0  0  0  0  0  0  0  0  0  0
   -3.4245    0.2292   -0.4988 C   0  0  0  0  0  0  0  0  0  0  0  0
   -2.4153    0.2337    0.6354 C   0  0  0  0  0  0  0  0  0  0  0  0
   -1.2619    1.0166    0.3263 N   0  0  0  0  0  0  0  0  0  0  0  0
   -0.4044    0.4932   -0.6996 C   0  0  1  0  0  0  0  0  0  0  0  0
    0.7123    1.5062   -0.9587 C   0  0  0  0  0  0  0  0  0  0  0  0
    1.7260    1.5088    0.1767 C   0  0  0  0  0  0  0  0  0  0  0  0
    2.5149    0.2487    0.0275 C   0  0  0  0  0  0  0  0  0  0  0  0
    1.6466   -0.7734   -0.2151 C   0  0  0  0  0  0  0  0  0  0  0  0
    0.2088   -0.8325   -0.3343 C   0  0  0  0  0  0  0  0  0  0  0  0
    2.7905   -2.1598   -0.3677 S   0  0  0  0  0  0  0  0  0  0  0  0
    4.3060   -1.0514   -0.0613 C   0  0  0  0  0  0  0  0  0  0  0  0
    5.7105   -1.4872   -0.0312 N   0  0  0  0  0  0  0  0  0  0  0  0
    3.8153   -0.0162    0.0805 N   0  0  0  0  0  0  0  0  0  0  0  0
   -5.1450   -0.0950    0.7393 H   0  0  0  0  0  0  0  0  0  0  0  0
   -4.2943   -1.6286    0.2029 H   0  0  0  0  0  0  0  0  0  0  0  0
   -5.2860   -0.7117   -0.9803 H   0  0  0  0  0  0  0  0  0  0  0  0
   -2.9857   -0.2846   -1.3897 H   0  0  0  0  0  0  0  0  0  0  0  0
   -3.8045    1.2457   -0.7397 H   0  0  0  0  0  0  0  0  0  0  0  0
   -2.2157   -0.8246    0.8818 H   0  0  0  0  0  0  0  0  0  0  0  0
   -2.9290    0.6971    1.5054 H   0  0  0  0  0  0  0  0  0  0  0  0
   -0.7442    1.1557    1.2434 H   0  0  0  0  0  0  0  0  0  0  0  0
   -0.9900    0.4383   -1.6359 H   0  0  0  0  0  0  0  0  0  0  0  0
    0.2495    2.4930   -1.0453 H   0  0  0  0  0  0  0  0  0  0  0  0
    1.1912    1.2148   -1.8951 H   0  0  0  0  0  0  0  0  0  0  0  0
    1.2498    1.5339    1.1582 H   0  0  0  0  0  0  0  0  0  0  0  0
    2.3432    2.4210   -0.0022 H   0  0  0  0  0  0  0  0  0  0  0  0
   -0.0820   -1.5901   -1.1111 H   0  0  0  0  0  0  0  0  0  0  0  0
   -0.2362   -1.1834    0.6163 H   0  0  0  0  0  0  0  0  0  0  0  0
    6.0687   -2.2857    0.5436 H   0  0  0  0  0  0  0  0  0  0  0  0
    6.2966   -0.8963   -0.6534 H   0  0  0  0  0  0  0  0  0  0  0  0
  1  2  1  0
  2  3  1  0
  3  4  1  0
  4  5  1  0
  5  6  1  0
  6  7  1  0
  7  8  1  0
  8  9  2  0
  9 10  1  0
  9 11  1  0
 11 12  1  0
 12 13  1  0
 12 14  2  0
 10  5  1  0
 14  8  1  0
  1 15  1  0
  1 16  1  0
  1 17  1  0
  2 18  1  0
  2 19  1  0
  3 20  1  0
  3 21  1  0
  4 22  1  0
  5 23  1  6
  6 24  1  0
  6 25  1  0
  7 26  1  0
  7 27  1  0
 10 28  1  0
 10 29  1  0
 13 30  1  0
 13 31  1  0
M  END
$$$$
