@<TRIPOS>MOLECULE
*****
 63 65 0 0 0
SMALL
GASTEIGER

@<TRIPOS>ATOM
      1 C          -3.8045    4.6255   -2.2885 C.3     1  UNL1        0.0788
      2 O          -2.6703    3.7844   -2.1858 O.3     1  UNL1       -0.4950
      3 C          -2.3921    3.2125   -0.9375 C.ar    1  UNL1        0.1241
      4 C          -3.1824    3.4582    0.1408 C.ar    1  UNL1        0.0218
      5 C          -2.8757    2.8756    1.3473 C.ar    1  UNL1        0.1241
      6 O          -3.6280    3.0750    2.5013 O.3     1  UNL1       -0.4950
      7 C          -4.7495    3.9251    2.3990 C.3     1  UNL1        0.0788
      8 C          -1.7547    2.0420    1.4344 C.ar    1  UNL1       -0.0119
      9 C          -0.9565    1.7937    0.3465 C.ar    1  UNL1       -0.0077
     10 C           0.2040    0.9346    0.4117 C.ar    1  UNL1        0.0233
     11 C           1.4324    1.4004   -0.0685 C.ar    1  UNL1       -0.0386
     12 C           2.5634    0.6414   -0.0173 C.ar    1  UNL1        0.0381
     13 C           3.8012    1.1044   -0.4822 C.ar    1  UNL1        0.0419
     14 N           4.8819    0.3127   -0.3905 N.ar    1  UNL1       -0.2222
     15 C           4.8005   -0.9031    0.1317 C.ar    1  UNL1        0.2171
     16 N           5.9101   -1.7546    0.2705 N.pl3   1  UNL1       -0.3133
     17 C           6.5934   -2.2451   -0.9012 C.3     1  UNL1        0.0139
     18 C           7.2398   -1.0700   -1.5960 C.3     1  UNL1       -0.0141
     19 C           8.1998   -0.4303   -0.6100 C.3     1  UNL1        0.0456
     20 O           9.1802   -1.3248   -0.2093 O.3     1  UNL1       -0.3950
     21 N           3.6163   -1.3489    0.5773 N.ar    1  UNL1       -0.1947
     22 C           2.4869   -0.6239    0.5260 C.ar    1  UNL1        0.1668
     23 N           1.3014   -1.0771    0.9921 N.ar    1  UNL1       -0.2116
     24 C           0.1798   -0.3346    0.9448 C.ar    1  UNL1        0.1363
     25 N          -1.0147   -0.9145    1.4601 N.am    1  UNL1       -0.2536
     26 C          -1.8776   -1.6658    0.6435 C.2     1  UNL1        0.3054
     27 O          -1.5494   -1.8016   -0.5721 O.2     1  UNL1       -0.2525
     28 N          -3.0796   -2.2781    1.0811 N.am    1  UNL1       -0.2944
     29 C          -3.8809   -3.0456    0.1205 C.3     1  UNL1        0.0276
     30 C          -5.0997   -3.5820    0.8334 C.3     1  UNL1       -0.0442
     31 C          -4.3356   -2.2017   -1.0216 C.3     1  UNL1       -0.0442
     32 C          -3.0697   -4.2063   -0.4216 C.3     1  UNL1       -0.0442
     33 C          -1.2882    2.3904   -0.8464 C.ar    1  UNL1       -0.0119
     34 H          -3.6532    5.5922   -1.8071 H       1  UNL1        0.0660
     35 H          -3.9691    4.8013   -3.3777 H       1  UNL1        0.0660
     36 H          -4.6829    4.0698   -1.8556 H       1  UNL1        0.0660
     37 H          -4.0590    4.1062    0.0765 H       1  UNL1        0.0691
     38 H          -5.5058    3.4113    1.7791 H       1  UNL1        0.0660
     39 H          -4.3781    4.8795    1.9220 H       1  UNL1        0.0660
     40 H          -5.1608    4.1807    3.4124 H       1  UNL1        0.0660
     41 H          -1.4980    1.5775    2.3777 H       1  UNL1        0.0660
     42 H           1.4836    2.3965   -0.4957 H       1  UNL1        0.0632
     43 H           3.8309    2.0928   -0.9005 H       1  UNL1        0.0838
     44 H           6.2063   -2.0073    1.2464 H       1  UNL1        0.1489
     45 H           5.7877   -2.6639   -1.5740 H       1  UNL1        0.0463
     46 H           7.3341   -3.0344   -0.6575 H       1  UNL1        0.0463
     47 H           6.4858   -0.3490   -1.9215 H       1  UNL1        0.0302
     48 H           7.8169   -1.4227   -2.4981 H       1  UNL1        0.0302
     49 H           7.6584   -0.0909    0.2994 H       1  UNL1        0.0557
     50 H           8.6718    0.4738   -1.0365 H       1  UNL1        0.0557
     51 H           9.9691   -1.1572   -0.7734 H       1  UNL1        0.2094
     52 H          -1.2636   -0.7895    2.4626 H       1  UNL1        0.1578
     53 H          -3.3725   -2.1724    2.0724 H       1  UNL1        0.1508
     54 H          -4.7354   -4.1993    1.6829 H       1  UNL1        0.0250
     55 H          -5.7341   -2.7836    1.2456 H       1  UNL1        0.0250
     56 H          -5.6514   -4.2714    0.1540 H       1  UNL1        0.0250
     57 H          -4.4987   -1.1498   -0.7514 H       1  UNL1        0.0250
     58 H          -3.6021   -2.3178   -1.8545 H       1  UNL1        0.0250
     59 H          -5.2936   -2.6333   -1.3970 H       1  UNL1        0.0250
     60 H          -2.1490   -4.3759    0.1711 H       1  UNL1        0.0250
     61 H          -3.6908   -5.1199   -0.3639 H       1  UNL1        0.0250
     62 H          -2.8454   -4.0311   -1.4736 H       1  UNL1        0.0250
     63 H          -0.6830    2.2199   -1.7209 H       1  UNL1        0.0660
@<TRIPOS>BOND
     1     1     2    1
     2     2     3    1
     3     3     4   ar
     4     4     5   ar
     5     5     6    1
     6     6     7    1
     7     5     8   ar
     8     8     9   ar
     9     9    10    1
    10    10    11   ar
    11    11    12   ar
    12    12    13   ar
    13    13    14   ar
    14    14    15   ar
    15    15    16    1
    16    16    17    1
    17    17    18    1
    18    18    19    1
    19    19    20    1
    20    15    21   ar
    21    21    22   ar
    22    22    23   ar
    23    23    24   ar
    24    24    25    1
    25    25    26   am
    26    26    27    2
    27    26    28   am
    28    28    29    1
    29    29    30    1
    30    29    31    1
    31    29    32    1
    32     9    33   ar
    33    33     3   ar
    34    24    10   ar
    35    22    12   ar
    36     1    34    1
    37     1    35    1
    38     1    36    1
    39     4    37    1
    40     7    38    1
    41     7    39    1
    42     7    40    1
    43     8    41    1
    44    11    42    1
    45    13    43    1
    46    16    44    1
    47    17    45    1
    48    17    46    1
    49    18    47    1
    50    18    48    1
    51    19    49    1
    52    19    50    1
    53    20    51    1
    54    25    52    1
    55    28    53    1
    56    30    54    1
    57    30    55    1
    58    30    56    1
    59    31    57    1
    60    31    58    1
    61    31    59    1
    62    32    60    1
    63    32    61    1
    64    32    62    1
    65    33    63    1
