
     RDKit          3D

 69 74  0  0  0  0  0  0  0  0999 V2000
   -4.4114    0.4595    0.0960 O   0  0  0  0  0  0  0  0  0  0  0  0
   -3.4267   -0.0897   -0.4624 C   0  0  0  0  0  0  0  0  0  0  0  0
   -3.4324   -1.3154   -1.0168 N   0  0  0  0  0  0  0  0  0  0  0  0
   -4.5175   -2.2741   -1.1095 C   0  0  0  0  0  0  0  0  0  0  0  0
   -4.5868   -3.2139    0.0393 C   0  0  0  0  0  0  0  0  0  0  0  0
   -4.7850   -2.5470    1.3813 C   0  0  0  0  0  0  0  0  0  0  0  0
   -4.6905   -3.5898    2.4691 C   0  0  0  0  0  0  0  0  0  0  0  0
   -4.8524   -4.8774    1.9765 O   0  0  0  0  0  0  0  0  0  0  0  0
   -3.8653   -5.2751    1.1094 C   0  0  0  0  0  0  0  0  0  0  0  0
   -3.4417   -4.1605    0.1587 C   0  0  0  0  0  0  0  0  0  0  0  0
   -2.1976   -1.4937   -1.4858 N   0  0  0  0  0  0  0  0  0  0  0  0
   -1.4529   -0.4078   -1.2270 C   0  0  0  0  0  0  0  0  0  0  0  0
   -0.0562   -0.2126   -1.5774 C   0  0  0  0  0  0  0  0  0  0  0  0
    0.3735   -0.1329   -2.8940 C   0  0  0  0  0  0  0  0  0  0  0  0
    1.6979    0.0524   -3.2262 C   0  0  0  0  0  0  0  0  0  0  0  0
    2.5750    0.1553   -2.2215 N   0  0  0  0  0  0  0  0  0  0  0  0
    2.2666    0.0922   -0.9156 C   0  0  0  0  0  0  0  0  0  0  0  0
    3.2399    0.2080    0.1132 N   0  0  0  0  0  0  0  0  0  0  0  0
    4.6283    0.3937   -0.2524 C   0  0  0  0  0  0  0  0  0  0  0  0
    5.1208   -0.7769   -1.0124 C   0  0  0  0  0  0  0  0  0  0  0  0
    5.8824   -1.8004   -0.2002 C   0  0  0  0  0  0  0  0  0  0  0  0
    7.0238   -1.0639    0.4693 C   0  0  0  0  0  0  0  0  0  0  0  0
    6.3843   -0.1441    1.4870 C   0  0  0  0  0  0  0  0  0  0  0  0
    5.4748    0.8570    0.8891 C   0  0  0  0  0  0  0  0  0  0  0  0
    0.9159   -0.0962   -0.6067 C   0  0  0  0  0  0  0  0  0  0  0  0
   -2.2072    0.4936   -0.5810 N   0  0  0  0  0  0  0  0  0  0  0  0
   -1.8252    1.7831   -0.1156 C   0  0  0  0  0  0  0  0  0  0  0  0
   -1.3928    1.9062    1.1871 C   0  0  0  0  0  0  0  0  0  0  0  0
   -1.0029    3.1416    1.7086 C   0  0  0  0  0  0  0  0  0  0  0  0
   -1.0539    4.2587    0.8975 C   0  0  0  0  0  0  0  0  0  0  0  0
   -0.6838    5.5051    1.3493 C   0  0  0  0  0  0  0  0  0  0  0  0
   -0.7311    6.6175    0.5524 C   0  0  0  0  0  0  0  0  0  0  0  0
   -1.1642    6.5282   -0.7724 C   0  0  0  0  0  0  0  0  0  0  0  0
   -1.5333    5.2825   -1.2215 C   0  0  0  0  0  0  0  0  0  0  0  0
   -1.4891    4.1599   -0.4284 C   0  0  0  0  0  0  0  0  0  0  0  0
   -1.8656    2.9138   -0.9010 C   0  0  0  0  0  0  0  0  0  0  0  0
   -5.4804   -1.6851   -1.1051 H   0  0  0  0  0  0  0  0  0  0  0  0
   -4.4827   -2.8567   -2.0379 H   0  0  0  0  0  0  0  0  0  0  0  0
   -5.5118   -3.8425   -0.1209 H   0  0  0  0  0  0  0  0  0  0  0  0
   -3.9364   -1.8426    1.5123 H   0  0  0  0  0  0  0  0  0  0  0  0
   -5.7671   -2.0447    1.4354 H   0  0  0  0  0  0  0  0  0  0  0  0
   -5.5052   -3.3968    3.1934 H   0  0  0  0  0  0  0  0  0  0  0  0
   -3.7208   -3.5030    3.0289 H   0  0  0  0  0  0  0  0  0  0  0  0
   -4.3163   -6.0800    0.4579 H   0  0  0  0  0  0  0  0  0  0  0  0
   -2.9954   -5.7599    1.5945 H   0  0  0  0  0  0  0  0  0  0  0  0
   -2.5256   -3.6987    0.5797 H   0  0  0  0  0  0  0  0  0  0  0  0
   -3.1449   -4.6217   -0.7998 H   0  0  0  0  0  0  0  0  0  0  0  0
   -0.4118   -0.2273   -3.6510 H   0  0  0  0  0  0  0  0  0  0  0  0
    2.0097    0.1113   -4.2517 H   0  0  0  0  0  0  0  0  0  0  0  0
    2.9772    0.1623    1.1102 H   0  0  0  0  0  0  0  0  0  0  0  0
    4.6053    1.2622   -0.9836 H   0  0  0  0  0  0  0  0  0  0  0  0
    4.2661   -1.3079   -1.4814 H   0  0  0  0  0  0  0  0  0  0  0  0
    5.7740   -0.4414   -1.8565 H   0  0  0  0  0  0  0  0  0  0  0  0
    5.2294   -2.2411    0.5701 H   0  0  0  0  0  0  0  0  0  0  0  0
    6.2647   -2.5566   -0.9192 H   0  0  0  0  0  0  0  0  0  0  0  0
    7.5068   -0.4270   -0.2837 H   0  0  0  0  0  0  0  0  0  0  0  0
    7.6995   -1.7342    1.0125 H   0  0  0  0  0  0  0  0  0  0  0  0
    7.2092    0.3729    2.0192 H   0  0  0  0  0  0  0  0  0  0  0  0
    5.8925   -0.8041    2.2372 H   0  0  0  0  0  0  0  0  0  0  0  0
    4.7631    1.1957    1.6988 H   0  0  0  0  0  0  0  0  0  0  0  0
    6.0659    1.7629    0.6429 H   0  0  0  0  0  0  0  0  0  0  0  0
    0.6605   -0.1479    0.4394 H   0  0  0  0  0  0  0  0  0  0  0  0
   -1.3312    1.0703    1.8687 H   0  0  0  0  0  0  0  0  0  0  0  0
   -0.6614    3.2572    2.7268 H   0  0  0  0  0  0  0  0  0  0  0  0
   -0.3381    5.6412    2.3694 H   0  0  0  0  0  0  0  0  0  0  0  0
   -0.4431    7.6064    0.8927 H   0  0  0  0  0  0  0  0  0  0  0  0
   -1.2000    7.4121   -1.3999 H   0  0  0  0  0  0  0  0  0  0  0  0
   -1.8722    5.1776   -2.2376 H   0  0  0  0  0  0  0  0  0  0  0  0
   -2.1972    2.8501   -1.9180 H   0  0  0  0  0  0  0  0  0  0  0  0
  1  2  2  0
  2  3  1  0
  3  4  1  0
  4  5  1  0
  5  6  1  0
  6  7  1  0
  7  8  1  0
  8  9  1  0
  9 10  1  0
  3 11  1  0
 11 12  2  0
 12 13  1  0
 13 14  2  0
 14 15  1  0
 15 16  2  0
 16 17  1  0
 17 18  1  0
 18 19  1  0
 19 20  1  0
 20 21  1  0
 21 22  1  0
 22 23  1  0
 23 24  1  0
 17 25  2  0
 12 26  1  0
 26 27  1  0
 27 28  2  0
 28 29  1  0
 29 30  2  0
 30 31  1  0
 31 32  2  0
 32 33  1  0
 33 34  2  0
 34 35  1  0
 35 36  2  0
 26  2  1  0
 36 27  1  0
 10  5  1  0
 25 13  1  0
 35 30  1  0
 24 19  1  0
  4 37  1  0
  4 38  1  0
  5 39  1  0
  6 40  1  0
  6 41  1  0
  7 42  1  0
  7 43  1  0
  9 44  1  0
  9 45  1  0
 10 46  1  0
 10 47  1  0
 14 48  1  0
 15 49  1  0
 18 50  1  0
 19 51  1  0
 20 52  1  0
 20 53  1  0
 21 54  1  0
 21 55  1  0
 22 56  1  0
 22 57  1  0
 23 58  1  0
 23 59  1  0
 24 60  1  0
 24 61  1  0
 25 62  1  0
 28 63  1  0
 29 64  1  0
 31 65  1  0
 32 66  1  0
 33 67  1  0
 34 68  1  0
 36 69  1  0
M  END
$$$$
