@<TRIPOS>MOLECULE
*****
 69 74 0 0 0
SMALL
GASTEIGER

@<TRIPOS>ATOM
      1 O          -4.4114    0.4595    0.0960 O.2     1  UNL1       -0.2444
      2 C          -3.4267   -0.0897   -0.4624 C.ar    1  UNL1        0.3515
      3 N          -3.4324   -1.3154   -1.0168 N.ar    1  UNL1       -0.2120
      4 C          -4.5175   -2.2741   -1.1095 C.3     1  UNL1        0.0497
      5 C          -4.5868   -3.2139    0.0393 C.3     1  UNL1       -0.0171
      6 C          -4.7850   -2.5470    1.3813 C.3     1  UNL1       -0.0249
      7 C          -4.6905   -3.5898    2.4691 C.3     1  UNL1        0.0480
      8 O          -4.8524   -4.8774    1.9765 O.3     1  UNL1       -0.3797
      9 C          -3.8653   -5.2751    1.1094 C.3     1  UNL1        0.0480
     10 C          -3.4417   -4.1605    0.1587 C.3     1  UNL1       -0.0249
     11 N          -2.1976   -1.4937   -1.4858 N.ar    1  UNL1       -0.1481
     12 C          -1.4529   -0.4078   -1.2270 C.ar    1  UNL1        0.1695
     13 C          -0.0562   -0.2126   -1.5774 C.ar    1  UNL1        0.0243
     14 C           0.3735   -0.1329   -2.8940 C.ar    1  UNL1       -0.0327
     15 C           1.6979    0.0524   -3.2262 C.ar    1  UNL1        0.0304
     16 N           2.5750    0.1553   -2.2215 N.ar    1  UNL1       -0.2405
     17 C           2.2666    0.0922   -0.9156 C.ar    1  UNL1        0.1195
     18 N           3.2399    0.2080    0.1132 N.pl3   1  UNL1       -0.3262
     19 C           4.6283    0.3937   -0.2524 C.3     1  UNL1        0.0220
     20 C           5.1208   -0.7769   -1.0124 C.3     1  UNL1       -0.0345
     21 C           5.8824   -1.8004   -0.2002 C.3     1  UNL1       -0.0514
     22 C           7.0238   -1.0639    0.4693 C.3     1  UNL1       -0.0529
     23 C           6.3843   -0.1441    1.4870 C.3     1  UNL1       -0.0514
     24 C           5.4748    0.8570    0.8891 C.3     1  UNL1       -0.0345
     25 C           0.9159   -0.0962   -0.6067 C.ar    1  UNL1       -0.0112
     26 N          -2.2072    0.4936   -0.5810 N.ar    1  UNL1       -0.2435
     27 C          -1.8252    1.7831   -0.1156 C.ar    1  UNL1        0.0535
     28 C          -1.3928    1.9062    1.1871 C.ar    1  UNL1       -0.0370
     29 C          -1.0029    3.1416    1.7086 C.ar    1  UNL1       -0.0521
     30 C          -1.0539    4.2587    0.8975 C.ar    1  UNL1       -0.0178
     31 C          -0.6838    5.5051    1.3493 C.ar    1  UNL1       -0.0540
     32 C          -0.7311    6.6175    0.5524 C.ar    1  UNL1       -0.0612
     33 C          -1.1642    6.5282   -0.7724 C.ar    1  UNL1       -0.0612
     34 C          -1.5333    5.2825   -1.2215 C.ar    1  UNL1       -0.0540
     35 C          -1.4891    4.1599   -0.4284 C.ar    1  UNL1       -0.0159
     36 C          -1.8656    2.9138   -0.9010 C.ar    1  UNL1       -0.0299
     37 H          -5.4804   -1.6851   -1.1051 H       1  UNL1        0.0513
     38 H          -4.4827   -2.8567   -2.0379 H       1  UNL1        0.0513
     39 H          -5.5118   -3.8425   -0.1209 H       1  UNL1        0.0320
     40 H          -3.9364   -1.8426    1.5123 H       1  UNL1        0.0291
     41 H          -5.7671   -2.0447    1.4354 H       1  UNL1        0.0291
     42 H          -5.5052   -3.3968    3.1934 H       1  UNL1        0.0560
     43 H          -3.7208   -3.5030    3.0289 H       1  UNL1        0.0560
     44 H          -4.3163   -6.0800    0.4579 H       1  UNL1        0.0560
     45 H          -2.9954   -5.7599    1.5945 H       1  UNL1        0.0560
     46 H          -2.5256   -3.6987    0.5797 H       1  UNL1        0.0291
     47 H          -3.1449   -4.6217   -0.7998 H       1  UNL1        0.0291
     48 H          -0.4118   -0.2273   -3.6510 H       1  UNL1        0.0640
     49 H           2.0097    0.1113   -4.2517 H       1  UNL1        0.0830
     50 H           2.9772    0.1623    1.1102 H       1  UNL1        0.1477
     51 H           4.6053    1.2622   -0.9836 H       1  UNL1        0.0498
     52 H           4.2661   -1.3079   -1.4814 H       1  UNL1        0.0283
     53 H           5.7740   -0.4414   -1.8565 H       1  UNL1        0.0283
     54 H           5.2294   -2.2411    0.5701 H       1  UNL1        0.0266
     55 H           6.2647   -2.5566   -0.9192 H       1  UNL1        0.0266
     56 H           7.5068   -0.4270   -0.2837 H       1  UNL1        0.0265
     57 H           7.6995   -1.7342    1.0125 H       1  UNL1        0.0265
     58 H           7.2092    0.3729    2.0192 H       1  UNL1        0.0266
     59 H           5.8925   -0.8041    2.2372 H       1  UNL1        0.0266
     60 H           4.7631    1.1957    1.6988 H       1  UNL1        0.0283
     61 H           6.0659    1.7629    0.6429 H       1  UNL1        0.0283
     62 H           0.6605   -0.1479    0.4394 H       1  UNL1        0.0659
     63 H          -1.3312    1.0703    1.8687 H       1  UNL1        0.0638
     64 H          -0.6614    3.2572    2.7268 H       1  UNL1        0.0624
     65 H          -0.3381    5.6412    2.3694 H       1  UNL1        0.0624
     66 H          -0.4431    7.6064    0.8927 H       1  UNL1        0.0618
     67 H          -1.2000    7.4121   -1.3999 H       1  UNL1        0.0618
     68 H          -1.8722    5.1776   -2.2376 H       1  UNL1        0.0624
     69 H          -2.1972    2.8501   -1.9180 H       1  UNL1        0.0644
@<TRIPOS>BOND
     1     1     2    2
     2     2     3   ar
     3     3     4    1
     4     4     5    1
     5     5     6    1
     6     6     7    1
     7     7     8    1
     8     8     9    1
     9     9    10    1
    10     3    11   ar
    11    11    12   ar
    12    12    13    1
    13    13    14   ar
    14    14    15   ar
    15    15    16   ar
    16    16    17   ar
    17    17    18    1
    18    18    19    1
    19    19    20    1
    20    20    21    1
    21    21    22    1
    22    22    23    1
    23    23    24    1
    24    17    25   ar
    25    12    26   ar
    26    26    27    1
    27    27    28   ar
    28    28    29   ar
    29    29    30   ar
    30    30    31   ar
    31    31    32   ar
    32    32    33   ar
    33    33    34   ar
    34    34    35   ar
    35    35    36   ar
    36    26     2   ar
    37    36    27   ar
    38    10     5    1
    39    25    13   ar
    40    35    30   ar
    41    24    19    1
    42     4    37    1
    43     4    38    1
    44     5    39    1
    45     6    40    1
    46     6    41    1
    47     7    42    1
    48     7    43    1
    49     9    44    1
    50     9    45    1
    51    10    46    1
    52    10    47    1
    53    14    48    1
    54    15    49    1
    55    18    50    1
    56    19    51    1
    57    20    52    1
    58    20    53    1
    59    21    54    1
    60    21    55    1
    61    22    56    1
    62    22    57    1
    63    23    58    1
    64    23    59    1
    65    24    60    1
    66    24    61    1
    67    25    62    1
    68    28    63    1
    69    29    64    1
    70    31    65    1
    71    32    66    1
    72    33    67    1
    73    34    68    1
    74    36    69    1
