
     RDKit          3D

 50 52  0  0  0  0  0  0  0  0999 V2000
   -1.8603    1.3767   -3.9512 C   0  0  0  0  0  0  0  0  0  0  0  0
   -2.1345    1.1110   -2.5986 O   0  0  0  0  0  0  0  0  0  0  0  0
   -1.1023    0.8669   -1.7205 C   0  0  0  0  0  0  0  0  0  0  0  0
    0.1873    0.9010   -2.2500 C   0  0  0  0  0  0  0  0  0  0  0  0
    1.2474    0.6648   -1.4179 C   0  0  0  0  0  0  0  0  0  0  0  0
    1.0663    0.3979   -0.0858 C   0  0  0  0  0  0  0  0  0  0  0  0
    2.1767    0.1359    0.8560 C   0  0  2  0  0  0  0  0  0  0  0  0
    2.0799    1.1128    1.9386 C   0  0  0  0  0  0  0  0  0  0  0  0
    2.0001    1.8848    2.8221 N   0  0  0  0  0  0  0  0  0  0  0  0
    3.5217    0.1867    0.2339 C   0  0  0  0  0  0  0  0  0  0  0  0
    3.7636   -1.1432   -0.4673 C   0  0  0  0  0  0  0  0  0  0  0  0
    4.1992   -2.1234    0.5996 C   0  0  1  0  0  0  0  0  0  0  0  0
    5.6434   -1.9195    0.8491 C   0  0  0  0  0  0  0  0  0  0  0  0
    6.2849   -1.0484    0.2167 O   0  0  0  0  0  0  0  0  0  0  0  0
    6.3359   -2.6759    1.7820 O   0  0  0  0  0  0  0  0  0  0  0  0
    3.3834   -1.8124    1.8605 C   0  0  0  0  0  0  0  0  0  0  0  0
    2.0185   -1.2545    1.4863 C   0  0  0  0  0  0  0  0  0  0  0  0
   -0.2019    0.3658    0.4281 C   0  0  0  0  0  0  0  0  0  0  0  0
   -1.3288    0.6033   -0.3914 C   0  0  0  0  0  0  0  0  0  0  0  0
   -2.5727    0.5684    0.1294 O   0  0  0  0  0  0  0  0  0  0  0  0
   -3.8409    0.7410   -0.3388 C   0  0  0  0  0  0  0  0  0  0  0  0
   -4.5338    1.8957    0.4085 C   0  0  0  0  0  0  0  0  0  0  0  0
   -4.9214    1.1577    1.6873 C   0  0  0  0  0  0  0  0  0  0  0  0
   -5.6275   -0.0452    1.1208 C   0  0  0  0  0  0  0  0  0  0  0  0
   -4.7572   -0.4479   -0.0357 C   0  0  0  0  0  0  0  0  0  0  0  0
   -1.3872    0.5220   -4.4724 H   0  0  0  0  0  0  0  0  0  0  0  0
   -2.7980    1.6699   -4.4768 H   0  0  0  0  0  0  0  0  0  0  0  0
   -1.1906    2.2718   -3.9766 H   0  0  0  0  0  0  0  0  0  0  0  0
    0.3696    1.1064   -3.2872 H   0  0  0  0  0  0  0  0  0  0  0  0
    2.2571    0.6838   -1.7958 H   0  0  0  0  0  0  0  0  0  0  0  0
    4.2757    0.2704    1.0717 H   0  0  0  0  0  0  0  0  0  0  0  0
    3.7140    1.0509   -0.4161 H   0  0  0  0  0  0  0  0  0  0  0  0
    2.8354   -1.5505   -0.9191 H   0  0  0  0  0  0  0  0  0  0  0  0
    4.5930   -1.0661   -1.1996 H   0  0  0  0  0  0  0  0  0  0  0  0
    4.0404   -3.1760    0.2840 H   0  0  0  0  0  0  0  0  0  0  0  0
    7.1826   -2.3739    2.2354 H   0  0  0  0  0  0  0  0  0  0  0  0
    3.9359   -1.1221    2.5347 H   0  0  0  0  0  0  0  0  0  0  0  0
    3.1859   -2.7763    2.3797 H   0  0  0  0  0  0  0  0  0  0  0  0
    1.4541   -1.1569    2.4319 H   0  0  0  0  0  0  0  0  0  0  0  0
    1.5604   -1.9705    0.7995 H   0  0  0  0  0  0  0  0  0  0  0  0
   -0.4103    0.1624    1.4631 H   0  0  0  0  0  0  0  0  0  0  0  0
   -3.9935    0.9696   -1.3982 H   0  0  0  0  0  0  0  0  0  0  0  0
   -3.8259    2.7043    0.5862 H   0  0  0  0  0  0  0  0  0  0  0  0
   -5.4453    2.2224   -0.1192 H   0  0  0  0  0  0  0  0  0  0  0  0
   -3.9677    0.8439    2.1594 H   0  0  0  0  0  0  0  0  0  0  0  0
   -5.5488    1.7701    2.3504 H   0  0  0  0  0  0  0  0  0  0  0  0
   -6.6366    0.3103    0.7851 H   0  0  0  0  0  0  0  0  0  0  0  0
   -5.7311   -0.8675    1.8586 H   0  0  0  0  0  0  0  0  0  0  0  0
   -5.4038   -0.7076   -0.8753 H   0  0  0  0  0  0  0  0  0  0  0  0
   -4.0922   -1.2906    0.2866 H   0  0  0  0  0  0  0  0  0  0  0  0
  1  2  1  0
  2  3  1  0
  3  4  2  0
  4  5  1  0
  5  6  2  0
  6  7  1  0
  7  8  1  1
  8  9  3  0
  7 10  1  0
 10 11  1  0
 11 12  1  0
 12 13  1  0
 13 14  2  0
 13 15  1  0
 12 16  1  0
 16 17  1  0
  6 18  1  0
 18 19  2  0
 19 20  1  0
 20 21  1  0
 21 22  1  0
 22 23  1  0
 23 24  1  0
 24 25  1  0
 19  3  1  0
 25 21  1  0
 17  7  1  0
  1 26  1  0
  1 27  1  0
  1 28  1  0
  4 29  1  0
  5 30  1  0
 10 31  1  0
 10 32  1  0
 11 33  1  0
 11 34  1  0
 12 35  1  6
 15 36  1  0
 16 37  1  0
 16 38  1  0
 17 39  1  0
 17 40  1  0
 18 41  1  0
 21 42  1  0
 22 43  1  0
 22 44  1  0
 23 45  1  0
 23 46  1  0
 24 47  1  0
 24 48  1  0
 25 49  1  0
 25 50  1  0
M  END
$$$$
