@<TRIPOS>MOLECULE
*****
 50 52 0 0 0
SMALL
GASTEIGER

@<TRIPOS>ATOM
      1 C          -1.8603    1.3767   -3.9512 C.3     1  UNL1        0.0790
      2 O          -2.1345    1.1110   -2.5986 O.3     1  UNL1       -0.4915
      3 C          -1.1023    0.8669   -1.7205 C.ar    1  UNL1        0.1615
      4 C           0.1873    0.9010   -2.2500 C.ar    1  UNL1       -0.0160
      5 C           1.2474    0.6648   -1.4179 C.ar    1  UNL1       -0.0534
      6 C           1.0663    0.3979   -0.0858 C.ar    1  UNL1       -0.0238
      7 C           2.1767    0.1359    0.8560 C.3     1  UNL1        0.0823
      8 C           2.0799    1.1128    1.9386 C.1     1  UNL1        0.0739
      9 N           2.0001    1.8848    2.8221 N.1     1  UNL1       -0.1956
     10 C           3.5217    0.1867    0.2339 C.3     1  UNL1       -0.0297
     11 C           3.7636   -1.1432   -0.4673 C.3     1  UNL1       -0.0384
     12 C           4.1992   -2.1234    0.5996 C.3     1  UNL1        0.0564
     13 C           5.6434   -1.9195    0.8491 C.2     1  UNL1        0.3078
     14 O           6.2849   -1.0484    0.2167 O.2     1  UNL1       -0.2507
     15 O           6.3359   -2.6759    1.7820 O.3     1  UNL1       -0.4804
     16 C           3.3834   -1.8124    1.8605 C.3     1  UNL1       -0.0384
     17 C           2.0185   -1.2545    1.4863 C.3     1  UNL1       -0.0297
     18 C          -0.2019    0.3658    0.4281 C.ar    1  UNL1       -0.0116
     19 C          -1.3288    0.6033   -0.3914 C.ar    1  UNL1        0.1626
     20 O          -2.5727    0.5684    0.1294 O.3     1  UNL1       -0.4852
     21 C          -3.8409    0.7410   -0.3388 C.3     1  UNL1        0.1004
     22 C          -4.5338    1.8957    0.4085 C.3     1  UNL1       -0.0158
     23 C          -4.9214    1.1577    1.6873 C.3     1  UNL1       -0.0496
     24 C          -5.6275   -0.0452    1.1208 C.3     1  UNL1       -0.0496
     25 C          -4.7572   -0.4479   -0.0357 C.3     1  UNL1       -0.0158
     26 H          -1.3872    0.5220   -4.4724 H       1  UNL1        0.0660
     27 H          -2.7980    1.6699   -4.4768 H       1  UNL1        0.0660
     28 H          -1.1906    2.2718   -3.9766 H       1  UNL1        0.0660
     29 H           0.3696    1.1064   -3.2872 H       1  UNL1        0.0655
     30 H           2.2571    0.6838   -1.7958 H       1  UNL1        0.0622
     31 H           4.2757    0.2704    1.0717 H       1  UNL1        0.0284
     32 H           3.7140    1.0509   -0.4161 H       1  UNL1        0.0284
     33 H           2.8354   -1.5505   -0.9191 H       1  UNL1        0.0274
     34 H           4.5930   -1.0661   -1.1996 H       1  UNL1        0.0274
     35 H           4.0404   -3.1760    0.2840 H       1  UNL1        0.0413
     36 H           7.1826   -2.3739    2.2354 H       1  UNL1        0.2951
     37 H           3.9359   -1.1221    2.5347 H       1  UNL1        0.0274
     38 H           3.1859   -2.7763    2.3797 H       1  UNL1        0.0274
     39 H           1.4541   -1.1569    2.4319 H       1  UNL1        0.0284
     40 H           1.5604   -1.9705    0.7995 H       1  UNL1        0.0284
     41 H          -0.4103    0.1624    1.4631 H       1  UNL1        0.0658
     42 H          -3.9935    0.9696   -1.3982 H       1  UNL1        0.0733
     43 H          -3.8259    2.7043    0.5862 H       1  UNL1        0.0301
     44 H          -5.4453    2.2224   -0.1192 H       1  UNL1        0.0301
     45 H          -3.9677    0.8439    2.1594 H       1  UNL1        0.0266
     46 H          -5.5488    1.7701    2.3504 H       1  UNL1        0.0266
     47 H          -6.6366    0.3103    0.7851 H       1  UNL1        0.0266
     48 H          -5.7311   -0.8675    1.8586 H       1  UNL1        0.0266
     49 H          -5.4038   -0.7076   -0.8753 H       1  UNL1        0.0301
     50 H          -4.0922   -1.2906    0.2866 H       1  UNL1        0.0301
@<TRIPOS>BOND
     1     1     2    1
     2     2     3    1
     3     3     4   ar
     4     4     5   ar
     5     5     6   ar
     6     6     7    1
     7     7     8    1
     8     8     9    3
     9     7    10    1
    10    10    11    1
    11    11    12    1
    12    12    13    1
    13    13    14    2
    14    13    15    1
    15    12    16    1
    16    16    17    1
    17     6    18   ar
    18    18    19   ar
    19    19    20    1
    20    20    21    1
    21    21    22    1
    22    22    23    1
    23    23    24    1
    24    24    25    1
    25    19     3   ar
    26    25    21    1
    27    17     7    1
    28     1    26    1
    29     1    27    1
    30     1    28    1
    31     4    29    1
    32     5    30    1
    33    10    31    1
    34    10    32    1
    35    11    33    1
    36    11    34    1
    37    12    35    1
    38    15    36    1
    39    16    37    1
    40    16    38    1
    41    17    39    1
    42    17    40    1
    43    18    41    1
    44    21    42    1
    45    22    43    1
    46    22    44    1
    47    23    45    1
    48    23    46    1
    49    24    47    1
    50    24    48    1
    51    25    49    1
    52    25    50    1
