
     RDKit          3D

 57 60  0  0  0  0  0  0  0  0999 V2000
   -2.4854   -2.9671    1.2423 C   0  0  0  0  0  0  0  0  0  0  0  0
   -1.0157   -2.7993    1.1209 C   0  0  0  0  0  0  0  0  0  0  0  0
   -0.3484   -1.6651    0.6746 C   0  0  0  0  0  0  0  0  0  0  0  0
   -0.7485   -0.4202    0.2302 C   0  0  0  0  0  0  0  0  0  0  0  0
   -2.1188   -0.1954    0.2022 O   0  0  0  0  0  0  0  0  0  0  0  0
   -2.7014    1.0173   -0.2226 C   0  0  2  0  0  0  0  0  0  0  0  0
   -3.5459    1.6552    0.8441 C   0  0  0  0  0  0  0  0  0  0  0  0
   -3.6002    0.7048   -1.4013 C   0  0  1  0  0  0  0  0  0  0  0  0
   -4.6776   -0.2750   -0.9830 C   0  0  0  0  0  0  0  0  0  0  0  0
   -5.9024    0.1971   -1.6104 N   0  0  0  0  0  0  0  0  0  0  0  0
   -5.7441    1.5207   -2.0784 C   0  0  0  0  0  0  0  0  0  0  0  0
   -6.6445    2.2312   -2.5899 O   0  0  0  0  0  0  0  0  0  0  0  0
   -4.3301    1.9436   -1.8678 C   0  0  0  0  0  0  0  0  0  0  0  0
    0.1362    0.5110   -0.1496 N   0  0  0  0  0  0  0  0  0  0  0  0
    1.4953    0.3158   -0.1314 C   0  0  0  0  0  0  0  0  0  0  0  0
    2.2790    1.4393   -0.6036 C   0  0  0  0  0  0  0  0  0  0  0  0
    1.7660    2.5406   -1.3036 C   0  0  0  0  0  0  0  0  0  0  0  0
    2.7479    3.3929   -1.5253 N   0  0  0  0  0  0  0  0  0  0  0  0
    3.8437    2.8962   -1.0089 N   0  0  0  0  0  0  0  0  0  0  0  0
    3.6003    1.6794   -0.4235 C   0  0  0  0  0  0  0  0  0  0  0  0
    4.6870    0.9313    0.2188 C   0  0  0  0  0  0  0  0  0  0  0  0
    4.4832    0.6172    1.6709 C   0  0  0  0  0  0  0  0  0  0  0  0
    5.2217   -0.2031   -0.6173 C   0  0  0  0  0  0  0  0  0  0  0  0
    5.9123    1.9148    0.2567 C   0  0  0  0  0  0  0  0  0  0  0  0
    1.9139   -0.8976    0.2996 C   0  0  0  0  0  0  0  0  0  0  0  0
    1.0098   -1.8927    0.7039 C   0  0  0  0  0  0  0  0  0  0  0  0
    1.1574   -3.1474    1.1619 N   0  0  0  0  0  0  0  0  0  0  0  0
   -0.0470   -3.6777    1.4066 N   0  0  0  0  0  0  0  0  0  0  0  0
   -0.2943   -5.0163    1.9115 C   0  0  0  0  0  0  0  0  0  0  0  0
   -2.9585   -3.2372    0.2575 H   0  0  0  0  0  0  0  0  0  0  0  0
   -2.7647   -3.7476    1.9508 H   0  0  0  0  0  0  0  0  0  0  0  0
   -2.9172   -1.9680    1.5076 H   0  0  0  0  0  0  0  0  0  0  0  0
   -1.9385    1.7542   -0.5268 H   0  0  0  0  0  0  0  0  0  0  0  0
   -4.6012    1.8004    0.5438 H   0  0  0  0  0  0  0  0  0  0  0  0
   -3.5655    1.0670    1.7838 H   0  0  0  0  0  0  0  0  0  0  0  0
   -3.1725    2.6757    1.1216 H   0  0  0  0  0  0  0  0  0  0  0  0
   -3.0162    0.2420   -2.2356 H   0  0  0  0  0  0  0  0  0  0  0  0
   -4.4625   -1.3075   -1.3513 H   0  0  0  0  0  0  0  0  0  0  0  0
   -4.8109   -0.2921    0.1030 H   0  0  0  0  0  0  0  0  0  0  0  0
   -6.7699   -0.3600   -1.7013 H   0  0  0  0  0  0  0  0  0  0  0  0
   -3.9419    2.1966   -2.8933 H   0  0  0  0  0  0  0  0  0  0  0  0
   -4.2236    2.7947   -1.1966 H   0  0  0  0  0  0  0  0  0  0  0  0
    0.7176    2.6388   -1.6005 H   0  0  0  0  0  0  0  0  0  0  0  0
    2.6583    4.3020   -2.0257 H   0  0  0  0  0  0  0  0  0  0  0  0
    5.1693    1.1457    2.3552 H   0  0  0  0  0  0  0  0  0  0  0  0
    3.4576    0.8516    2.0193 H   0  0  0  0  0  0  0  0  0  0  0  0
    4.7242   -0.4779    1.8025 H   0  0  0  0  0  0  0  0  0  0  0  0
    6.1012    0.0888   -1.2194 H   0  0  0  0  0  0  0  0  0  0  0  0
    5.4835   -1.0909   -0.0062 H   0  0  0  0  0  0  0  0  0  0  0  0
    4.4368   -0.4666   -1.3617 H   0  0  0  0  0  0  0  0  0  0  0  0
    5.5786    2.8793    0.6597 H   0  0  0  0  0  0  0  0  0  0  0  0
    6.6430    1.4040    0.8950 H   0  0  0  0  0  0  0  0  0  0  0  0
    6.2946    2.0136   -0.7723 H   0  0  0  0  0  0  0  0  0  0  0  0
    2.9309   -1.1820    0.3444 H   0  0  0  0  0  0  0  0  0  0  0  0
   -0.6596   -4.9160    2.9692 H   0  0  0  0  0  0  0  0  0  0  0  0
    0.6178   -5.6500    1.8797 H   0  0  0  0  0  0  0  0  0  0  0  0
   -1.0600   -5.5101    1.2701 H   0  0  0  0  0  0  0  0  0  0  0  0
  1  2  1  0
  2  3  2  0
  3  4  1  0
  4  5  1  0
  5  6  1  0
  6  7  1  0
  6  8  1  0
  8  9  1  0
  9 10  1  0
 10 11  1  0
 11 12  2  0
 11 13  1  0
  4 14  2  0
 14 15  1  0
 15 16  1  0
 16 17  2  0
 17 18  1  0
 18 19  1  0
 19 20  2  0
 20 21  1  0
 21 22  1  0
 21 23  1  0
 21 24  1  0
 15 25  2  0
 25 26  1  0
 26 27  2  0
 27 28  1  0
 28 29  1  0
 28  2  1  0
 26  3  1  0
 13  8  1  0
 20 16  1  0
  1 30  1  0
  1 31  1  0
  1 32  1  0
  6 33  1  6
  7 34  1  0
  7 35  1  0
  7 36  1  0
  8 37  1  6
  9 38  1  0
  9 39  1  0
 10 40  1  0
 13 41  1  0
 13 42  1  0
 17 43  1  0
 18 44  1  0
 22 45  1  0
 22 46  1  0
 22 47  1  0
 23 48  1  0
 23 49  1  0
 23 50  1  0
 24 51  1  0
 24 52  1  0
 24 53  1  0
 25 54  1  0
 29 55  1  0
 29 56  1  0
 29 57  1  0
M  END
$$$$
