@<TRIPOS>MOLECULE
*****
 57 60 0 0 0
SMALL
GASTEIGER

@<TRIPOS>ATOM
      1 C          -2.4854   -2.9671    1.2423 C.3     1  UNL1       -0.0219
      2 C          -1.0157   -2.7993    1.1209 C.ar    1  UNL1        0.0487
      3 C          -0.3484   -1.6651    0.6746 C.ar    1  UNL1        0.0841
      4 C          -0.7485   -0.4202    0.2302 C.ar    1  UNL1        0.2268
      5 O          -2.1188   -0.1954    0.2022 O.3     1  UNL1       -0.4725
      6 C          -2.7014    1.0173   -0.2226 C.3     1  UNL1        0.1037
      7 C          -3.5459    1.6552    0.8441 C.3     1  UNL1       -0.0274
      8 C          -3.6002    0.7048   -1.4013 C.3     1  UNL1        0.0196
      9 C          -4.6776   -0.2750   -0.9830 C.3     1  UNL1        0.0182
     10 N          -5.9024    0.1971   -1.6104 N.am    1  UNL1       -0.3149
     11 C          -5.7441    1.5207   -2.0784 C.2     1  UNL1        0.2135
     12 O          -6.6445    2.2312   -2.5899 O.2     1  UNL1       -0.2758
     13 C          -4.3301    1.9436   -1.8678 C.3     1  UNL1        0.0315
     14 N           0.1362    0.5110   -0.1496 N.ar    1  UNL1       -0.2121
     15 C           1.4953    0.3158   -0.1314 C.ar    1  UNL1        0.0801
     16 C           2.2790    1.4393   -0.6036 C.ar    1  UNL1        0.0414
     17 C           1.7660    2.5406   -1.3036 C.ar    1  UNL1        0.0318
     18 N           2.7479    3.3929   -1.5253 N.ar    1  UNL1       -0.2838
     19 N           3.8437    2.8962   -1.0089 N.ar    1  UNL1       -0.1777
     20 C           3.6003    1.6794   -0.4235 C.ar    1  UNL1        0.0773
     21 C           4.6870    0.9313    0.2188 C.3     1  UNL1        0.0068
     22 C           4.4832    0.6172    1.6709 C.3     1  UNL1       -0.0545
     23 C           5.2217   -0.2031   -0.6173 C.3     1  UNL1       -0.0545
     24 C           5.9123    1.9148    0.2567 C.3     1  UNL1       -0.0545
     25 C           1.9139   -0.8976    0.2996 C.ar    1  UNL1       -0.0076
     26 C           1.0098   -1.8927    0.7039 C.ar    1  UNL1        0.1001
     27 N           1.1574   -3.1474    1.1619 N.ar    1  UNL1       -0.1710
     28 N          -0.0470   -3.6777    1.4066 N.ar    1  UNL1       -0.2703
     29 C          -0.2943   -5.0163    1.9115 C.3     1  UNL1        0.0305
     30 H          -2.9585   -3.2372    0.2575 H       1  UNL1        0.0293
     31 H          -2.7647   -3.7476    1.9508 H       1  UNL1        0.0293
     32 H          -2.9172   -1.9680    1.5076 H       1  UNL1        0.0293
     33 H          -1.9385    1.7542   -0.5268 H       1  UNL1        0.0734
     34 H          -4.6012    1.8004    0.5438 H       1  UNL1        0.0265
     35 H          -3.5655    1.0670    1.7838 H       1  UNL1        0.0265
     36 H          -3.1725    2.6757    1.1216 H       1  UNL1        0.0265
     37 H          -3.0162    0.2420   -2.2356 H       1  UNL1        0.0356
     38 H          -4.4625   -1.3075   -1.3513 H       1  UNL1        0.0466
     39 H          -4.8109   -0.2921    0.1030 H       1  UNL1        0.0466
     40 H          -6.7699   -0.3600   -1.7013 H       1  UNL1        0.1487
     41 H          -3.9419    2.1966   -2.8933 H       1  UNL1        0.0363
     42 H          -4.2236    2.7947   -1.1966 H       1  UNL1        0.0363
     43 H           0.7176    2.6388   -1.6005 H       1  UNL1        0.0830
     44 H           2.6583    4.3020   -2.0257 H       1  UNL1        0.1882
     45 H           5.1693    1.1457    2.3552 H       1  UNL1        0.0239
     46 H           3.4576    0.8516    2.0193 H       1  UNL1        0.0239
     47 H           4.7242   -0.4779    1.8025 H       1  UNL1        0.0239
     48 H           6.1012    0.0888   -1.2194 H       1  UNL1        0.0239
     49 H           5.4835   -1.0909   -0.0062 H       1  UNL1        0.0239
     50 H           4.4368   -0.4666   -1.3617 H       1  UNL1        0.0239
     51 H           5.5786    2.8793    0.6597 H       1  UNL1        0.0239
     52 H           6.6430    1.4040    0.8950 H       1  UNL1        0.0239
     53 H           6.2946    2.0136   -0.7723 H       1  UNL1        0.0239
     54 H           2.9309   -1.1820    0.3444 H       1  UNL1        0.0661
     55 H          -0.6596   -4.9160    2.9692 H       1  UNL1        0.0473
     56 H           0.6178   -5.6500    1.8797 H       1  UNL1        0.0473
     57 H          -1.0600   -5.5101    1.2701 H       1  UNL1        0.0473
@<TRIPOS>BOND
     1     1     2    1
     2     2     3   ar
     3     3     4   ar
     4     4     5    1
     5     5     6    1
     6     6     7    1
     7     6     8    1
     8     8     9    1
     9     9    10    1
    10    10    11   am
    11    11    12    2
    12    11    13    1
    13     4    14   ar
    14    14    15   ar
    15    15    16    1
    16    16    17   ar
    17    17    18   ar
    18    18    19   ar
    19    19    20   ar
    20    20    21    1
    21    21    22    1
    22    21    23    1
    23    21    24    1
    24    15    25   ar
    25    25    26   ar
    26    26    27   ar
    27    27    28   ar
    28    28    29    1
    29    28     2   ar
    30    26     3   ar
    31    13     8    1
    32    20    16   ar
    33     1    30    1
    34     1    31    1
    35     1    32    1
    36     6    33    1
    37     7    34    1
    38     7    35    1
    39     7    36    1
    40     8    37    1
    41     9    38    1
    42     9    39    1
    43    10    40    1
    44    13    41    1
    45    13    42    1
    46    17    43    1
    47    18    44    1
    48    22    45    1
    49    22    46    1
    50    22    47    1
    51    23    48    1
    52    23    49    1
    53    23    50    1
    54    24    51    1
    55    24    52    1
    56    24    53    1
    57    25    54    1
    58    29    55    1
    59    29    56    1
    60    29    57    1
