
     RDKit          3D

 70 73  0  0  0  0  0  0  0  0999 V2000
   -2.6317    0.7686    0.1710 C   0  0  2  0  0  0  0  0  0  0  0  0
   -4.0477    0.8662   -0.2123 C   0  0  0  0  0  0  0  0  0  0  0  0
   -4.7235   -0.4441   -0.4052 C   0  0  0  0  0  0  0  0  0  0  0  0
   -5.9616   -0.7655   -0.9549 C   0  0  0  0  0  0  0  0  0  0  0  0
   -6.1061   -2.1238   -0.8849 N   0  0  0  0  0  0  0  0  0  0  0  0
   -5.0318   -2.7007   -0.3211 C   0  0  0  0  0  0  0  0  0  0  0  0
   -4.5293   -3.9304    0.0412 C   0  0  0  0  0  0  0  0  0  0  0  0
   -3.2724   -4.0616    0.6462 C   0  0  0  0  0  0  0  0  0  0  0  0
   -2.4833   -2.9319    0.9019 C   0  0  0  0  0  0  0  0  0  0  0  0
   -2.9635   -1.6856    0.5483 C   0  0  0  0  0  0  0  0  0  0  0  0
   -4.2038   -1.6617   -0.0374 C   0  0  0  0  0  0  0  0  0  0  0  0
   -2.1402   -0.4840    0.8005 C   0  0  1  0  0  0  0  0  0  0  0  0
   -0.6960   -0.6865    0.3742 C   0  0  0  0  0  0  0  0  0  0  0  0
    0.0135    0.5976    0.7059 C   0  0  2  0  0  0  0  0  0  0  0  0
   -0.8175    1.5655    1.4744 C   0  0  0  0  0  0  0  0  0  0  0  0
   -2.1199    1.8504    0.9688 N   0  0  0  0  0  0  0  0  0  0  0  0
   -2.9899    2.4310    1.9332 C   0  0  0  0  0  0  0  0  0  0  0  0
   -3.4182    1.5677    3.0379 C   0  0  0  0  0  0  0  0  0  0  0  0
   -4.6750    1.2443    3.3225 C   0  0  0  0  0  0  0  0  0  0  0  0
    0.6649    1.2492   -0.4495 C   0  0  0  0  0  0  0  0  0  0  0  0
    0.2291    2.3963   -0.7530 O   0  0  0  0  0  0  0  0  0  0  0  0
    1.7112    0.7589   -1.2592 N   0  0  0  0  0  0  0  0  0  0  0  0
    2.3245   -0.5340   -1.0361 C   0  0  0  0  0  0  0  0  0  0  0  0
    3.5116   -0.4307   -0.0964 C   0  0  0  0  0  0  0  0  0  0  0  0
    4.0862   -1.8251    0.0748 C   0  0  0  0  0  0  0  0  0  0  0  0
    5.2282   -1.8246    0.9604 N   0  0  0  0  0  0  0  0  0  0  0  0
    4.8819   -1.5232    2.3327 C   0  0  0  0  0  0  0  0  0  0  0  0
    6.2982   -0.9824    0.4732 C   0  0  0  0  0  0  0  0  0  0  0  0
    2.2772    1.4535   -2.3551 C   0  0  0  0  0  0  0  0  0  0  0  0
    3.1897    0.6730   -2.8044 O   0  0  0  0  0  0  0  0  0  0  0  0
    2.1095    2.6863   -3.0285 N   0  0  0  0  0  0  0  0  0  0  0  0
    3.0434    2.8220   -4.1356 C   0  0  0  0  0  0  0  0  0  0  0  0
    4.4820    2.7639   -3.6988 C   0  0  0  0  0  0  0  0  0  0  0  0
   -2.0462    0.8859   -0.7980 H   0  0  0  0  0  0  0  0  0  0  0  0
   -4.6853    1.5360    0.4417 H   0  0  0  0  0  0  0  0  0  0  0  0
   -4.1844    1.3793   -1.2170 H   0  0  0  0  0  0  0  0  0  0  0  0
   -6.7181   -0.1114   -1.3776 H   0  0  0  0  0  0  0  0  0  0  0  0
   -6.9184   -2.7302   -1.2056 H   0  0  0  0  0  0  0  0  0  0  0  0
   -5.1887   -4.7816   -0.1823 H   0  0  0  0  0  0  0  0  0  0  0  0
   -2.9733   -5.0837    0.8918 H   0  0  0  0  0  0  0  0  0  0  0  0
   -1.5254   -3.0874    1.3689 H   0  0  0  0  0  0  0  0  0  0  0  0
   -2.0812   -0.3759    1.9045 H   0  0  0  0  0  0  0  0  0  0  0  0
   -0.2296   -1.5282    0.9193 H   0  0  0  0  0  0  0  0  0  0  0  0
   -0.7454   -0.8519   -0.7344 H   0  0  0  0  0  0  0  0  0  0  0  0
    0.8733    0.3184    1.3929 H   0  0  0  0  0  0  0  0  0  0  0  0
   -0.9110    1.2003    2.5168 H   0  0  0  0  0  0  0  0  0  0  0  0
   -0.2614    2.5328    1.5478 H   0  0  0  0  0  0  0  0  0  0  0  0
   -2.3598    3.2391    2.4321 H   0  0  0  0  0  0  0  0  0  0  0  0
   -3.8311    2.9691    1.5264 H   0  0  0  0  0  0  0  0  0  0  0  0
   -2.6012    1.1814    3.6523 H   0  0  0  0  0  0  0  0  0  0  0  0
   -5.4751    1.6365    2.7039 H   0  0  0  0  0  0  0  0  0  0  0  0
   -4.8785    0.5951    4.1653 H   0  0  0  0  0  0  0  0  0  0  0  0
    2.6838   -0.9692   -1.9827 H   0  0  0  0  0  0  0  0  0  0  0  0
    1.6047   -1.2286   -0.5464 H   0  0  0  0  0  0  0  0  0  0  0  0
    4.2987    0.1785   -0.5965 H   0  0  0  0  0  0  0  0  0  0  0  0
    3.2822    0.0177    0.8684 H   0  0  0  0  0  0  0  0  0  0  0  0
    4.4223   -2.2462   -0.8930 H   0  0  0  0  0  0  0  0  0  0  0  0
    3.3366   -2.5201    0.5041 H   0  0  0  0  0  0  0  0  0  0  0  0
    5.0953   -2.3671    3.0172 H   0  0  0  0  0  0  0  0  0  0  0  0
    3.8155   -1.2317    2.3985 H   0  0  0  0  0  0  0  0  0  0  0  0
    5.4820   -0.6520    2.7158 H   0  0  0  0  0  0  0  0  0  0  0  0
    6.2918    0.0388    0.8972 H   0  0  0  0  0  0  0  0  0  0  0  0
    7.2579   -1.4464    0.8072 H   0  0  0  0  0  0  0  0  0  0  0  0
    6.2786   -0.9989   -0.6218 H   0  0  0  0  0  0  0  0  0  0  0  0
    1.3501    3.2091   -2.5677 H   0  0  0  0  0  0  0  0  0  0  0  0
    2.8729    2.0521   -4.9083 H   0  0  0  0  0  0  0  0  0  0  0  0
    2.8499    3.8201   -4.5730 H   0  0  0  0  0  0  0  0  0  0  0  0
    4.9397    1.7664   -3.9018 H   0  0  0  0  0  0  0  0  0  0  0  0
    4.5902    3.0353   -2.6242 H   0  0  0  0  0  0  0  0  0  0  0  0
    5.0491    3.5204   -4.2762 H   0  0  0  0  0  0  0  0  0  0  0  0
  1  2  1  0
  2  3  1  0
  3  4  2  0
  4  5  1  0
  5  6  1  0
  6  7  2  0
  7  8  1  0
  8  9  2  0
  9 10  1  0
 10 11  2  0
 10 12  1  0
 12 13  1  0
 13 14  1  0
 14 15  1  0
 15 16  1  0
 16 17  1  0
 17 18  1  0
 18 19  2  0
 14 20  1  0
 20 21  2  0
 20 22  1  0
 22 23  1  0
 23 24  1  0
 24 25  1  0
 25 26  1  0
 26 27  1  0
 26 28  1  0
 22 29  1  0
 29 30  2  0
 29 31  1  0
 31 32  1  0
 32 33  1  0
 12  1  1  0
 16  1  1  0
 11  3  1  0
 11  6  1  0
  1 34  1  6
  2 35  1  0
  2 36  1  0
  4 37  1  0
  5 38  1  0
  7 39  1  0
  8 40  1  0
  9 41  1  0
 12 42  1  1
 13 43  1  0
 13 44  1  0
 14 45  1  1
 15 46  1  0
 15 47  1  0
 17 48  1  0
 17 49  1  0
 18 50  1  0
 19 51  1  0
 19 52  1  0
 23 53  1  0
 23 54  1  0
 24 55  1  0
 24 56  1  0
 25 57  1  0
 25 58  1  0
 27 59  1  0
 27 60  1  0
 27 61  1  0
 28 62  1  0
 28 63  1  0
 28 64  1  0
 31 65  1  0
 32 66  1  0
 32 67  1  0
 33 68  1  0
 33 69  1  0
 33 70  1  0
M  END
$$$$
