@<TRIPOS>MOLECULE
*****
 52 57 0 0 0
SMALL
GASTEIGER

@<TRIPOS>ATOM
      1 C          -3.7277   -0.7634    2.2567 C.3     1  UNL1       -0.0203
      2 C          -3.1142   -1.2131    0.9755 C.ar    1  UNL1        0.0660
      3 N          -3.6800   -1.9381   -0.0083 N.ar    1  UNL1       -0.1752
      4 N          -2.7976   -2.1221   -0.9717 N.ar    1  UNL1       -0.2556
      5 C          -3.0533   -2.8539   -2.1850 C.3     1  UNL1        0.0537
      6 C          -3.8733   -4.0900   -2.1620 C.3     1  UNL1       -0.0285
      7 C          -4.5355   -2.8475   -2.6314 C.3     1  UNL1       -0.0285
      8 C          -1.6280   -1.5297   -0.6591 C.ar    1  UNL1        0.1297
      9 C          -1.8331   -0.9573    0.5688 C.ar    1  UNL1        0.0305
     10 C          -0.5934   -0.2357    1.0200 C.3     1  UNL1        0.0881
     11 C          -0.8977    1.2203    1.1629 C.ar    1  UNL1        0.0131
     12 C          -1.0947    1.7814    2.4058 C.ar    1  UNL1       -0.0523
     13 C          -1.3932    3.1110    2.5704 C.ar    1  UNL1       -0.0429
     14 C          -1.5092    3.9465    1.4926 C.ar    1  UNL1        0.0437
     15 CL         -1.8884    5.6173    1.7683 Cl      1  UNL1       -0.0835
     16 C          -1.3170    3.4152    0.2243 C.ar    1  UNL1       -0.0078
     17 C          -1.0147    2.0636    0.0750 C.ar    1  UNL1        0.1300
     18 F          -0.8315    1.5647   -1.1618 F       1  UNL1       -0.2051
     19 N           0.4040   -0.4764    0.0031 N.am    1  UNL1       -0.2530
     20 C           1.7528   -0.0294    0.0403 C.ar    1  UNL1        0.0545
     21 C           2.1980    0.6214    1.1681 C.ar    1  UNL1       -0.0324
     22 C           3.4919    1.0888    1.2640 C.ar    1  UNL1       -0.0041
     23 C           3.9165    1.7812    2.4999 C.3     1  UNL1       -0.0361
     24 C           4.3263    0.8825    0.1919 C.ar    1  UNL1        0.1641
     25 N           5.6069    1.2082   -0.0189 N.ar    1  UNL1       -0.1292
     26 N           5.9641    0.7904   -1.2134 N.ar    1  UNL1       -0.1340
     27 C           4.9316    0.1799   -1.8204 C.ar    1  UNL1        0.1347
     28 C           4.8783   -0.4350   -3.1542 C.3     1  UNL1       -0.0041
     29 N           3.9069    0.2443   -0.9259 N.ar    1  UNL1       -0.2846
     30 C           2.6373   -0.2054   -1.0005 C.ar    1  UNL1        0.0344
     31 C          -0.2424   -1.2344   -1.0202 C.2     1  UNL1        0.2700
     32 O           0.2854   -1.6088   -2.0932 O.2     1  UNL1       -0.2679
     33 H          -4.0635    0.2951    2.0675 H       1  UNL1        0.0293
     34 H          -4.5997   -1.4106    2.4898 H       1  UNL1        0.0293
     35 H          -2.9930   -0.7121    3.0819 H       1  UNL1        0.0293
     36 H          -2.3030   -2.7908   -2.9803 H       1  UNL1        0.0545
     37 H          -4.2122   -4.5007   -1.1729 H       1  UNL1        0.0286
     38 H          -3.6072   -4.9056   -2.8768 H       1  UNL1        0.0286
     39 H          -5.2585   -2.3516   -1.9558 H       1  UNL1        0.0286
     40 H          -4.6995   -2.6526   -3.7202 H       1  UNL1        0.0286
     41 H          -0.2830   -0.6286    2.0039 H       1  UNL1        0.0607
     42 H          -1.0081    1.1344    3.2922 H       1  UNL1        0.0622
     43 H          -1.5305    3.4580    3.5961 H       1  UNL1        0.0632
     44 H          -1.4123    4.0852   -0.6052 H       1  UNL1        0.0661
     45 H           1.5262    0.7763    2.0256 H       1  UNL1        0.0640
     46 H           4.1518    0.9700    3.2429 H       1  UNL1        0.0279
     47 H           3.1153    2.3819    2.9564 H       1  UNL1        0.0279
     48 H           4.8326    2.3816    2.3706 H       1  UNL1        0.0279
     49 H           4.2475    0.1429   -3.8743 H       1  UNL1        0.0308
     50 H           5.9012   -0.4410   -3.5845 H       1  UNL1        0.0308
     51 H           4.5638   -1.5093   -3.1178 H       1  UNL1        0.0308
     52 H           2.3569   -0.6996   -1.9005 H       1  UNL1        0.0833
@<TRIPOS>BOND
     1     1     2    1
     2     2     3   ar
     3     3     4   ar
     4     4     5    1
     5     5     6    1
     6     6     7    1
     7     4     8   ar
     8     8     9   ar
     9     9    10    1
    10    10    11    1
    11    11    12   ar
    12    12    13   ar
    13    13    14   ar
    14    14    15    1
    15    14    16   ar
    16    16    17   ar
    17    17    18    1
    18    10    19    1
    19    19    20    1
    20    20    21   ar
    21    21    22   ar
    22    22    23    1
    23    22    24   ar
    24    24    25   ar
    25    25    26   ar
    26    26    27   ar
    27    27    28    1
    28    27    29   ar
    29    29    30   ar
    30    19    31   am
    31    31    32    2
    32     9     2   ar
    33    17    11   ar
    34    30    20   ar
    35     7     5    1
    36    31     8    1
    37    29    24   ar
    38     1    33    1
    39     1    34    1
    40     1    35    1
    41     5    36    1
    42     6    37    1
    43     6    38    1
    44     7    39    1
    45     7    40    1
    46    10    41    1
    47    12    42    1
    48    13    43    1
    49    16    44    1
    50    21    45    1
    51    23    46    1
    52    23    47    1
    53    23    48    1
    54    28    49    1
    55    28    50    1
    56    28    51    1
    57    30    52    1
