@<TRIPOS>MOLECULE
*****
 64 68 0 0 0
SMALL
GASTEIGER

@<TRIPOS>ATOM
      1 C          10.7307    0.0734    0.2217 C.3     1  UNL1        0.0790
      2 O           9.7385    1.0627    0.0253 O.3     1  UNL1       -0.4914
      3 C           8.4100    0.6779   -0.0505 C.ar    1  UNL1        0.1635
      4 C           8.0457   -0.6334    0.0616 C.ar    1  UNL1        0.0098
      5 C           6.7344   -1.0482   -0.0097 C.ar    1  UNL1        0.0782
      6 N           6.4323   -2.3498    0.1072 N.ar    1  UNL1       -0.2546
      7 C           5.1460   -2.7272    0.0343 C.ar    1  UNL1        0.0318
      8 C           4.1500   -1.7877   -0.1579 C.ar    1  UNL1       -0.0006
      9 C           4.4368   -0.4564   -0.2790 C.ar    1  UNL1        0.1393
     10 O           3.4558    0.5000   -0.4700 O.3     1  UNL1       -0.4524
     11 C           2.1186    0.1289   -0.5077 C.ar    1  UNL1        0.1636
     12 C           1.3633    0.3299   -1.6405 C.ar    1  UNL1       -0.0147
     13 C           0.0252   -0.0603   -1.6258 C.ar    1  UNL1       -0.0368
     14 C          -0.5338   -0.6317   -0.5133 C.ar    1  UNL1        0.0366
     15 N          -1.8917   -1.0256   -0.5152 N.am    1  UNL1       -0.2812
     16 C          -2.8824   -0.1235   -0.1082 C.2     1  UNL1        0.2553
     17 O          -2.4530    1.0350    0.2469 O.2     1  UNL1       -0.2696
     18 C          -4.3025   -0.3900   -0.0596 C.ar    1  UNL1        0.1235
     19 C          -5.0328   -1.4849   -0.3652 C.ar    1  UNL1        0.0504
     20 C          -4.5631   -2.7794   -0.8589 C.3     1  UNL1       -0.0219
     21 N          -6.3511   -1.2049   -0.1368 N.ar    1  UNL1       -0.2833
     22 C          -7.4601   -2.1172   -0.3417 C.3     1  UNL1        0.0291
     23 N          -6.4778    0.0179    0.2984 N.ar    1  UNL1       -0.2166
     24 C          -7.6837    0.6852    0.6499 C.ar    1  UNL1        0.0673
     25 C          -8.6692    0.9410   -0.2786 C.ar    1  UNL1       -0.0362
     26 C          -9.8528    1.5887    0.0401 C.ar    1  UNL1       -0.0598
     27 C         -10.0430    1.9920    1.3520 C.ar    1  UNL1       -0.0616
     28 C          -9.0823    1.7557    2.3117 C.ar    1  UNL1       -0.0598
     29 C          -7.9178    1.1071    1.9502 C.ar    1  UNL1       -0.0362
     30 C          -5.2517    0.5510    0.3603 C.ar    1  UNL1        0.2843
     31 O          -5.0142    1.7196    0.7402 O.2     1  UNL1       -0.2650
     32 C           0.2357   -0.8211    0.6008 C.ar    1  UNL1       -0.0015
     33 C           1.5816   -0.4491    0.6419 C.ar    1  UNL1        0.1672
     34 F           2.2858   -0.6498    1.7782 F       1  UNL1       -0.2016
     35 C           5.7811   -0.0776   -0.2015 C.ar    1  UNL1        0.0463
     36 C           6.1102    1.2452   -0.3180 C.ar    1  UNL1       -0.0036
     37 C           7.4385    1.6748   -0.2470 C.ar    1  UNL1        0.1623
     38 O           7.7763    2.8985   -0.3521 O.3     1  UNL1       -0.4914
     39 C           8.1054    4.1294   -0.4587 C.3     1  UNL1        0.0790
     40 H          10.4735   -0.4557    1.1711 H       1  UNL1        0.0660
     41 H          10.6344   -0.6967   -0.5821 H       1  UNL1        0.0660
     42 H          11.7431    0.4968    0.2821 H       1  UNL1        0.0660
     43 H           8.8249   -1.3816    0.2138 H       1  UNL1        0.0677
     44 H           4.8664   -3.7871    0.1260 H       1  UNL1        0.0831
     45 H           3.1408   -2.1704   -0.2143 H       1  UNL1        0.0670
     46 H           1.8280    0.7789   -2.4943 H       1  UNL1        0.0656
     47 H          -0.5761    0.0884   -2.4969 H       1  UNL1        0.0637
     48 H          -2.1736   -2.0047   -0.8241 H       1  UNL1        0.1551
     49 H          -5.4431   -3.4828   -1.0154 H       1  UNL1        0.0293
     50 H          -3.9343   -3.3515   -0.1307 H       1  UNL1        0.0293
     51 H          -4.1228   -2.7132   -1.8757 H       1  UNL1        0.0293
     52 H          -8.4198   -1.5813   -0.3133 H       1  UNL1        0.0472
     53 H          -7.4086   -2.5900   -1.3626 H       1  UNL1        0.0472
     54 H          -7.5050   -2.9048    0.4456 H       1  UNL1        0.0472
     55 H          -8.5487    0.6382   -1.3096 H       1  UNL1        0.0639
     56 H         -10.6126    1.7812   -0.6971 H       1  UNL1        0.0618
     57 H         -10.9764    2.5018    1.5990 H       1  UNL1        0.0618
     58 H          -9.2704    2.0882    3.3292 H       1  UNL1        0.0618
     59 H          -7.1609    0.9142    2.6791 H       1  UNL1        0.0639
     60 H          -0.1723   -1.2667    1.4901 H       1  UNL1        0.0666
     61 H           5.3583    1.9915   -0.4671 H       1  UNL1        0.0663
     62 H           8.7072    4.4876    0.4523 H       1  UNL1        0.0660
     63 H           7.2827    4.9193   -0.4869 H       1  UNL1        0.0660
     64 H           8.8264    4.4042   -1.2972 H       1  UNL1        0.0660
@<TRIPOS>BOND
     1     1     2    1
     2     2     3    1
     3     3     4   ar
     4     4     5   ar
     5     5     6   ar
     6     6     7   ar
     7     7     8   ar
     8     8     9   ar
     9     9    10    1
    10    10    11    1
    11    11    12   ar
    12    12    13   ar
    13    13    14   ar
    14    14    15    1
    15    15    16   am
    16    16    17    2
    17    16    18    1
    18    18    19   ar
    19    19    20    1
    20    19    21   ar
    21    21    22    1
    22    21    23   ar
    23    23    24    1
    24    24    25   ar
    25    25    26   ar
    26    26    27   ar
    27    27    28   ar
    28    28    29   ar
    29    23    30   ar
    30    30    31    2
    31    14    32   ar
    32    32    33   ar
    33    33    34    1
    34     9    35   ar
    35    35    36   ar
    36    36    37   ar
    37    37    38    1
    38    38    39    1
    39    37     3   ar
    40    35     5   ar
    41    33    11   ar
    42    30    18   ar
    43    29    24   ar
    44     1    40    1
    45     1    41    1
    46     1    42    1
    47     4    43    1
    48     7    44    1
    49     8    45    1
    50    12    46    1
    51    13    47    1
    52    15    48    1
    53    20    49    1
    54    20    50    1
    55    20    51    1
    56    22    52    1
    57    22    53    1
    58    22    54    1
    59    25    55    1
    60    26    56    1
    61    27    57    1
    62    28    58    1
    63    29    59    1
    64    32    60    1
    65    36    61    1
    66    39    62    1
    67    39    63    1
    68    39    64    1
