
     RDKit          3D

 64 68  0  0  0  0  0  0  0  0999 V2000
   10.7307    0.0734    0.2217 C   0  0  0  0  0  0  0  0  0  0  0  0
    9.7385    1.0627    0.0253 O   0  0  0  0  0  0  0  0  0  0  0  0
    8.4100    0.6779   -0.0505 C   0  0  0  0  0  0  0  0  0  0  0  0
    8.0457   -0.6334    0.0616 C   0  0  0  0  0  0  0  0  0  0  0  0
    6.7344   -1.0482   -0.0097 C   0  0  0  0  0  0  0  0  0  0  0  0
    6.4323   -2.3498    0.1072 N   0  0  0  0  0  0  0  0  0  0  0  0
    5.1460   -2.7272    0.0343 C   0  0  0  0  0  0  0  0  0  0  0  0
    4.1500   -1.7877   -0.1579 C   0  0  0  0  0  0  0  0  0  0  0  0
    4.4368   -0.4564   -0.2790 C   0  0  0  0  0  0  0  0  0  0  0  0
    3.4558    0.5000   -0.4700 O   0  0  0  0  0  0  0  0  0  0  0  0
    2.1186    0.1289   -0.5077 C   0  0  0  0  0  0  0  0  0  0  0  0
    1.3633    0.3299   -1.6405 C   0  0  0  0  0  0  0  0  0  0  0  0
    0.0252   -0.0603   -1.6258 C   0  0  0  0  0  0  0  0  0  0  0  0
   -0.5338   -0.6317   -0.5133 C   0  0  0  0  0  0  0  0  0  0  0  0
   -1.8917   -1.0256   -0.5152 N   0  0  0  0  0  0  0  0  0  0  0  0
   -2.8824   -0.1235   -0.1082 C   0  0  0  0  0  0  0  0  0  0  0  0
   -2.4530    1.0350    0.2469 O   0  0  0  0  0  0  0  0  0  0  0  0
   -4.3025   -0.3900   -0.0596 C   0  0  0  0  0  0  0  0  0  0  0  0
   -5.0328   -1.4849   -0.3652 C   0  0  0  0  0  0  0  0  0  0  0  0
   -4.5631   -2.7794   -0.8589 C   0  0  0  0  0  0  0  0  0  0  0  0
   -6.3511   -1.2049   -0.1368 N   0  0  0  0  0  0  0  0  0  0  0  0
   -7.4601   -2.1172   -0.3417 C   0  0  0  0  0  0  0  0  0  0  0  0
   -6.4778    0.0179    0.2984 N   0  0  0  0  0  0  0  0  0  0  0  0
   -7.6837    0.6852    0.6499 C   0  0  0  0  0  0  0  0  0  0  0  0
   -8.6692    0.9410   -0.2786 C   0  0  0  0  0  0  0  0  0  0  0  0
   -9.8528    1.5887    0.0401 C   0  0  0  0  0  0  0  0  0  0  0  0
  -10.0430    1.9920    1.3520 C   0  0  0  0  0  0  0  0  0  0  0  0
   -9.0823    1.7557    2.3117 C   0  0  0  0  0  0  0  0  0  0  0  0
   -7.9178    1.1071    1.9502 C   0  0  0  0  0  0  0  0  0  0  0  0
   -5.2517    0.5510    0.3603 C   0  0  0  0  0  0  0  0  0  0  0  0
   -5.0142    1.7196    0.7402 O   0  0  0  0  0  0  0  0  0  0  0  0
    0.2357   -0.8211    0.6008 C   0  0  0  0  0  0  0  0  0  0  0  0
    1.5816   -0.4491    0.6419 C   0  0  0  0  0  0  0  0  0  0  0  0
    2.2858   -0.6498    1.7782 F   0  0  0  0  0  0  0  0  0  0  0  0
    5.7811   -0.0776   -0.2015 C   0  0  0  0  0  0  0  0  0  0  0  0
    6.1102    1.2452   -0.3180 C   0  0  0  0  0  0  0  0  0  0  0  0
    7.4385    1.6748   -0.2470 C   0  0  0  0  0  0  0  0  0  0  0  0
    7.7763    2.8985   -0.3521 O   0  0  0  0  0  0  0  0  0  0  0  0
    8.1054    4.1294   -0.4587 C   0  0  0  0  0  0  0  0  0  0  0  0
   10.4735   -0.4557    1.1711 H   0  0  0  0  0  0  0  0  0  0  0  0
   10.6344   -0.6967   -0.5821 H   0  0  0  0  0  0  0  0  0  0  0  0
   11.7431    0.4968    0.2821 H   0  0  0  0  0  0  0  0  0  0  0  0
    8.8249   -1.3816    0.2138 H   0  0  0  0  0  0  0  0  0  0  0  0
    4.8664   -3.7871    0.1260 H   0  0  0  0  0  0  0  0  0  0  0  0
    3.1408   -2.1704   -0.2143 H   0  0  0  0  0  0  0  0  0  0  0  0
    1.8280    0.7789   -2.4943 H   0  0  0  0  0  0  0  0  0  0  0  0
   -0.5761    0.0884   -2.4969 H   0  0  0  0  0  0  0  0  0  0  0  0
   -2.1736   -2.0047   -0.8241 H   0  0  0  0  0  0  0  0  0  0  0  0
   -5.4431   -3.4828   -1.0154 H   0  0  0  0  0  0  0  0  0  0  0  0
   -3.9343   -3.3515   -0.1307 H   0  0  0  0  0  0  0  0  0  0  0  0
   -4.1228   -2.7132   -1.8757 H   0  0  0  0  0  0  0  0  0  0  0  0
   -8.4198   -1.5813   -0.3133 H   0  0  0  0  0  0  0  0  0  0  0  0
   -7.4086   -2.5900   -1.3626 H   0  0  0  0  0  0  0  0  0  0  0  0
   -7.5050   -2.9048    0.4456 H   0  0  0  0  0  0  0  0  0  0  0  0
   -8.5487    0.6382   -1.3096 H   0  0  0  0  0  0  0  0  0  0  0  0
  -10.6126    1.7812   -0.6971 H   0  0  0  0  0  0  0  0  0  0  0  0
  -10.9764    2.5018    1.5990 H   0  0  0  0  0  0  0  0  0  0  0  0
   -9.2704    2.0882    3.3292 H   0  0  0  0  0  0  0  0  0  0  0  0
   -7.1609    0.9142    2.6791 H   0  0  0  0  0  0  0  0  0  0  0  0
   -0.1723   -1.2667    1.4901 H   0  0  0  0  0  0  0  0  0  0  0  0
    5.3583    1.9915   -0.4671 H   0  0  0  0  0  0  0  0  0  0  0  0
    8.7072    4.4876    0.4523 H   0  0  0  0  0  0  0  0  0  0  0  0
    7.2827    4.9193   -0.4869 H   0  0  0  0  0  0  0  0  0  0  0  0
    8.8264    4.4042   -1.2972 H   0  0  0  0  0  0  0  0  0  0  0  0
  1  2  1  0
  2  3  1  0
  3  4  2  0
  4  5  1  0
  5  6  2  0
  6  7  1  0
  7  8  2  0
  8  9  1  0
  9 10  1  0
 10 11  1  0
 11 12  2  0
 12 13  1  0
 13 14  2  0
 14 15  1  0
 15 16  1  0
 16 17  2  0
 16 18  1  0
 18 19  2  0
 19 20  1  0
 19 21  1  0
 21 22  1  0
 21 23  1  0
 23 24  1  0
 24 25  2  0
 25 26  1  0
 26 27  2  0
 27 28  1  0
 28 29  2  0
 23 30  1  0
 30 31  2  0
 14 32  1  0
 32 33  2  0
 33 34  1  0
  9 35  2  0
 35 36  1  0
 36 37  2  0
 37 38  1  0
 38 39  1  0
 37  3  1  0
 35  5  1  0
 33 11  1  0
 30 18  1  0
 29 24  1  0
  1 40  1  0
  1 41  1  0
  1 42  1  0
  4 43  1  0
  7 44  1  0
  8 45  1  0
 12 46  1  0
 13 47  1  0
 15 48  1  0
 20 49  1  0
 20 50  1  0
 20 51  1  0
 22 52  1  0
 22 53  1  0
 22 54  1  0
 25 55  1  0
 26 56  1  0
 27 57  1  0
 28 58  1  0
 29 59  1  0
 32 60  1  0
 36 61  1  0
 39 62  1  0
 39 63  1  0
 39 64  1  0
M  END
$$$$
