@<TRIPOS>MOLECULE
*****
 17 17 0 0 0
SMALL
GASTEIGER

@<TRIPOS>ATOM
      1 O           3.1843   -0.8475    0.4149 O.3     1  UNL1       -0.4770
      2 C           2.1702    0.0080    0.0236 C.2     1  UNL1        0.3405
      3 O           2.6020    1.1124   -0.3880 O.2     1  UNL1       -0.2450
      4 C           0.7386   -0.2561    0.0506 C.ar    1  UNL1        0.1037
      5 C           0.2621   -1.4662    0.5012 C.ar    1  UNL1       -0.0440
      6 C          -1.1294   -1.5992    0.4787 C.ar    1  UNL1       -0.0573
      7 C          -2.0101   -0.6274    0.0488 C.ar    1  UNL1       -0.0165
      8 C          -1.4400    0.5517   -0.3846 C.ar    1  UNL1        0.1591
      9 O          -2.2667    1.5907   -0.8380 O.3     1  UNL1       -0.5033
     10 C          -0.0596    0.7752   -0.3983 C.ar    1  UNL1        0.1724
     11 O           0.4395    1.9901   -0.8496 O.3     1  UNL1       -0.5028
     12 H           3.9107   -0.5640    1.0904 H       1  UNL1        0.2954
     13 H           0.8953   -2.2598    0.8476 H       1  UNL1        0.0627
     14 H          -1.5444   -2.5407    0.8269 H       1  UNL1        0.0619
     15 H          -3.0707   -0.7950    0.0578 H       1  UNL1        0.0655
     16 H          -2.5178    2.3075   -0.1623 H       1  UNL1        0.2923
     17 H          -0.1640    2.6203   -1.3196 H       1  UNL1        0.2923
@<TRIPOS>BOND
     1     1     2    1
     2     2     3    2
     3     2     4    1
     4     4     5   ar
     5     5     6   ar
     6     6     7   ar
     7     7     8   ar
     8     8     9    1
     9     8    10   ar
    10    10    11    1
    11    10     4   ar
    12     1    12    1
    13     5    13    1
    14     6    14    1
    15     7    15    1
    16     9    16    1
    17    11    17    1
