
     RDKit          3D

 17 17  0  0  0  0  0  0  0  0999 V2000
    3.1843   -0.8475    0.4149 O   0  0  0  0  0  0  0  0  0  0  0  0
    2.1702    0.0080    0.0236 C   0  0  0  0  0  0  0  0  0  0  0  0
    2.6020    1.1124   -0.3880 O   0  0  0  0  0  0  0  0  0  0  0  0
    0.7386   -0.2561    0.0506 C   0  0  0  0  0  0  0  0  0  0  0  0
    0.2621   -1.4662    0.5012 C   0  0  0  0  0  0  0  0  0  0  0  0
   -1.1294   -1.5992    0.4787 C   0  0  0  0  0  0  0  0  0  0  0  0
   -2.0101   -0.6274    0.0488 C   0  0  0  0  0  0  0  0  0  0  0  0
   -1.4400    0.5517   -0.3846 C   0  0  0  0  0  0  0  0  0  0  0  0
   -2.2667    1.5907   -0.8380 O   0  0  0  0  0  0  0  0  0  0  0  0
   -0.0596    0.7752   -0.3983 C   0  0  0  0  0  0  0  0  0  0  0  0
    0.4395    1.9901   -0.8496 O   0  0  0  0  0  0  0  0  0  0  0  0
    3.9107   -0.5640    1.0904 H   0  0  0  0  0  0  0  0  0  0  0  0
    0.8953   -2.2598    0.8476 H   0  0  0  0  0  0  0  0  0  0  0  0
   -1.5444   -2.5407    0.8269 H   0  0  0  0  0  0  0  0  0  0  0  0
   -3.0707   -0.7950    0.0578 H   0  0  0  0  0  0  0  0  0  0  0  0
   -2.5178    2.3075   -0.1623 H   0  0  0  0  0  0  0  0  0  0  0  0
   -0.1640    2.6203   -1.3196 H   0  0  0  0  0  0  0  0  0  0  0  0
  1  2  1  0
  2  3  2  0
  2  4  1  0
  4  5  2  0
  5  6  1  0
  6  7  2  0
  7  8  1  0
  8  9  1  0
  8 10  2  0
 10 11  1  0
 10  4  1  0
  1 12  1  0
  5 13  1  0
  6 14  1  0
  7 15  1  0
  9 16  1  0
 11 17  1  0
M  END
$$$$
