@<TRIPOS>MOLECULE
*****
 52 56 0 0 0
SMALL
GASTEIGER

@<TRIPOS>ATOM
      1 F          -4.6188    1.8975    1.1315 F       1  UNL1       -0.1659
      2 C          -5.6075    1.4258    0.3267 C.3     1  UNL1        0.4180
      3 F          -6.7292    2.2282    0.5962 F       1  UNL1       -0.1659
      4 F          -5.3475    1.6525   -1.0186 F       1  UNL1       -0.1659
      5 C          -5.9344    0.0295    0.6055 C.ar    1  UNL1        0.0625
      6 C          -7.2513   -0.2782    1.0039 C.ar    1  UNL1       -0.0495
      7 C          -7.6347   -1.5683    1.2540 C.ar    1  UNL1       -0.0612
      8 C          -6.7113   -2.5917    1.1131 C.ar    1  UNL1       -0.0612
      9 C          -5.4405   -2.2820    0.7277 C.ar    1  UNL1       -0.0535
     10 C          -5.0159   -0.9696    0.4642 C.ar    1  UNL1       -0.0062
     11 C          -3.6519   -0.6905    0.0868 C.ar    1  UNL1       -0.0147
     12 C          -3.2251   -1.0078   -1.2102 C.ar    1  UNL1       -0.0403
     13 C          -1.9369   -0.8032   -1.6409 C.ar    1  UNL1        0.0807
     14 C          -1.5258   -1.1539   -3.0252 C.3     1  UNL1        0.4194
     15 F          -0.5065   -2.0998   -2.9740 F       1  UNL1       -0.1658
     16 F          -2.5889   -1.7645   -3.6540 F       1  UNL1       -0.1658
     17 F          -1.1124   -0.0402   -3.7297 F       1  UNL1       -0.1658
     18 C          -1.0009   -0.2721   -0.8076 C.ar    1  UNL1        0.0783
     19 N           0.3214    0.0501   -0.9146 N.ar    1  UNL1       -0.3364
     20 C           0.7582    0.5531    0.2400 C.ar    1  UNL1        0.1568
     21 C           2.1172    1.0305    0.5686 C.2     1  UNL1        0.1259
     22 N           2.4091    1.8398    1.5269 N.2     1  UNL1       -0.0852
     23 O           3.7272    2.1185    1.6143 O.2     1  UNL1       -0.3865
     24 C           4.4379    1.1856    0.7879 C.3     1  UNL1        0.1443
     25 C           5.0442    0.1401    1.6629 C.3     1  UNL1       -0.0100
     26 C           6.4968   -0.0312    1.2761 C.3     1  UNL1       -0.0493
     27 C           6.5806   -0.1753   -0.2287 C.3     1  UNL1       -0.0528
     28 C           6.2074    1.1152   -0.9405 C.3     1  UNL1       -0.0493
     29 C           5.4746    2.0010    0.0406 C.3     1  UNL1       -0.0100
     30 C           3.3619    0.6766   -0.1244 C.3     1  UNL1        0.0388
     31 N          -0.2894    0.5475    1.0739 N.ar    1  UNL1       -0.2264
     32 C          -1.3884    0.0515    0.4780 C.ar    1  UNL1        0.0906
     33 C          -2.6974   -0.1584    0.9113 C.ar    1  UNL1       -0.0265
     34 H          -7.9810    0.5200    1.1164 H       1  UNL1        0.0623
     35 H          -8.6449   -1.8403    1.5637 H       1  UNL1        0.0618
     36 H          -7.0036   -3.5948    1.3055 H       1  UNL1        0.0618
     37 H          -4.6850   -3.0459    0.6042 H       1  UNL1        0.0624
     38 H          -3.9550   -1.4281   -1.8786 H       1  UNL1        0.0630
     39 H           0.8998   -0.0799   -1.7742 H       1  UNL1        0.1674
     40 H           4.5180   -0.8307    1.6514 H       1  UNL1        0.0305
     41 H           5.0539    0.4694    2.7431 H       1  UNL1        0.0305
     42 H           7.0344    0.8764    1.6424 H       1  UNL1        0.0267
     43 H           6.9681   -0.9108    1.7316 H       1  UNL1        0.0267
     44 H           7.5989   -0.4305   -0.5543 H       1  UNL1        0.0265
     45 H           5.8606   -0.9700   -0.5174 H       1  UNL1        0.0265
     46 H           5.5512    0.8886   -1.7974 H       1  UNL1        0.0267
     47 H           7.1120    1.6596   -1.2800 H       1  UNL1        0.0267
     48 H           6.1330    2.4896    0.7605 H       1  UNL1        0.0305
     49 H           4.9140    2.7649   -0.5364 H       1  UNL1        0.0305
     50 H           3.4445   -0.4318   -0.2486 H       1  UNL1        0.0370
     51 H           3.4161    1.1525   -1.1365 H       1  UNL1        0.0370
     52 H          -2.9566    0.0859    1.9258 H       1  UNL1        0.0645
@<TRIPOS>BOND
     1     1     2    1
     2     2     3    1
     3     2     4    1
     4     2     5    1
     5     5     6   ar
     6     6     7   ar
     7     7     8   ar
     8     8     9   ar
     9     9    10   ar
    10    10    11    1
    11    11    12   ar
    12    12    13   ar
    13    13    14    1
    14    14    15    1
    15    14    16    1
    16    14    17    1
    17    13    18   ar
    18    18    19   ar
    19    19    20   ar
    20    20    21    1
    21    21    22    2
    22    22    23    1
    23    23    24    1
    24    24    25    1
    25    25    26    1
    26    26    27    1
    27    27    28    1
    28    28    29    1
    29    24    30    1
    30    20    31   ar
    31    31    32   ar
    32    32    33   ar
    33    10     5   ar
    34    33    11   ar
    35    32    18   ar
    36    30    21    1
    37    29    24    1
    38     6    34    1
    39     7    35    1
    40     8    36    1
    41     9    37    1
    42    12    38    1
    43    19    39    1
    44    25    40    1
    45    25    41    1
    46    26    42    1
    47    26    43    1
    48    27    44    1
    49    27    45    1
    50    28    46    1
    51    28    47    1
    52    29    48    1
    53    29    49    1
    54    30    50    1
    55    30    51    1
    56    33    52    1
