
     RDKit          3D

 67 71  0  0  0  0  0  0  0  0999 V2000
    5.6861    3.0082    2.4938 C   0  0  0  0  0  0  0  0  0  0  0  0
    4.3129    2.7186    2.0548 C   0  0  0  0  0  0  0  0  0  0  0  0
    3.3004    3.4950    2.5762 C   0  0  0  0  0  0  0  0  0  0  0  0
    1.9864    3.2971    2.2269 C   0  0  0  0  0  0  0  0  0  0  0  0
    1.6330    2.2899    1.3210 C   0  0  0  0  0  0  0  0  0  0  0  0
    0.2582    2.1694    1.0291 N   0  0  0  0  0  0  0  0  0  0  0  0
   -0.3646    1.2586    0.1603 C   0  0  0  0  0  0  0  0  0  0  0  0
    0.3431    0.4311   -0.4554 O   0  0  0  0  0  0  0  0  0  0  0  0
   -1.8134    1.2083   -0.0806 C   0  0  0  0  0  0  0  0  0  0  0  0
   -2.7032    2.0440    0.5387 C   0  0  0  0  0  0  0  0  0  0  0  0
   -4.0786    1.9731    0.2887 C   0  0  0  0  0  0  0  0  0  0  0  0
   -4.5918    1.0535   -0.5955 C   0  0  0  0  0  0  0  0  0  0  0  0
   -6.0398    1.0305   -0.8332 C   0  0  0  0  0  0  0  0  0  0  0  0
   -6.7123    0.1941    0.1310 N   0  0  0  0  0  0  0  0  0  0  0  0
   -8.1303    0.1633   -0.0574 C   0  0  0  0  0  0  0  0  0  0  0  0
   -8.6672   -1.2346    0.0197 C   0  0  0  0  0  0  0  0  0  0  0  0
   -8.0724   -2.1375   -0.9178 N   0  0  0  0  0  0  0  0  0  0  0  0
   -8.3126   -3.5176   -0.5207 C   0  0  0  0  0  0  0  0  0  0  0  0
   -6.6669   -1.9409   -1.0701 C   0  0  0  0  0  0  0  0  0  0  0  0
   -6.1886   -1.1282    0.1378 C   0  0  0  0  0  0  0  0  0  0  0  0
   -3.6922    0.2082   -1.2220 C   0  0  0  0  0  0  0  0  0  0  0  0
   -2.3413    0.2907   -0.9652 C   0  0  0  0  0  0  0  0  0  0  0  0
    2.6325    1.5251    0.8076 C   0  0  0  0  0  0  0  0  0  0  0  0
    3.9631    1.7319    1.1667 C   0  0  0  0  0  0  0  0  0  0  0  0
    5.0188    0.8921    0.5927 C   0  0  0  0  0  0  0  0  0  0  0  0
    4.8361   -0.4691    0.5597 C   0  0  0  0  0  0  0  0  0  0  0  0
    5.7639   -1.3121    0.0423 C   0  0  0  0  0  0  0  0  0  0  0  0
    6.9409   -0.8145   -0.4757 C   0  0  0  0  0  0  0  0  0  0  0  0
    7.9875   -1.6909   -1.0521 C   0  0  0  0  0  0  0  0  0  0  0  0
    9.1749   -1.1708   -1.5729 C   0  0  0  0  0  0  0  0  0  0  0  0
   10.0132   -2.6799   -2.1050 S   0  0  0  0  0  0  0  0  0  0  0  0
    8.6585   -3.7724   -1.5545 C   0  0  0  0  0  0  0  0  0  0  0  0
    8.8344   -5.1928   -1.7628 N   0  0  0  0  0  0  0  0  0  0  0  0
    7.8811   -2.9874   -1.1149 N   0  0  0  0  0  0  0  0  0  0  0  0
    7.1197    0.5504   -0.4405 C   0  0  0  0  0  0  0  0  0  0  0  0
    6.1819    1.4123    0.0832 C   0  0  0  0  0  0  0  0  0  0  0  0
    5.6352    3.3107    3.5822 H   0  0  0  0  0  0  0  0  0  0  0  0
    6.0667    3.9348    1.9853 H   0  0  0  0  0  0  0  0  0  0  0  0
    6.3765    2.1634    2.4595 H   0  0  0  0  0  0  0  0  0  0  0  0
    3.5112    4.3040    3.2935 H   0  0  0  0  0  0  0  0  0  0  0  0
    1.2224    3.9504    2.6774 H   0  0  0  0  0  0  0  0  0  0  0  0
   -0.4047    2.8421    1.5172 H   0  0  0  0  0  0  0  0  0  0  0  0
   -2.3642    2.7868    1.2430 H   0  0  0  0  0  0  0  0  0  0  0  0
   -4.7598    2.6490    0.7948 H   0  0  0  0  0  0  0  0  0  0  0  0
   -6.4561    2.0766   -0.7378 H   0  0  0  0  0  0  0  0  0  0  0  0
   -6.2792    0.6998   -1.8687 H   0  0  0  0  0  0  0  0  0  0  0  0
   -8.6370    0.7531    0.7523 H   0  0  0  0  0  0  0  0  0  0  0  0
   -8.3850    0.6682   -1.0120 H   0  0  0  0  0  0  0  0  0  0  0  0
   -9.7813   -1.2308   -0.1844 H   0  0  0  0  0  0  0  0  0  0  0  0
   -8.5412   -1.6087    1.0630 H   0  0  0  0  0  0  0  0  0  0  0  0
   -8.0880   -3.6192    0.5796 H   0  0  0  0  0  0  0  0  0  0  0  0
   -9.4066   -3.7043   -0.6560 H   0  0  0  0  0  0  0  0  0  0  0  0
   -7.6822   -4.2364   -1.0494 H   0  0  0  0  0  0  0  0  0  0  0  0
   -6.4333   -1.3679   -1.9932 H   0  0  0  0  0  0  0  0  0  0  0  0
   -6.0804   -2.8878   -1.0514 H   0  0  0  0  0  0  0  0  0  0  0  0
   -5.0856   -1.2091    0.1416 H   0  0  0  0  0  0  0  0  0  0  0  0
   -6.5273   -1.6505    1.0641 H   0  0  0  0  0  0  0  0  0  0  0  0
   -4.0969   -0.5264   -1.9293 H   0  0  0  0  0  0  0  0  0  0  0  0
   -1.6647   -0.3980   -1.4834 H   0  0  0  0  0  0  0  0  0  0  0  0
    2.4131    0.7291    0.1004 H   0  0  0  0  0  0  0  0  0  0  0  0
    3.9136   -0.9206    0.9598 H   0  0  0  0  0  0  0  0  0  0  0  0
    5.6294   -2.4049    0.0103 H   0  0  0  0  0  0  0  0  0  0  0  0
    9.5586   -0.1174   -1.6636 H   0  0  0  0  0  0  0  0  0  0  0  0
    9.7458   -5.6443   -1.5916 H   0  0  0  0  0  0  0  0  0  0  0  0
    8.0332   -5.7221   -2.0808 H   0  0  0  0  0  0  0  0  0  0  0  0
    8.0527    0.9835   -0.8475 H   0  0  0  0  0  0  0  0  0  0  0  0
    6.3639    2.5005    0.0901 H   0  0  0  0  0  0  0  0  0  0  0  0
  1  2  1  0
  2  3  2  0
  3  4  1  0
  4  5  2  0
  5  6  1  0
  6  7  1  0
  7  8  2  0
  7  9  1  0
  9 10  2  0
 10 11  1  0
 11 12  2  0
 12 13  1  0
 13 14  1  0
 14 15  1  0
 15 16  1  0
 16 17  1  0
 17 18  1  0
 17 19  1  0
 19 20  1  0
 12 21  1  0
 21 22  2  0
  5 23  1  0
 23 24  2  0
 24 25  1  0
 25 26  2  0
 26 27  1  0
 27 28  2  0
 28 29  1  0
 29 30  2  0
 30 31  1  0
 31 32  1  0
 32 33  1  0
 32 34  2  0
 28 35  1  0
 35 36  2  0
 24  2  1  0
 36 25  1  0
 22  9  1  0
 34 29  1  0
 20 14  1  0
  1 37  1  0
  1 38  1  0
  1 39  1  0
  3 40  1  0
  4 41  1  0
  6 42  1  0
 10 43  1  0
 11 44  1  0
 13 45  1  0
 13 46  1  0
 15 47  1  0
 15 48  1  0
 16 49  1  0
 16 50  1  0
 18 51  1  0
 18 52  1  0
 18 53  1  0
 19 54  1  0
 19 55  1  0
 20 56  1  0
 20 57  1  0
 21 58  1  0
 22 59  1  0
 23 60  1  0
 26 61  1  0
 27 62  1  0
 30 63  1  0
 33 64  1  0
 33 65  1  0
 35 66  1  0
 36 67  1  0
M  END
$$$$
