@<TRIPOS>MOLECULE
*****
 67 71 0 0 0
SMALL
GASTEIGER

@<TRIPOS>ATOM
      1 C           5.6861    3.0082    2.4938 C.3     1  UNL1       -0.0391
      2 C           4.3129    2.7186    2.0548 C.ar    1  UNL1       -0.0426
      3 C           3.3004    3.4950    2.5762 C.ar    1  UNL1       -0.0565
      4 C           1.9864    3.2971    2.2269 C.ar    1  UNL1       -0.0402
      5 C           1.6330    2.2899    1.3210 C.ar    1  UNL1        0.0343
      6 N           0.2582    2.1694    1.0291 N.am    1  UNL1       -0.2815
      7 C          -0.3646    1.2586    0.1603 C.2     1  UNL1        0.2483
      8 O           0.3431    0.4311   -0.4554 O.2     1  UNL1       -0.2699
      9 C          -1.8134    1.2083   -0.0806 C.ar    1  UNL1        0.0370
     10 C          -2.7032    2.0440    0.5387 C.ar    1  UNL1       -0.0493
     11 C          -4.0786    1.9731    0.2887 C.ar    1  UNL1       -0.0566
     12 C          -4.5918    1.0535   -0.5955 C.ar    1  UNL1       -0.0333
     13 C          -6.0398    1.0305   -0.8332 C.3     1  UNL1        0.0241
     14 N          -6.7123    0.1941    0.1310 N.3     1  UNL1       -0.2957
     15 C          -8.1303    0.1633   -0.0574 C.3     1  UNL1        0.0120
     16 C          -8.6672   -1.2346    0.0197 C.3     1  UNL1        0.0114
     17 N          -8.0724   -2.1375   -0.9178 N.3     1  UNL1       -0.3029
     18 C          -8.3126   -3.5176   -0.5207 C.3     1  UNL1       -0.0127
     19 C          -6.6669   -1.9409   -1.0701 C.3     1  UNL1        0.0114
     20 C          -6.1886   -1.1282    0.1378 C.3     1  UNL1        0.0120
     21 C          -3.6922    0.2082   -1.2220 C.ar    1  UNL1       -0.0566
     22 C          -2.3413    0.2907   -0.9652 C.ar    1  UNL1       -0.0493
     23 C           2.6325    1.5251    0.8076 C.ar    1  UNL1       -0.0325
     24 C           3.9631    1.7319    1.1667 C.ar    1  UNL1       -0.0132
     25 C           5.0188    0.8921    0.5927 C.ar    1  UNL1       -0.0175
     26 C           4.8361   -0.4691    0.5597 C.ar    1  UNL1       -0.0534
     27 C           5.7639   -1.3121    0.0423 C.ar    1  UNL1       -0.0520
     28 C           6.9409   -0.8145   -0.4757 C.ar    1  UNL1        0.0010
     29 C           7.9875   -1.6909   -1.0521 C.ar    1  UNL1        0.0802
     30 C           9.1749   -1.1708   -1.5729 C.ar    1  UNL1        0.0049
     31 S          10.0132   -2.6799   -2.1050 S.2     1  UNL1       -0.0605
     32 C           8.6585   -3.7724   -1.5545 C.ar    1  UNL1        0.1561
     33 N           8.8344   -5.1928   -1.7628 N.pl3   1  UNL1       -0.3375
     34 N           7.8811   -2.9874   -1.1149 N.ar    1  UNL1       -0.2252
     35 C           7.1197    0.5504   -0.4405 C.ar    1  UNL1       -0.0520
     36 C           6.1819    1.4123    0.0832 C.ar    1  UNL1       -0.0534
     37 H           5.6352    3.3107    3.5822 H       1  UNL1        0.0278
     38 H           6.0667    3.9348    1.9853 H       1  UNL1        0.0278
     39 H           6.3765    2.1634    2.4595 H       1  UNL1        0.0278
     40 H           3.5112    4.3040    3.2935 H       1  UNL1        0.0621
     41 H           1.2224    3.9504    2.6774 H       1  UNL1        0.0636
     42 H          -0.4047    2.8421    1.5172 H       1  UNL1        0.1551
     43 H          -2.3642    2.7868    1.2430 H       1  UNL1        0.0625
     44 H          -4.7598    2.6490    0.7948 H       1  UNL1        0.0621
     45 H          -6.4561    2.0766   -0.7378 H       1  UNL1        0.0476
     46 H          -6.2792    0.6998   -1.8687 H       1  UNL1        0.0476
     47 H          -8.6370    0.7531    0.7523 H       1  UNL1        0.0439
     48 H          -8.3850    0.6682   -1.0120 H       1  UNL1        0.0439
     49 H          -9.7813   -1.2308   -0.1844 H       1  UNL1        0.0439
     50 H          -8.5412   -1.6087    1.0630 H       1  UNL1        0.0439
     51 H          -8.0880   -3.6192    0.5796 H       1  UNL1        0.0391
     52 H          -9.4066   -3.7043   -0.6560 H       1  UNL1        0.0391
     53 H          -7.6822   -4.2364   -1.0494 H       1  UNL1        0.0391
     54 H          -6.4333   -1.3679   -1.9932 H       1  UNL1        0.0439
     55 H          -6.0804   -2.8878   -1.0514 H       1  UNL1        0.0439
     56 H          -5.0856   -1.2091    0.1416 H       1  UNL1        0.0439
     57 H          -6.5273   -1.6505    1.0641 H       1  UNL1        0.0439
     58 H          -4.0969   -0.5264   -1.9293 H       1  UNL1        0.0621
     59 H          -1.6647   -0.3980   -1.4834 H       1  UNL1        0.0625
     60 H           2.4131    0.7291    0.1004 H       1  UNL1        0.0642
     61 H           3.9136   -0.9206    0.9598 H       1  UNL1        0.0624
     62 H           5.6294   -2.4049    0.0103 H       1  UNL1        0.0624
     63 H           9.5586   -0.1174   -1.6636 H       1  UNL1        0.0716
     64 H           9.7458   -5.6443   -1.5916 H       1  UNL1        0.1442
     65 H           8.0332   -5.7221   -2.0808 H       1  UNL1        0.1442
     66 H           8.0527    0.9835   -0.8475 H       1  UNL1        0.0624
     67 H           6.3639    2.5005    0.0901 H       1  UNL1        0.0624
@<TRIPOS>BOND
     1     1     2    1
     2     2     3   ar
     3     3     4   ar
     4     4     5   ar
     5     5     6    1
     6     6     7   am
     7     7     8    2
     8     7     9    1
     9     9    10   ar
    10    10    11   ar
    11    11    12   ar
    12    12    13    1
    13    13    14    1
    14    14    15    1
    15    15    16    1
    16    16    17    1
    17    17    18    1
    18    17    19    1
    19    19    20    1
    20    12    21   ar
    21    21    22   ar
    22     5    23   ar
    23    23    24   ar
    24    24    25    1
    25    25    26   ar
    26    26    27   ar
    27    27    28   ar
    28    28    29    1
    29    29    30   ar
    30    30    31   ar
    31    31    32   ar
    32    32    33    1
    33    32    34   ar
    34    28    35   ar
    35    35    36   ar
    36    24     2   ar
    37    36    25   ar
    38    22     9   ar
    39    34    29   ar
    40    20    14    1
    41     1    37    1
    42     1    38    1
    43     1    39    1
    44     3    40    1
    45     4    41    1
    46     6    42    1
    47    10    43    1
    48    11    44    1
    49    13    45    1
    50    13    46    1
    51    15    47    1
    52    15    48    1
    53    16    49    1
    54    16    50    1
    55    18    51    1
    56    18    52    1
    57    18    53    1
    58    19    54    1
    59    19    55    1
    60    20    56    1
    61    20    57    1
    62    21    58    1
    63    22    59    1
    64    23    60    1
    65    26    61    1
    66    27    62    1
    67    30    63    1
    68    33    64    1
    69    33    65    1
    70    35    66    1
    71    36    67    1
