@<TRIPOS>MOLECULE
*****
 30 32 0 0 0
SMALL
GASTEIGER

@<TRIPOS>ATOM
      1 O          -1.0857    2.8778    1.2797 O.2     1  UNL1       -0.2869
      2 C          -0.7151    1.7815    0.7938 C.ar    1  UNL1        0.1967
      3 C           0.6335    1.4757    0.7661 C.ar    1  UNL1        0.0288
      4 C           1.0070    0.2709    0.2292 C.ar    1  UNL1        0.1392
      5 C           2.4040   -0.1523    0.1501 C.ar    1  UNL1        0.0174
      6 C           2.7338   -1.3918   -0.4069 C.ar    1  UNL1       -0.0511
      7 C           4.0405   -1.8082   -0.4906 C.ar    1  UNL1       -0.0611
      8 C           5.0888   -1.0373   -0.0357 C.ar    1  UNL1       -0.0617
      9 C           4.7862    0.1878    0.5169 C.ar    1  UNL1       -0.0611
     10 C           3.4569    0.6018    0.5975 C.ar    1  UNL1       -0.0511
     11 O           0.0980   -0.5715   -0.2474 O.2     1  UNL1       -0.4544
     12 C          -1.1873   -0.3420   -0.2501 C.ar    1  UNL1        0.1465
     13 C          -2.0732   -1.2715   -0.7659 C.ar    1  UNL1        0.0268
     14 C          -3.4162   -0.9614   -0.7356 C.ar    1  UNL1        0.1655
     15 O          -4.3345   -1.8704   -1.2444 O.3     1  UNL1       -0.5031
     16 C          -3.8907    0.2245   -0.2164 C.ar    1  UNL1        0.2015
     17 O          -5.2418    0.5417   -0.1834 O.3     1  UNL1       -0.5009
     18 C          -2.9673    1.1214    0.2872 C.ar    1  UNL1        0.1766
     19 O          -3.3584    2.3429    0.8304 O.3     1  UNL1       -0.5027
     20 C          -1.5997    0.8613    0.2826 C.ar    1  UNL1        0.1091
     21 H           1.3793    2.1720    1.1595 H       1  UNL1        0.0693
     22 H           1.9298   -2.0223   -0.7743 H       1  UNL1        0.0625
     23 H           4.2927   -2.7857   -0.9306 H       1  UNL1        0.0618
     24 H           6.1245   -1.3857   -0.1107 H       1  UNL1        0.0618
     25 H           5.5910    0.8123    0.8815 H       1  UNL1        0.0618
     26 H           3.2703    1.5856    1.0461 H       1  UNL1        0.0625
     27 H          -1.7452   -2.2114   -1.1815 H       1  UNL1        0.0692
     28 H          -5.2532   -1.9754   -0.8304 H       1  UNL1        0.2923
     29 H          -5.8358    0.0975    0.5240 H       1  UNL1        0.2924
     30 H          -4.1323    2.8324    0.3669 H       1  UNL1        0.2923
@<TRIPOS>BOND
     1     1     2    2
     2     2     3   ar
     3     3     4   ar
     4     4     5    1
     5     5     6   ar
     6     6     7   ar
     7     7     8   ar
     8     8     9   ar
     9     9    10   ar
    10     4    11   ar
    11    11    12   ar
    12    12    13   ar
    13    13    14   ar
    14    14    15    1
    15    14    16   ar
    16    16    17    1
    17    16    18   ar
    18    18    19    1
    19    18    20   ar
    20    20     2   ar
    21    10     5   ar
    22    20    12   ar
    23     3    21    1
    24     6    22    1
    25     7    23    1
    26     8    24    1
    27     9    25    1
    28    10    26    1
    29    13    27    1
    30    15    28    1
    31    17    29    1
    32    19    30    1
