@<TRIPOS>MOLECULE
*****
 56 60 0 0 0
SMALL
GASTEIGER

@<TRIPOS>ATOM
      1 C           5.3838    2.3438   -3.7764 C.3     1  UNL1        0.0789
      2 O           4.1313    1.7396   -3.5941 O.3     1  UNL1       -0.4922
      3 C           3.1110    2.2916   -2.8346 C.ar    1  UNL1        0.1560
      4 C           3.2402    3.4982   -2.1825 C.ar    1  UNL1       -0.0150
      5 C           2.1910    4.0129   -1.4322 C.ar    1  UNL1       -0.0302
      6 C           0.9854    3.3265   -1.3190 C.ar    1  UNL1        0.1012
      7 N          -0.0768    3.8997   -0.5547 N.ar    1  UNL1       -0.1495
      8 N          -0.6613    3.4464    0.5280 N.ar    1  UNL1       -0.1556
      9 C          -1.6238    4.2852    0.9484 C.ar    1  UNL1        0.0697
     10 C          -1.6421    5.3407    0.0630 C.ar    1  UNL1        0.0697
     11 N          -0.6863    5.0654   -0.8338 N.ar    1  UNL1       -0.1556
     12 C           0.8717    2.1293   -1.9710 C.ar    1  UNL1        0.1027
     13 C          -0.3592    1.3746   -1.8811 C.2     1  UNL1        0.2520
     14 O          -1.4063    1.8294   -2.4087 O.2     1  UNL1       -0.2698
     15 N          -0.4064    0.1103   -1.2028 N.am    1  UNL1       -0.2897
     16 C           0.7741   -0.4190   -0.5628 C.3     1  UNL1        0.0388
     17 C           0.9778   -1.8667   -1.0412 C.3     1  UNL1        0.0635
     18 O          -0.1728   -2.6071   -0.7701 O.3     1  UNL1       -0.3764
     19 C          -1.2689   -2.1597   -1.4781 C.3     1  UNL1        0.0666
     20 C          -1.5941   -0.6845   -1.1854 C.3     1  UNL1        0.0537
     21 C          -2.5229   -0.5429   -0.0431 C.3     1  UNL1       -0.0068
     22 C          -2.0236   -0.8502    1.2896 C.ar    1  UNL1       -0.0435
     23 C          -1.5450    0.1378    2.1106 C.ar    1  UNL1       -0.0584
     24 C          -1.0604   -0.1473    3.3920 C.ar    1  UNL1       -0.0594
     25 C          -1.0715   -1.4373    3.8162 C.ar    1  UNL1       -0.0345
     26 C          -1.5467   -2.4832    3.0237 C.ar    1  UNL1        0.0864
     27 N          -1.5498   -3.8217    3.4827 N.ar    1  UNL1       -0.1503
     28 N          -2.5141   -4.3670    4.1942 N.ar    1  UNL1       -0.1556
     29 C          -2.2118   -5.6470    4.4685 C.ar    1  UNL1        0.0697
     30 C          -0.9898   -5.8905    3.8871 C.ar    1  UNL1        0.0697
     31 N          -0.6222   -4.7389    3.2923 N.ar    1  UNL1       -0.1556
     32 C          -2.0173   -2.1457    1.7591 C.ar    1  UNL1       -0.0313
     33 C           1.9249    1.6033   -2.7310 C.ar    1  UNL1        0.1789
     34 F           1.7879    0.4091   -3.3942 F       1  UNL1       -0.2008
     35 H           5.2208    3.4335   -3.9159 H       1  UNL1        0.0660
     36 H           5.9273    1.9089   -4.6625 H       1  UNL1        0.0660
     37 H           6.0723    2.2090   -2.9137 H       1  UNL1        0.0660
     38 H           4.1759    4.0268   -2.2724 H       1  UNL1        0.0656
     39 H           2.2949    4.9693   -0.9161 H       1  UNL1        0.0641
     40 H          -2.2796    4.1939    1.8053 H       1  UNL1        0.0864
     41 H          -2.2800    6.2267    0.0596 H       1  UNL1        0.0864
     42 H           1.6852    0.1433   -0.7687 H       1  UNL1        0.0487
     43 H           0.7016   -0.4989    0.5394 H       1  UNL1        0.0487
     44 H           1.8142   -2.3047   -0.4569 H       1  UNL1        0.0575
     45 H           1.2813   -1.9015   -2.1057 H       1  UNL1        0.0575
     46 H          -1.1308   -2.2925   -2.5910 H       1  UNL1        0.0578
     47 H          -2.1462   -2.7587   -1.2149 H       1  UNL1        0.0578
     48 H          -2.1928   -0.3761   -2.1075 H       1  UNL1        0.0526
     49 H          -3.3989   -1.2118   -0.2367 H       1  UNL1        0.0332
     50 H          -2.9578    0.4985   -0.1090 H       1  UNL1        0.0332
     51 H          -1.5068    1.1807    1.8416 H       1  UNL1        0.0620
     52 H          -0.6891    0.6173    4.0300 H       1  UNL1        0.0618
     53 H          -0.7100   -1.7398    4.8059 H       1  UNL1        0.0639
     54 H          -2.8311   -6.3398    5.0432 H       1  UNL1        0.0864
     55 H          -0.4705   -6.8379    3.9292 H       1  UNL1        0.0864
     56 H          -2.3861   -2.9885    1.1576 H       1  UNL1        0.0642
@<TRIPOS>BOND
     1     1     2    1
     2     2     3    1
     3     3     4   ar
     4     4     5   ar
     5     5     6   ar
     6     6     7    1
     7     7     8   ar
     8     8     9   ar
     9     9    10   ar
    10    10    11   ar
    11     6    12   ar
    12    12    13    1
    13    13    14    2
    14    13    15   am
    15    15    16    1
    16    16    17    1
    17    17    18    1
    18    18    19    1
    19    19    20    1
    20    20    21    1
    21    21    22    1
    22    22    23   ar
    23    23    24   ar
    24    24    25   ar
    25    25    26   ar
    26    26    27    1
    27    27    28   ar
    28    28    29   ar
    29    29    30   ar
    30    30    31   ar
    31    26    32   ar
    32    12    33   ar
    33    33    34    1
    34    33     3   ar
    35    11     7   ar
    36    20    15    1
    37    32    22   ar
    38    31    27   ar
    39     1    35    1
    40     1    36    1
    41     1    37    1
    42     4    38    1
    43     5    39    1
    44     9    40    1
    45    10    41    1
    46    16    42    1
    47    16    43    1
    48    17    44    1
    49    17    45    1
    50    19    46    1
    51    19    47    1
    52    20    48    1
    53    21    49    1
    54    21    50    1
    55    23    51    1
    56    24    52    1
    57    25    53    1
    58    29    54    1
    59    30    55    1
    60    32    56    1
