@<TRIPOS>MOLECULE
*****
 18 17 0 0 0
SMALL
GASTEIGER

@<TRIPOS>ATOM
      1 C          -0.1880   -1.5320   -0.7681 C.3     1  UNL1        0.0566
      2 N          -0.2659   -0.3375    0.0606 N.pl3   1  UNL1       -0.2549
      3 C           0.6423   -0.3062    1.1868 C.3     1  UNL1        0.1635
      4 C           2.0647   -0.1750    0.7063 C.2     1  UNL1        0.3391
      5 O           2.3752   -0.0232   -0.6633 O.3     1  UNL1       -0.4784
      6 O           3.0614   -0.1920    1.4961 O.2     1  UNL1       -0.2474
      7 C          -1.2386    0.6426   -0.3652 C.cat   1  UNL1        0.3788
      8 N          -1.9638    1.4508    0.5548 N.pl3   1  UNL1       -0.2891
      9 N          -1.4466    0.7810   -1.6270 N.pl3   1  UNL1       -0.1296
     10 H          -0.1234   -1.1622   -1.8308 H       1  UNL1        0.0620
     11 H           0.6702   -2.1728   -0.5210 H       1  UNL1        0.0620
     12 H          -1.1584   -2.0694   -0.7096 H       1  UNL1        0.0620
     13 H           0.5478   -1.1472    1.8799 H       1  UNL1        0.0775
     14 H           0.4366    0.6275    1.7595 H       1  UNL1        0.0775
     15 H           3.1977    0.5581   -0.8772 H       1  UNL1        0.2952
     16 H          -2.3239    1.1718    1.4907 H       1  UNL1        0.2547
     17 H          -2.1837    2.4526    0.3006 H       1  UNL1        0.2547
     18 H          -2.1035    1.4331   -2.0730 H       1  UNL1        0.3062
@<TRIPOS>BOND
     1     1     2    1
     2     2     3    1
     3     3     4    1
     4     4     5    1
     5     4     6    2
     6     2     7    1
     7     7     8    1
     8     7     9    2
     9     1    10    1
    10     1    11    1
    11     1    12    1
    12     3    13    1
    13     3    14    1
    14     5    15    1
    15     8    16    1
    16     8    17    1
    17     9    18    1
