
     RDKit          3D

 46 50  0  0  0  0  0  0  0  0999 V2000
   -5.6590    3.2832    0.6309 C   0  0  0  0  0  0  0  0  0  0  0  0
   -5.9968    2.0375    0.0677 O   0  0  0  0  0  0  0  0  0  0  0  0
   -5.0143    1.0284    0.1296 C   0  0  0  0  0  0  0  0  0  0  0  0
   -3.7834    1.2435    0.7105 C   0  0  0  0  0  0  0  0  0  0  0  0
   -2.8330    0.3026    0.7825 N   0  0  0  0  0  0  0  0  0  0  0  0
   -3.0424   -0.9467    0.2710 C   0  0  0  0  0  0  0  0  0  0  0  0
   -2.0330   -1.9041    0.3615 C   0  0  0  0  0  0  0  0  0  0  0  0
   -0.8350   -1.5674    0.9945 N   0  0  0  0  0  0  0  0  0  0  0  0
    0.3273   -2.4195    1.1615 C   0  0  0  0  0  0  0  0  0  0  0  0
    1.0373   -2.6142   -0.1158 C   0  0  0  0  0  0  0  0  0  0  0  0
    0.9215   -3.5531   -1.0529 N   0  0  0  0  0  0  0  0  0  0  0  0
    1.7601   -3.3516   -2.0524 N   0  0  0  0  0  0  0  0  0  0  0  0
    2.4670   -2.2250   -1.7655 C   0  0  0  0  0  0  0  0  0  0  0  0
    3.4645   -1.5385   -2.4270 C   0  0  0  0  0  0  0  0  0  0  0  0
    3.9544   -0.3929   -1.7976 C   0  0  0  0  0  0  0  0  0  0  0  0
    3.4874    0.0515   -0.5841 C   0  0  0  0  0  0  0  0  0  0  0  0
    3.9980    1.2504    0.0776 C   0  0  0  0  0  0  0  0  0  0  0  0
    4.9842    2.0503   -0.4331 C   0  0  0  0  0  0  0  0  0  0  0  0
    5.4511    3.1827    0.2148 C   0  0  0  0  0  0  0  0  0  0  0  0
    6.4236    3.9615   -0.3005 F   0  0  0  0  0  0  0  0  0  0  0  0
    4.9088    3.5340    1.4296 C   0  0  0  0  0  0  0  0  0  0  0  0
    3.9132    2.7506    1.9737 C   0  0  0  0  0  0  0  0  0  0  0  0
    3.3811    3.1085    3.1811 F   0  0  0  0  0  0  0  0  0  0  0  0
    3.4620    1.6144    1.2981 C   0  0  0  0  0  0  0  0  0  0  0  0
    2.5094   -0.6903   -0.0168 N   0  0  0  0  0  0  0  0  0  0  0  0
    2.0186   -1.7814   -0.5805 N   0  0  0  0  0  0  0  0  0  0  0  0
   -2.3138   -3.1402   -0.1743 C   0  0  0  0  0  0  0  0  0  0  0  0
   -3.5515   -3.3771   -0.7659 C   0  0  0  0  0  0  0  0  0  0  0  0
   -4.4936   -2.4264   -0.8312 N   0  0  0  0  0  0  0  0  0  0  0  0
   -4.2482   -1.1946   -0.3107 C   0  0  0  0  0  0  0  0  0  0  0  0
   -5.2443   -0.2206   -0.3902 C   0  0  0  0  0  0  0  0  0  0  0  0
   -5.3062    3.1977    1.6849 H   0  0  0  0  0  0  0  0  0  0  0  0
   -4.7775    3.6667    0.0388 H   0  0  0  0  0  0  0  0  0  0  0  0
   -6.4470    4.0341    0.5354 H   0  0  0  0  0  0  0  0  0  0  0  0
   -3.5840    2.2393    1.1316 H   0  0  0  0  0  0  0  0  0  0  0  0
   -0.7629   -0.5756    1.4014 H   0  0  0  0  0  0  0  0  0  0  0  0
    0.0385   -3.4205    1.5722 H   0  0  0  0  0  0  0  0  0  0  0  0
    1.0033   -1.9945    1.9450 H   0  0  0  0  0  0  0  0  0  0  0  0
    3.8256   -1.8852   -3.3689 H   0  0  0  0  0  0  0  0  0  0  0  0
    4.7369    0.1626   -2.2963 H   0  0  0  0  0  0  0  0  0  0  0  0
    5.4373    1.8125   -1.3822 H   0  0  0  0  0  0  0  0  0  0  0  0
    5.2876    4.4322    1.9311 H   0  0  0  0  0  0  0  0  0  0  0  0
    2.6788    1.0089    1.7389 H   0  0  0  0  0  0  0  0  0  0  0  0
   -1.5895   -3.9367   -0.1310 H   0  0  0  0  0  0  0  0  0  0  0  0
   -3.7767   -4.3420   -1.1872 H   0  0  0  0  0  0  0  0  0  0  0  0
   -6.1850   -0.4552   -0.8581 H   0  0  0  0  0  0  0  0  0  0  0  0
  1  2  1  0
  2  3  1  0
  3  4  2  0
  4  5  1  0
  5  6  2  0
  6  7  1  0
  7  8  1  0
  8  9  1  0
  9 10  1  0
 10 11  2  0
 11 12  1  0
 12 13  2  0
 13 14  1  0
 14 15  2  0
 15 16  1  0
 16 17  1  0
 17 18  2  0
 18 19  1  0
 19 20  1  0
 19 21  2  0
 21 22  1  0
 22 23  1  0
 22 24  2  0
 16 25  2  0
 25 26  1  0
  7 27  2  0
 27 28  1  0
 28 29  2  0
 29 30  1  0
 30 31  2  0
 31  3  1  0
 30  6  1  0
 26 10  1  0
 26 13  1  0
 24 17  1  0
  1 32  1  0
  1 33  1  0
  1 34  1  0
  4 35  1  0
  8 36  1  0
  9 37  1  0
  9 38  1  0
 14 39  1  0
 15 40  1  0
 18 41  1  0
 21 42  1  0
 24 43  1  0
 27 44  1  0
 28 45  1  0
 31 46  1  0
M  END
$$$$
