@<TRIPOS>MOLECULE
*****
 46 50 0 0 0
SMALL
GASTEIGER

@<TRIPOS>ATOM
      1 C          -5.6590    3.2832    0.6309 C.3     1  UNL1        0.0789
      2 O          -5.9968    2.0375    0.0677 O.3     1  UNL1       -0.4935
      3 C          -5.0143    1.0284    0.1296 C.ar    1  UNL1        0.1402
      4 C          -3.7834    1.2435    0.7105 C.ar    1  UNL1        0.0701
      5 N          -2.8330    0.3026    0.7825 N.ar    1  UNL1       -0.2480
      6 C          -3.0424   -0.9467    0.2710 C.ar    1  UNL1        0.1101
      7 C          -2.0330   -1.9041    0.3615 C.ar    1  UNL1        0.0567
      8 N          -0.8350   -1.5674    0.9945 N.pl3   1  UNL1       -0.3349
      9 C           0.3273   -2.4195    1.1615 C.3     1  UNL1        0.0710
     10 C           1.0373   -2.6142   -0.1158 C.ar    1  UNL1        0.1719
     11 N           0.9215   -3.5531   -1.0529 N.ar    1  UNL1       -0.1306
     12 N           1.7601   -3.3516   -2.0524 N.ar    1  UNL1       -0.1279
     13 C           2.4670   -2.2250   -1.7655 C.ar    1  UNL1        0.1780
     14 C           3.4645   -1.5385   -2.4270 C.ar    1  UNL1       -0.0136
     15 C           3.9544   -0.3929   -1.7976 C.ar    1  UNL1       -0.0305
     16 C           3.4874    0.0515   -0.5841 C.ar    1  UNL1        0.0921
     17 C           3.9980    1.2504    0.0776 C.ar    1  UNL1        0.0075
     18 C           4.9842    2.0503   -0.4331 C.ar    1  UNL1       -0.0170
     19 C           5.4511    3.1827    0.2148 C.ar    1  UNL1        0.1267
     20 F           6.4236    3.9615   -0.3005 F       1  UNL1       -0.2054
     21 C           4.9088    3.5340    1.4296 C.ar    1  UNL1        0.0088
     22 C           3.9132    2.7506    1.9737 C.ar    1  UNL1        0.1267
     23 F           3.3811    3.1085    3.1811 F       1  UNL1       -0.2054
     24 C           3.4620    1.6144    1.2981 C.ar    1  UNL1       -0.0170
     25 N           2.5094   -0.6903   -0.0168 N.ar    1  UNL1       -0.1633
     26 N           2.0186   -1.7814   -0.5805 N.ar    1  UNL1       -0.1949
     27 C          -2.3138   -3.1402   -0.1743 C.ar    1  UNL1       -0.0206
     28 C          -3.5515   -3.3771   -0.7659 C.ar    1  UNL1        0.0301
     29 N          -4.4936   -2.4264   -0.8312 N.ar    1  UNL1       -0.2532
     30 C          -4.2482   -1.1946   -0.3107 C.ar    1  UNL1        0.0944
     31 C          -5.2443   -0.2206   -0.3902 C.ar    1  UNL1        0.0091
     32 H          -5.3062    3.1977    1.6849 H       1  UNL1        0.0660
     33 H          -4.7775    3.6667    0.0388 H       1  UNL1        0.0660
     34 H          -6.4470    4.0341    0.5354 H       1  UNL1        0.0660
     35 H          -3.5840    2.2393    1.1316 H       1  UNL1        0.0867
     36 H          -0.7629   -0.5756    1.4014 H       1  UNL1        0.1466
     37 H           0.0385   -3.4205    1.5722 H       1  UNL1        0.0543
     38 H           1.0033   -1.9945    1.9450 H       1  UNL1        0.0543
     39 H           3.8256   -1.8852   -3.3689 H       1  UNL1        0.0656
     40 H           4.7369    0.1626   -2.2963 H       1  UNL1        0.0641
     41 H           5.4373    1.8125   -1.3822 H       1  UNL1        0.0653
     42 H           5.2876    4.4322    1.9311 H       1  UNL1        0.0675
     43 H           2.6788    1.0089    1.7389 H       1  UNL1        0.0653
     44 H          -1.5895   -3.9367   -0.1310 H       1  UNL1        0.0652
     45 H          -3.7767   -4.3420   -1.1872 H       1  UNL1        0.0830
     46 H          -6.1850   -0.4552   -0.8581 H       1  UNL1        0.0677
@<TRIPOS>BOND
     1     1     2    1
     2     2     3    1
     3     3     4   ar
     4     4     5   ar
     5     5     6   ar
     6     6     7   ar
     7     7     8    1
     8     8     9    1
     9     9    10    1
    10    10    11   ar
    11    11    12   ar
    12    12    13   ar
    13    13    14   ar
    14    14    15   ar
    15    15    16   ar
    16    16    17    1
    17    17    18   ar
    18    18    19   ar
    19    19    20    1
    20    19    21   ar
    21    21    22   ar
    22    22    23    1
    23    22    24   ar
    24    16    25   ar
    25    25    26   ar
    26     7    27   ar
    27    27    28   ar
    28    28    29   ar
    29    29    30   ar
    30    30    31   ar
    31    31     3   ar
    32    30     6   ar
    33    26    10   ar
    34    26    13   ar
    35    24    17   ar
    36     1    32    1
    37     1    33    1
    38     1    34    1
    39     4    35    1
    40     8    36    1
    41     9    37    1
    42     9    38    1
    43    14    39    1
    44    15    40    1
    45    18    41    1
    46    21    42    1
    47    24    43    1
    48    27    44    1
    49    28    45    1
    50    31    46    1
