@<TRIPOS>MOLECULE
*****
 50 52 0 0 0
SMALL
GASTEIGER

@<TRIPOS>ATOM
      1 N          -4.4753   -0.5664    0.2456 N.1     1  UNL1       -0.1909
      2 C          -4.2203    0.4197    0.8704 C.1     1  UNL1        0.0996
      3 C          -3.9135    1.5666    1.5902 C.ar    1  UNL1        0.0597
      4 C          -4.9151    2.3733    2.1582 C.ar    1  UNL1       -0.0439
      5 C          -4.5516    3.4798    2.8666 C.ar    1  UNL1       -0.0605
      6 C          -3.2372    3.8237    3.0369 C.ar    1  UNL1       -0.0613
      7 C          -2.2289    3.0428    2.4847 C.ar    1  UNL1       -0.0526
      8 C          -2.5912    1.9274    1.7690 C.ar    1  UNL1        0.0252
      9 C          -1.5097    1.1367    1.1634 C.3     1  UNL1        0.1872
     10 O          -0.5316    0.9268    2.1527 O.3     1  UNL1       -0.3467
     11 C           0.6540    0.8380    1.4597 C.3     1  UNL1        0.0568
     12 C           0.5948   -0.4293    0.5681 C.3     1  UNL1        0.0165
     13 C           1.3092   -0.0127   -0.6835 C.3     1  UNL1       -0.0271
     14 C           1.5401   -0.9758   -1.7255 C.2     1  UNL1       -0.0875
     15 C           2.7236   -1.4004   -2.1213 C.2     1  UNL1       -0.0874
     16 C           4.0276   -1.0489   -1.6588 C.3     1  UNL1       -0.0247
     17 C           4.2916   -0.0456   -0.6140 C.3     1  UNL1        0.0482
     18 C           5.7965    0.0086   -0.3218 C.2     1  UNL1        0.3050
     19 O           6.5590   -0.7526   -0.9345 O.2     1  UNL1       -0.2510
     20 O           6.3060    0.8854    0.6068 O.3     1  UNL1       -0.4806
     21 C          -0.7743   -0.9117    0.4913 C.3     1  UNL1        0.0935
     22 C          -1.0711   -1.9109   -0.5589 C.ar    1  UNL1       -0.0003
     23 C          -1.9035   -1.5278   -1.6205 C.ar    1  UNL1       -0.0532
     24 C          -2.2110   -2.4309   -2.6068 C.ar    1  UNL1       -0.0433
     25 C          -1.7002   -3.6992   -2.5411 C.ar    1  UNL1        0.0276
     26 N          -0.9052   -4.0473   -1.5187 N.ar    1  UNL1       -0.2629
     27 C          -0.5779   -3.1714   -0.5160 C.ar    1  UNL1        0.0332
     28 O          -1.8332    0.0080    0.5137 O.3     1  UNL1       -0.3388
     29 H          -5.9419    2.0718    2.0047 H       1  UNL1        0.0630
     30 H          -5.3597    4.0851    3.2927 H       1  UNL1        0.0618
     31 H          -2.9509    4.7042    3.6018 H       1  UNL1        0.0618
     32 H          -1.2024    3.3527    2.6498 H       1  UNL1        0.0622
     33 H          -1.0127    1.8439    0.4111 H       1  UNL1        0.0965
     34 H           0.7608    1.7501    0.8209 H       1  UNL1        0.0565
     35 H           1.5360    0.8009    2.1100 H       1  UNL1        0.0565
     36 H           1.2054   -1.2188    1.1154 H       1  UNL1        0.0354
     37 H           0.4460    0.6662   -1.1885 H       1  UNL1        0.0312
     38 H           2.0323    0.7981   -0.5199 H       1  UNL1        0.0312
     39 H           0.6855   -1.4193   -2.3059 H       1  UNL1        0.0569
     40 H           2.6585   -2.1701   -2.9757 H       1  UNL1        0.0569
     41 H           4.6710   -1.9728   -1.4383 H       1  UNL1        0.0312
     42 H           4.5933   -0.6541   -2.5880 H       1  UNL1        0.0312
     43 H           4.1196    1.0059   -0.9572 H       1  UNL1        0.0380
     44 H           3.8616   -0.3023    0.3611 H       1  UNL1        0.0380
     45 H           7.2369    1.2743    0.5712 H       1  UNL1        0.2951
     46 H          -0.9688   -1.4959    1.4967 H       1  UNL1        0.0651
     47 H          -2.2763   -0.5207   -1.6110 H       1  UNL1        0.0622
     48 H          -2.8507   -2.1596   -3.4373 H       1  UNL1        0.0633
     49 H          -1.9599   -4.3931   -3.3381 H       1  UNL1        0.0829
     50 H           0.0649   -3.5520    0.2584 H       1  UNL1        0.0833
@<TRIPOS>BOND
     1     1     2    3
     2     2     3    1
     3     3     4   ar
     4     4     5   ar
     5     5     6   ar
     6     6     7   ar
     7     7     8   ar
     8     8     9    1
     9     9    10    1
    10    10    11    1
    11    11    12    1
    12    12    13    1
    13    13    14    1
    14    14    15    2
    15    15    16    1
    16    16    17    1
    17    17    18    1
    18    18    19    2
    19    18    20    1
    20    12    21    1
    21    21    22    1
    22    22    23   ar
    23    23    24   ar
    24    24    25   ar
    25    25    26   ar
    26    26    27   ar
    27    21    28    1
    28     8     3   ar
    29    28     9    1
    30    27    22   ar
    31     4    29    1
    32     5    30    1
    33     6    31    1
    34     7    32    1
    35     9    33    1
    36    11    34    1
    37    11    35    1
    38    12    36    1
    39    13    37    1
    40    13    38    1
    41    14    39    1
    42    15    40    1
    43    16    41    1
    44    16    42    1
    45    17    43    1
    46    17    44    1
    47    20    45    1
    48    21    46    1
    49    23    47    1
    50    24    48    1
    51    25    49    1
    52    27    50    1
