
     RDKit          3D

 50 52  0  0  0  0  0  0  0  0999 V2000
   -4.4753   -0.5664    0.2456 N   0  0  0  0  0  0  0  0  0  0  0  0
   -4.2203    0.4197    0.8704 C   0  0  0  0  0  0  0  0  0  0  0  0
   -3.9135    1.5666    1.5902 C   0  0  0  0  0  0  0  0  0  0  0  0
   -4.9151    2.3733    2.1582 C   0  0  0  0  0  0  0  0  0  0  0  0
   -4.5516    3.4798    2.8666 C   0  0  0  0  0  0  0  0  0  0  0  0
   -3.2372    3.8237    3.0369 C   0  0  0  0  0  0  0  0  0  0  0  0
   -2.2289    3.0428    2.4847 C   0  0  0  0  0  0  0  0  0  0  0  0
   -2.5912    1.9274    1.7690 C   0  0  0  0  0  0  0  0  0  0  0  0
   -1.5097    1.1367    1.1634 C   0  0  0  0  0  0  0  0  0  0  0  0
   -0.5316    0.9268    2.1527 O   0  0  0  0  0  0  0  0  0  0  0  0
    0.6540    0.8380    1.4597 C   0  0  0  0  0  0  0  0  0  0  0  0
    0.5948   -0.4293    0.5681 C   0  0  0  0  0  0  0  0  0  0  0  0
    1.3092   -0.0127   -0.6835 C   0  0  0  0  0  0  0  0  0  0  0  0
    1.5401   -0.9758   -1.7255 C   0  0  0  0  0  0  0  0  0  0  0  0
    2.7236   -1.4004   -2.1213 C   0  0  0  0  0  0  0  0  0  0  0  0
    4.0276   -1.0489   -1.6588 C   0  0  0  0  0  0  0  0  0  0  0  0
    4.2916   -0.0456   -0.6140 C   0  0  0  0  0  0  0  0  0  0  0  0
    5.7965    0.0086   -0.3218 C   0  0  0  0  0  0  0  0  0  0  0  0
    6.5590   -0.7526   -0.9345 O   0  0  0  0  0  0  0  0  0  0  0  0
    6.3060    0.8854    0.6068 O   0  0  0  0  0  0  0  0  0  0  0  0
   -0.7743   -0.9117    0.4913 C   0  0  0  0  0  0  0  0  0  0  0  0
   -1.0711   -1.9109   -0.5589 C   0  0  0  0  0  0  0  0  0  0  0  0
   -1.9035   -1.5278   -1.6205 C   0  0  0  0  0  0  0  0  0  0  0  0
   -2.2110   -2.4309   -2.6068 C   0  0  0  0  0  0  0  0  0  0  0  0
   -1.7002   -3.6992   -2.5411 C   0  0  0  0  0  0  0  0  0  0  0  0
   -0.9052   -4.0473   -1.5187 N   0  0  0  0  0  0  0  0  0  0  0  0
   -0.5779   -3.1714   -0.5160 C   0  0  0  0  0  0  0  0  0  0  0  0
   -1.8332    0.0080    0.5137 O   0  0  0  0  0  0  0  0  0  0  0  0
   -5.9419    2.0718    2.0047 H   0  0  0  0  0  0  0  0  0  0  0  0
   -5.3597    4.0851    3.2927 H   0  0  0  0  0  0  0  0  0  0  0  0
   -2.9509    4.7042    3.6018 H   0  0  0  0  0  0  0  0  0  0  0  0
   -1.2024    3.3527    2.6498 H   0  0  0  0  0  0  0  0  0  0  0  0
   -1.0127    1.8439    0.4111 H   0  0  0  0  0  0  0  0  0  0  0  0
    0.7608    1.7501    0.8209 H   0  0  0  0  0  0  0  0  0  0  0  0
    1.5360    0.8009    2.1100 H   0  0  0  0  0  0  0  0  0  0  0  0
    1.2054   -1.2188    1.1154 H   0  0  0  0  0  0  0  0  0  0  0  0
    0.4460    0.6662   -1.1885 H   0  0  0  0  0  0  0  0  0  0  0  0
    2.0323    0.7981   -0.5199 H   0  0  0  0  0  0  0  0  0  0  0  0
    0.6855   -1.4193   -2.3059 H   0  0  0  0  0  0  0  0  0  0  0  0
    2.6585   -2.1701   -2.9757 H   0  0  0  0  0  0  0  0  0  0  0  0
    4.6710   -1.9728   -1.4383 H   0  0  0  0  0  0  0  0  0  0  0  0
    4.5933   -0.6541   -2.5880 H   0  0  0  0  0  0  0  0  0  0  0  0
    4.1196    1.0059   -0.9572 H   0  0  0  0  0  0  0  0  0  0  0  0
    3.8616   -0.3023    0.3611 H   0  0  0  0  0  0  0  0  0  0  0  0
    7.2369    1.2743    0.5712 H   0  0  0  0  0  0  0  0  0  0  0  0
   -0.9688   -1.4959    1.4967 H   0  0  0  0  0  0  0  0  0  0  0  0
   -2.2763   -0.5207   -1.6110 H   0  0  0  0  0  0  0  0  0  0  0  0
   -2.8507   -2.1596   -3.4373 H   0  0  0  0  0  0  0  0  0  0  0  0
   -1.9599   -4.3931   -3.3381 H   0  0  0  0  0  0  0  0  0  0  0  0
    0.0649   -3.5520    0.2584 H   0  0  0  0  0  0  0  0  0  0  0  0
  1  2  3  0
  2  3  1  0
  3  4  2  0
  4  5  1  0
  5  6  2  0
  6  7  1  0
  7  8  2  0
  8  9  1  0
  9 10  1  0
 10 11  1  0
 11 12  1  0
 12 13  1  0
 13 14  1  0
 14 15  2  0
 15 16  1  0
 16 17  1  0
 17 18  1  0
 18 19  2  0
 18 20  1  0
 12 21  1  0
 21 22  1  0
 22 23  2  0
 23 24  1  0
 24 25  2  0
 25 26  1  0
 26 27  2  0
 21 28  1  0
  8  3  1  0
 28  9  1  0
 27 22  1  0
  4 29  1  0
  5 30  1  0
  6 31  1  0
  7 32  1  0
  9 33  1  0
 11 34  1  0
 11 35  1  0
 12 36  1  0
 13 37  1  0
 13 38  1  0
 14 39  1  0
 15 40  1  0
 16 41  1  0
 16 42  1  0
 17 43  1  0
 17 44  1  0
 20 45  1  0
 21 46  1  0
 23 47  1  0
 24 48  1  0
 25 49  1  0
 27 50  1  0
M  END
$$$$
