@<TRIPOS>MOLECULE
*****
 64 67 0 0 0
SMALL
GASTEIGER

@<TRIPOS>ATOM
      1 C           9.4515   -1.7507   -0.0993 C.3     1  UNL1       -0.0306
      2 C           9.3040   -0.3819   -0.7035 C.3     1  UNL1        0.0897
      3 O           8.0667   -0.1822   -1.3489 O.3     1  UNL1       -0.4638
      4 C           6.8844   -0.3004   -0.6235 C.2     1  UNL1        0.3242
      5 O           7.0001   -0.5859    0.5894 O.2     1  UNL1       -0.2491
      6 C           5.5577   -0.1103   -1.2019 C.3     1  UNL1        0.1056
      7 C           5.4572    1.1455   -2.0397 C.3     1  UNL1       -0.0391
      8 N           4.5277   -0.2329   -0.2221 N.3     1  UNL1       -0.2854
      9 C           4.5684    0.7246    0.8344 C.3     1  UNL1        0.0232
     10 C           3.1980    0.9146    1.4433 C.3     1  UNL1        0.0610
     11 O           2.4403   -0.2471    1.3951 O.3     1  UNL1       -0.3707
     12 C           2.1007   -0.5946    0.0878 C.3     1  UNL1        0.1053
     13 C           0.8098    0.0945   -0.3392 C.3     1  UNL1        0.1170
     14 O          -0.2573   -0.2763    0.4965 O.3     1  UNL1       -0.4856
     15 C          -1.5479    0.2090    0.3416 C.ar    1  UNL1        0.1641
     16 C          -1.8698    1.1041   -0.6629 C.ar    1  UNL1        0.0098
     17 C          -3.1481    1.5980   -0.8321 C.ar    1  UNL1        0.0797
     18 N          -3.4696    2.4673   -1.8030 N.ar    1  UNL1       -0.2352
     19 C          -4.7048    2.9646   -1.9898 C.ar    1  UNL1        0.1187
     20 N          -5.7011    2.5701   -1.1488 N.ar    1  UNL1       -0.2200
     21 C          -5.4518    1.7036   -0.1560 C.ar    1  UNL1        0.1340
     22 N          -6.4856    1.2959    0.7194 N.pl3   1  UNL1       -0.2988
     23 C          -7.3107    0.1762    0.4577 C.ar    1  UNL1        0.0339
     24 C          -8.3022   -0.2052    1.3301 C.ar    1  UNL1       -0.0390
     25 C          -9.1227   -1.2960    1.0946 C.ar    1  UNL1       -0.0402
     26 C          -8.9646   -2.0486   -0.0489 C.ar    1  UNL1        0.0594
     27 CL         -9.9924   -3.4354   -0.3689 Cl      1  UNL1       -0.0820
     28 C          -7.9665   -1.6630   -0.9250 C.ar    1  UNL1        0.0610
     29 CL         -7.7827   -2.6427   -2.3841 Cl      1  UNL1       -0.0820
     30 C          -7.1474   -0.5790   -0.6961 C.ar    1  UNL1       -0.0207
     31 C          -4.1764    1.2084    0.0140 C.ar    1  UNL1        0.0441
     32 C          -3.8437    0.3071    1.0223 C.ar    1  UNL1       -0.0038
     33 C          -2.5666   -0.1772    1.1798 C.ar    1  UNL1        0.1623
     34 O          -2.2867   -1.0698    2.1955 O.3     1  UNL1       -0.4914
     35 C          -3.3210   -1.4802    3.0689 C.3     1  UNL1        0.0790
     36 C           3.2168   -0.3426   -0.8642 C.3     1  UNL1        0.0293
     37 H           9.4002   -1.7214    1.0153 H       1  UNL1        0.0262
     38 H           8.6601   -2.4521   -0.4143 H       1  UNL1        0.0262
     39 H          10.4193   -2.2178   -0.3887 H       1  UNL1        0.0262
     40 H           9.4801    0.3678    0.1119 H       1  UNL1        0.0694
     41 H          10.1361   -0.2340   -1.4506 H       1  UNL1        0.0694
     42 H           5.4080   -0.9596   -1.9314 H       1  UNL1        0.0575
     43 H           4.6110    1.0276   -2.7315 H       1  UNL1        0.0250
     44 H           6.3734    1.1568   -2.6891 H       1  UNL1        0.0250
     45 H           5.4471    2.0658   -1.4454 H       1  UNL1        0.0250
     46 H           4.9714    1.7032    0.5073 H       1  UNL1        0.0449
     47 H           5.2034    0.3313    1.6531 H       1  UNL1        0.0449
     48 H           3.2360    1.2693    2.4929 H       1  UNL1        0.0573
     49 H           2.6714    1.6858    0.8540 H       1  UNL1        0.0573
     50 H           1.8843   -1.6829    0.1008 H       1  UNL1        0.0643
     51 H           0.5815   -0.3264   -1.3556 H       1  UNL1        0.0723
     52 H           0.9263    1.1754   -0.4634 H       1  UNL1        0.0723
     53 H          -1.0979    1.4202   -1.3272 H       1  UNL1        0.0677
     54 H          -4.9444    3.6665   -2.7806 H       1  UNL1        0.1048
     55 H          -6.6420    1.8438    1.5898 H       1  UNL1        0.1536
     56 H          -8.4772    0.3377    2.2374 H       1  UNL1        0.0636
     57 H          -9.8903   -1.5561    1.8139 H       1  UNL1        0.0633
     58 H          -6.3704   -0.3160   -1.4245 H       1  UNL1        0.0651
     59 H          -4.6695    0.0183    1.6715 H       1  UNL1        0.0663
     60 H          -3.7940   -0.6278    3.5653 H       1  UNL1        0.0660
     61 H          -4.1474   -1.9977    2.4982 H       1  UNL1        0.0660
     62 H          -2.9471   -2.2524    3.7786 H       1  UNL1        0.0660
     63 H           3.3179   -1.2149   -1.5694 H       1  UNL1        0.0453
     64 H           3.0885    0.6079   -1.4454 H       1  UNL1        0.0453
@<TRIPOS>BOND
     1     1     2    1
     2     2     3    1
     3     3     4    1
     4     4     5    2
     5     4     6    1
     6     6     7    1
     7     6     8    1
     8     8     9    1
     9     9    10    1
    10    10    11    1
    11    11    12    1
    12    12    13    1
    13    13    14    1
    14    14    15    1
    15    15    16   ar
    16    16    17   ar
    17    17    18   ar
    18    18    19   ar
    19    19    20   ar
    20    20    21   ar
    21    21    22    1
    22    22    23    1
    23    23    24   ar
    24    24    25   ar
    25    25    26   ar
    26    26    27    1
    27    26    28   ar
    28    28    29    1
    29    28    30   ar
    30    21    31   ar
    31    31    32   ar
    32    32    33   ar
    33    33    34    1
    34    34    35    1
    35    12    36    1
    36    36     8    1
    37    33    15   ar
    38    31    17   ar
    39    30    23   ar
    40     1    37    1
    41     1    38    1
    42     1    39    1
    43     2    40    1
    44     2    41    1
    45     6    42    1
    46     7    43    1
    47     7    44    1
    48     7    45    1
    49     9    46    1
    50     9    47    1
    51    10    48    1
    52    10    49    1
    53    12    50    1
    54    13    51    1
    55    13    52    1
    56    16    53    1
    57    19    54    1
    58    22    55    1
    59    24    56    1
    60    25    57    1
    61    30    58    1
    62    32    59    1
    63    35    60    1
    64    35    61    1
    65    35    62    1
    66    36    63    1
    67    36    64    1
