
     RDKit          3D

 64 67  0  0  0  0  0  0  0  0999 V2000
    9.4515   -1.7507   -0.0993 C   0  0  0  0  0  0  0  0  0  0  0  0
    9.3040   -0.3819   -0.7035 C   0  0  0  0  0  0  0  0  0  0  0  0
    8.0667   -0.1822   -1.3489 O   0  0  0  0  0  0  0  0  0  0  0  0
    6.8844   -0.3004   -0.6235 C   0  0  0  0  0  0  0  0  0  0  0  0
    7.0001   -0.5859    0.5894 O   0  0  0  0  0  0  0  0  0  0  0  0
    5.5577   -0.1103   -1.2019 C   0  0  0  0  0  0  0  0  0  0  0  0
    5.4572    1.1455   -2.0397 C   0  0  0  0  0  0  0  0  0  0  0  0
    4.5277   -0.2329   -0.2221 N   0  0  0  0  0  0  0  0  0  0  0  0
    4.5684    0.7246    0.8344 C   0  0  0  0  0  0  0  0  0  0  0  0
    3.1980    0.9146    1.4433 C   0  0  0  0  0  0  0  0  0  0  0  0
    2.4403   -0.2471    1.3951 O   0  0  0  0  0  0  0  0  0  0  0  0
    2.1007   -0.5946    0.0878 C   0  0  0  0  0  0  0  0  0  0  0  0
    0.8098    0.0945   -0.3392 C   0  0  0  0  0  0  0  0  0  0  0  0
   -0.2573   -0.2763    0.4965 O   0  0  0  0  0  0  0  0  0  0  0  0
   -1.5479    0.2090    0.3416 C   0  0  0  0  0  0  0  0  0  0  0  0
   -1.8698    1.1041   -0.6629 C   0  0  0  0  0  0  0  0  0  0  0  0
   -3.1481    1.5980   -0.8321 C   0  0  0  0  0  0  0  0  0  0  0  0
   -3.4696    2.4673   -1.8030 N   0  0  0  0  0  0  0  0  0  0  0  0
   -4.7048    2.9646   -1.9898 C   0  0  0  0  0  0  0  0  0  0  0  0
   -5.7011    2.5701   -1.1488 N   0  0  0  0  0  0  0  0  0  0  0  0
   -5.4518    1.7036   -0.1560 C   0  0  0  0  0  0  0  0  0  0  0  0
   -6.4856    1.2959    0.7194 N   0  0  0  0  0  0  0  0  0  0  0  0
   -7.3107    0.1762    0.4577 C   0  0  0  0  0  0  0  0  0  0  0  0
   -8.3022   -0.2052    1.3301 C   0  0  0  0  0  0  0  0  0  0  0  0
   -9.1227   -1.2960    1.0946 C   0  0  0  0  0  0  0  0  0  0  0  0
   -8.9646   -2.0486   -0.0489 C   0  0  0  0  0  0  0  0  0  0  0  0
   -9.9924   -3.4354   -0.3689 Cl  0  0  0  0  0  0  0  0  0  0  0  0
   -7.9665   -1.6630   -0.9250 C   0  0  0  0  0  0  0  0  0  0  0  0
   -7.7827   -2.6427   -2.3841 Cl  0  0  0  0  0  0  0  0  0  0  0  0
   -7.1474   -0.5790   -0.6961 C   0  0  0  0  0  0  0  0  0  0  0  0
   -4.1764    1.2084    0.0140 C   0  0  0  0  0  0  0  0  0  0  0  0
   -3.8437    0.3071    1.0223 C   0  0  0  0  0  0  0  0  0  0  0  0
   -2.5666   -0.1772    1.1798 C   0  0  0  0  0  0  0  0  0  0  0  0
   -2.2867   -1.0698    2.1955 O   0  0  0  0  0  0  0  0  0  0  0  0
   -3.3210   -1.4802    3.0689 C   0  0  0  0  0  0  0  0  0  0  0  0
    3.2168   -0.3426   -0.8642 C   0  0  0  0  0  0  0  0  0  0  0  0
    9.4002   -1.7214    1.0153 H   0  0  0  0  0  0  0  0  0  0  0  0
    8.6601   -2.4521   -0.4143 H   0  0  0  0  0  0  0  0  0  0  0  0
   10.4193   -2.2178   -0.3887 H   0  0  0  0  0  0  0  0  0  0  0  0
    9.4801    0.3678    0.1119 H   0  0  0  0  0  0  0  0  0  0  0  0
   10.1361   -0.2340   -1.4506 H   0  0  0  0  0  0  0  0  0  0  0  0
    5.4080   -0.9596   -1.9314 H   0  0  0  0  0  0  0  0  0  0  0  0
    4.6110    1.0276   -2.7315 H   0  0  0  0  0  0  0  0  0  0  0  0
    6.3734    1.1568   -2.6891 H   0  0  0  0  0  0  0  0  0  0  0  0
    5.4471    2.0658   -1.4454 H   0  0  0  0  0  0  0  0  0  0  0  0
    4.9714    1.7032    0.5073 H   0  0  0  0  0  0  0  0  0  0  0  0
    5.2034    0.3313    1.6531 H   0  0  0  0  0  0  0  0  0  0  0  0
    3.2360    1.2693    2.4929 H   0  0  0  0  0  0  0  0  0  0  0  0
    2.6714    1.6858    0.8540 H   0  0  0  0  0  0  0  0  0  0  0  0
    1.8843   -1.6829    0.1008 H   0  0  0  0  0  0  0  0  0  0  0  0
    0.5815   -0.3264   -1.3556 H   0  0  0  0  0  0  0  0  0  0  0  0
    0.9263    1.1754   -0.4634 H   0  0  0  0  0  0  0  0  0  0  0  0
   -1.0979    1.4202   -1.3272 H   0  0  0  0  0  0  0  0  0  0  0  0
   -4.9444    3.6665   -2.7806 H   0  0  0  0  0  0  0  0  0  0  0  0
   -6.6420    1.8438    1.5898 H   0  0  0  0  0  0  0  0  0  0  0  0
   -8.4772    0.3377    2.2374 H   0  0  0  0  0  0  0  0  0  0  0  0
   -9.8903   -1.5561    1.8139 H   0  0  0  0  0  0  0  0  0  0  0  0
   -6.3704   -0.3160   -1.4245 H   0  0  0  0  0  0  0  0  0  0  0  0
   -4.6695    0.0183    1.6715 H   0  0  0  0  0  0  0  0  0  0  0  0
   -3.7940   -0.6278    3.5653 H   0  0  0  0  0  0  0  0  0  0  0  0
   -4.1474   -1.9977    2.4982 H   0  0  0  0  0  0  0  0  0  0  0  0
   -2.9471   -2.2524    3.7786 H   0  0  0  0  0  0  0  0  0  0  0  0
    3.3179   -1.2149   -1.5694 H   0  0  0  0  0  0  0  0  0  0  0  0
    3.0885    0.6079   -1.4454 H   0  0  0  0  0  0  0  0  0  0  0  0
  1  2  1  0
  2  3  1  0
  3  4  1  0
  4  5  2  0
  4  6  1  0
  6  7  1  0
  6  8  1  0
  8  9  1  0
  9 10  1  0
 10 11  1  0
 11 12  1  0
 12 13  1  0
 13 14  1  0
 14 15  1  0
 15 16  2  0
 16 17  1  0
 17 18  2  0
 18 19  1  0
 19 20  2  0
 20 21  1  0
 21 22  1  0
 22 23  1  0
 23 24  2  0
 24 25  1  0
 25 26  2  0
 26 27  1  0
 26 28  1  0
 28 29  1  0
 28 30  2  0
 21 31  2  0
 31 32  1  0
 32 33  2  0
 33 34  1  0
 34 35  1  0
 12 36  1  0
 36  8  1  0
 33 15  1  0
 31 17  1  0
 30 23  1  0
  1 37  1  0
  1 38  1  0
  1 39  1  0
  2 40  1  0
  2 41  1  0
  6 42  1  0
  7 43  1  0
  7 44  1  0
  7 45  1  0
  9 46  1  0
  9 47  1  0
 10 48  1  0
 10 49  1  0
 12 50  1  0
 13 51  1  0
 13 52  1  0
 16 53  1  0
 19 54  1  0
 22 55  1  0
 24 56  1  0
 25 57  1  0
 30 58  1  0
 32 59  1  0
 35 60  1  0
 35 61  1  0
 35 62  1  0
 36 63  1  0
 36 64  1  0
M  END
$$$$
