@<TRIPOS>MOLECULE
*****
 19 18 0 0 0
SMALL
GASTEIGER

@<TRIPOS>ATOM
      1 C          -2.0388    1.3973    0.0190 C.3     1  UNL1       -0.0450
      2 C          -2.0276   -0.1181    0.0306 C.3     1  UNL1        0.0746
      3 S          -2.7721   -0.7277    1.5650 S.3     1  UNL1       -0.1657
      4 C          -0.6618   -0.6689   -0.1748 C.2     1  UNL1        0.1958
      5 O          -0.5236   -2.0707   -0.1838 O.2     1  UNL1       -0.4949
      6 N           0.4169    0.0408   -0.3470 N.2     1  UNL1       -0.2425
      7 C           1.7094   -0.5774   -0.5404 C.3     1  UNL1        0.1397
      8 C           2.8213    0.2851   -0.0720 C.2     1  UNL1        0.3264
      9 O           2.7739    1.5304    0.4918 O.3     1  UNL1       -0.4793
     10 O           3.9672   -0.2171   -0.2226 O.2     1  UNL1       -0.2489
     11 H          -2.0483    1.7717    1.0728 H       1  UNL1        0.0245
     12 H          -1.2197    1.8295   -0.5766 H       1  UNL1        0.0245
     13 H          -2.9823    1.8053   -0.4465 H       1  UNL1        0.0245
     14 H          -2.6883   -0.4607   -0.7919 H       1  UNL1        0.0503
     15 H          -1.8863   -0.7251    2.6499 H       1  UNL1        0.1024
     16 H           0.1598   -2.5196   -0.7893 H       1  UNL1        0.2934
     17 H           1.7839   -1.5605   -0.0132 H       1  UNL1        0.0625
     18 H           1.8457   -0.7866   -1.6202 H       1  UNL1        0.0625
     19 H           3.3708    1.7725    1.2789 H       1  UNL1        0.2951
@<TRIPOS>BOND
     1     1     2    1
     2     2     3    1
     3     2     4    1
     4     4     5    1
     5     4     6    2
     6     6     7    1
     7     7     8    1
     8     8     9    1
     9     8    10    2
    10     1    11    1
    11     1    12    1
    12     1    13    1
    13     2    14    1
    14     3    15    1
    15     5    16    1
    16     7    17    1
    17     7    18    1
    18     9    19    1
