
     RDKit          3D

 19 18  0  0  0  0  0  0  0  0999 V2000
   -2.0388    1.3973    0.0190 C   0  0  0  0  0  0  0  0  0  0  0  0
   -2.0276   -0.1181    0.0306 C   0  0  0  0  0  0  0  0  0  0  0  0
   -2.7721   -0.7277    1.5650 S   0  0  0  0  0  0  0  0  0  0  0  0
   -0.6618   -0.6689   -0.1748 C   0  0  0  0  0  0  0  0  0  0  0  0
   -0.5236   -2.0707   -0.1838 O   0  0  0  0  0  0  0  0  0  0  0  0
    0.4169    0.0408   -0.3470 N   0  0  0  0  0  0  0  0  0  0  0  0
    1.7094   -0.5774   -0.5404 C   0  0  0  0  0  0  0  0  0  0  0  0
    2.8213    0.2851   -0.0720 C   0  0  0  0  0  0  0  0  0  0  0  0
    2.7739    1.5304    0.4918 O   0  0  0  0  0  0  0  0  0  0  0  0
    3.9672   -0.2171   -0.2226 O   0  0  0  0  0  0  0  0  0  0  0  0
   -2.0483    1.7717    1.0728 H   0  0  0  0  0  0  0  0  0  0  0  0
   -1.2197    1.8295   -0.5766 H   0  0  0  0  0  0  0  0  0  0  0  0
   -2.9823    1.8053   -0.4465 H   0  0  0  0  0  0  0  0  0  0  0  0
   -2.6883   -0.4607   -0.7919 H   0  0  0  0  0  0  0  0  0  0  0  0
   -1.8863   -0.7251    2.6499 H   0  0  0  0  0  0  0  0  0  0  0  0
    0.1598   -2.5196   -0.7893 H   0  0  0  0  0  0  0  0  0  0  0  0
    1.7839   -1.5605   -0.0132 H   0  0  0  0  0  0  0  0  0  0  0  0
    1.8457   -0.7866   -1.6202 H   0  0  0  0  0  0  0  0  0  0  0  0
    3.3708    1.7725    1.2789 H   0  0  0  0  0  0  0  0  0  0  0  0
  1  2  1  0
  2  3  1  0
  2  4  1  0
  4  5  1  0
  4  6  2  3
  6  7  1  0
  7  8  1  0
  8  9  1  0
  8 10  2  0
  1 11  1  0
  1 12  1  0
  1 13  1  0
  2 14  1  0
  3 15  1  0
  5 16  1  0
  7 17  1  0
  7 18  1  0
  9 19  1  0
M  END
$$$$
