
     RDKit          3D

 98 99  0  0  0  0  0  0  0  0999 V2000
    6.9832    4.8541    2.5769 C   0  0  0  0  0  0  0  0  0  0  0  0
    5.6035    5.2004    2.0166 C   0  0  0  0  0  0  0  0  0  0  0  0
    5.1030    4.0686    1.3059 O   0  0  0  0  0  0  0  0  0  0  0  0
    4.9006    2.8531    1.9242 C   0  0  0  0  0  0  0  0  0  0  0  0
    5.1522    2.7132    3.1307 O   0  0  0  0  0  0  0  0  0  0  0  0
    4.3908    1.7386    1.1500 C   0  0  0  0  0  0  0  0  0  0  0  0
    4.1271    1.8939   -0.1270 C   0  0  0  0  0  0  0  0  0  0  0  0
    3.6067    0.7685   -0.9338 C   0  0  0  0  0  0  0  0  0  0  0  0
    3.4709   -0.4477   -0.0765 C   0  0  0  0  0  0  0  0  0  0  0  0
    2.9007   -1.6115   -0.9189 C   0  0  2  0  0  0  0  0  0  0  0  0
    3.8323   -1.8419   -1.9896 N   0  0  0  0  0  0  0  0  0  0  0  0
    4.6857   -2.9922   -2.0297 C   0  0  0  0  0  0  0  0  0  0  0  0
    4.5735   -3.7876   -1.0697 O   0  0  0  0  0  0  0  0  0  0  0  0
    5.5761   -3.2318   -3.0360 O   0  0  0  0  0  0  0  0  0  0  0  0
    6.4590   -4.3213   -3.1502 C   0  0  0  0  0  0  0  0  0  0  0  0
    7.3762   -4.3362   -2.0133 C   0  0  0  0  0  0  0  0  0  0  0  0
    8.4946   -3.5325   -2.0759 C   0  0  0  0  0  0  0  0  0  0  0  0
    9.3934   -3.5172   -1.0482 C   0  0  0  0  0  0  0  0  0  0  0  0
    9.1802   -4.3145    0.0652 C   0  0  0  0  0  0  0  0  0  0  0  0
    8.0789   -5.1256    0.1597 C   0  0  0  0  0  0  0  0  0  0  0  0
    7.1745   -5.1182   -0.9145 C   0  0  0  0  0  0  0  0  0  0  0  0
    1.6390   -1.0858   -1.4781 C   0  0  0  0  0  0  0  0  0  0  0  0
    1.5743   -0.8786   -2.7221 O   0  0  0  0  0  0  0  0  0  0  0  0
    0.5062   -0.8068   -0.6588 N   0  0  0  0  0  0  0  0  0  0  0  0
   -0.6887   -0.2683   -1.3034 C   0  0  1  0  0  0  0  0  0  0  0  0
   -1.6935   -1.4203   -1.2712 C   0  0  0  0  0  0  0  0  0  0  0  0
   -1.9668   -1.8418    0.1608 C   0  0  0  0  0  0  0  0  0  0  0  0
   -2.9412   -2.9618    0.1972 C   0  0  0  0  0  0  0  0  0  0  0  0
   -3.2220   -3.5254    1.4799 N   0  0  0  0  0  0  0  0  0  0  0  0
   -3.5198   -3.4331   -0.8024 O   0  0  0  0  0  0  0  0  0  0  0  0
   -1.1880    0.8933   -0.5752 C   0  0  0  0  0  0  0  0  0  0  0  0
   -0.6163    1.1568    0.5316 O   0  0  0  0  0  0  0  0  0  0  0  0
   -2.2439    1.6947   -1.0583 N   0  0  0  0  0  0  0  0  0  0  0  0
   -3.0308    1.6112   -2.2377 C   0  0  0  0  0  0  0  0  0  0  0  0
   -3.7065    2.9579   -2.4675 C   0  0  0  0  0  0  0  0  0  0  0  0
   -3.0930    3.8600   -1.4174 C   0  0  0  0  0  0  0  0  0  0  0  0
   -2.6936    2.8877   -0.3123 C   0  0  1  0  0  0  0  0  0  0  0  0
   -3.7803    2.6160    0.6256 C   0  0  0  0  0  0  0  0  0  0  0  0
   -4.0777    3.4919    1.5195 O   0  0  0  0  0  0  0  0  0  0  0  0
   -4.5857    1.4495    0.6693 N   0  0  0  0  0  0  0  0  0  0  0  0
   -5.6368    1.2754    1.6480 C   0  0  1  0  0  0  0  0  0  0  0  0
   -6.8967    1.9604    1.1551 C   0  0  0  0  0  0  0  0  0  0  0  0
   -7.4242    1.5017   -0.1431 C   0  0  0  0  0  0  0  0  0  0  0  0
   -7.7665    0.0522   -0.1399 C   0  0  0  0  0  0  0  0  0  0  0  0
   -8.7524    2.2561   -0.3615 C   0  0  0  0  0  0  0  0  0  0  0  0
   -5.8192   -0.0960    2.0964 C   0  0  0  0  0  0  0  0  0  0  0  0
   -5.1054   -1.0124    1.6165 O   0  0  0  0  0  0  0  0  0  0  0  0
   -6.7650   -0.4485    3.0483 O   0  0  0  0  0  0  0  0  0  0  0  0
   -6.8689   -1.8294    3.4118 C   0  0  0  0  0  0  0  0  0  0  0  0
    7.2696    3.8233    2.2765 H   0  0  0  0  0  0  0  0  0  0  0  0
    7.7616    5.5114    2.1357 H   0  0  0  0  0  0  0  0  0  0  0  0
    6.9619    4.8894    3.6766 H   0  0  0  0  0  0  0  0  0  0  0  0
    5.7290    6.0226    1.3054 H   0  0  0  0  0  0  0  0  0  0  0  0
    4.9167    5.5225    2.8133 H   0  0  0  0  0  0  0  0  0  0  0  0
    4.2335    0.7854    1.6410 H   0  0  0  0  0  0  0  0  0  0  0  0
    4.3079    2.8859   -0.5692 H   0  0  0  0  0  0  0  0  0  0  0  0
    4.2868    0.5374   -1.7946 H   0  0  0  0  0  0  0  0  0  0  0  0
    2.6046    1.0558   -1.3132 H   0  0  0  0  0  0  0  0  0  0  0  0
    2.7320   -0.2519    0.7285 H   0  0  0  0  0  0  0  0  0  0  0  0
    4.4502   -0.7429    0.3279 H   0  0  0  0  0  0  0  0  0  0  0  0
    2.8092   -2.4766   -0.2607 H   0  0  0  0  0  0  0  0  0  0  0  0
    3.8994   -1.1672   -2.7722 H   0  0  0  0  0  0  0  0  0  0  0  0
    7.0072   -4.2732   -4.1350 H   0  0  0  0  0  0  0  0  0  0  0  0
    5.8571   -5.2765   -3.1600 H   0  0  0  0  0  0  0  0  0  0  0  0
    8.6516   -2.9144   -2.9426 H   0  0  0  0  0  0  0  0  0  0  0  0
   10.2660   -2.8627   -1.1520 H   0  0  0  0  0  0  0  0  0  0  0  0
    9.9316   -4.2587    0.8515 H   0  0  0  0  0  0  0  0  0  0  0  0
    7.9116   -5.7475    1.0235 H   0  0  0  0  0  0  0  0  0  0  0  0
    6.3355   -5.7690   -0.8251 H   0  0  0  0  0  0  0  0  0  0  0  0
    0.5627   -0.9899    0.3649 H   0  0  0  0  0  0  0  0  0  0  0  0
   -0.4360   -0.0462   -2.3489 H   0  0  0  0  0  0  0  0  0  0  0  0
   -2.6172   -1.0754   -1.7144 H   0  0  0  0  0  0  0  0  0  0  0  0
   -1.3039   -2.2617   -1.8745 H   0  0  0  0  0  0  0  0  0  0  0  0
   -2.3190   -1.0033    0.7775 H   0  0  0  0  0  0  0  0  0  0  0  0
   -1.0020   -2.2788    0.5428 H   0  0  0  0  0  0  0  0  0  0  0  0
   -4.1539   -3.8490    1.7922 H   0  0  0  0  0  0  0  0  0  0  0  0
   -2.4425   -3.6357    2.1806 H   0  0  0  0  0  0  0  0  0  0  0  0
   -3.8353    0.8698   -2.2596 H   0  0  0  0  0  0  0  0  0  0  0  0
   -2.3652    1.3760   -3.1148 H   0  0  0  0  0  0  0  0  0  0  0  0
   -3.5563    3.2692   -3.4948 H   0  0  0  0  0  0  0  0  0  0  0  0
   -4.7894    2.9075   -2.2117 H   0  0  0  0  0  0  0  0  0  0  0  0
   -3.7510    4.6344   -1.0316 H   0  0  0  0  0  0  0  0  0  0  0  0
   -2.1893    4.2965   -1.8829 H   0  0  0  0  0  0  0  0  0  0  0  0
   -1.8472    3.3551    0.2244 H   0  0  0  0  0  0  0  0  0  0  0  0
   -4.4292    0.6874    0.0006 H   0  0  0  0  0  0  0  0  0  0  0  0
   -5.3212    1.9536    2.5160 H   0  0  0  0  0  0  0  0  0  0  0  0
   -6.6902    3.0664    1.1179 H   0  0  0  0  0  0  0  0  0  0  0  0
   -7.7041    1.8440    1.9175 H   0  0  0  0  0  0  0  0  0  0  0  0
   -6.8085    1.8032   -1.0216 H   0  0  0  0  0  0  0  0  0  0  0  0
   -8.2814   -0.2455    0.7830 H   0  0  0  0  0  0  0  0  0  0  0  0
   -8.5391   -0.0992   -0.9607 H   0  0  0  0  0  0  0  0  0  0  0  0
   -6.9072   -0.6075   -0.4100 H   0  0  0  0  0  0  0  0  0  0  0  0
   -9.1510    2.0672   -1.3790 H   0  0  0  0  0  0  0  0  0  0  0  0
   -9.4841    1.9175    0.3950 H   0  0  0  0  0  0  0  0  0  0  0  0
   -8.5683    3.3412   -0.2180 H   0  0  0  0  0  0  0  0  0  0  0  0
   -7.9081   -2.0474    3.7319 H   0  0  0  0  0  0  0  0  0  0  0  0
   -6.6107   -2.4775    2.5415 H   0  0  0  0  0  0  0  0  0  0  0  0
   -6.1743   -2.0331    4.2287 H   0  0  0  0  0  0  0  0  0  0  0  0
  1  2  1  0
  2  3  1  0
  3  4  1  0
  4  5  2  0
  4  6  1  0
  6  7  2  0
  7  8  1  0
  8  9  1  0
  9 10  1  0
 10 11  1  0
 11 12  1  0
 12 13  2  0
 12 14  1  0
 14 15  1  0
 15 16  1  0
 16 17  2  0
 17 18  1  0
 18 19  2  0
 19 20  1  0
 20 21  2  0
 10 22  1  0
 22 23  2  0
 22 24  1  0
 24 25  1  0
 25 26  1  0
 26 27  1  0
 27 28  1  0
 28 29  1  0
 28 30  2  0
 25 31  1  0
 31 32  2  0
 31 33  1  0
 33 34  1  0
 34 35  1  0
 35 36  1  0
 36 37  1  0
 37 38  1  0
 38 39  2  0
 38 40  1  0
 40 41  1  0
 41 42  1  0
 42 43  1  0
 43 44  1  0
 43 45  1  0
 41 46  1  0
 46 47  2  0
 46 48  1  0
 48 49  1  0
 21 16  1  0
 37 33  1  0
  1 50  1  0
  1 51  1  0
  1 52  1  0
  2 53  1  0
  2 54  1  0
  6 55  1  0
  7 56  1  0
  8 57  1  0
  8 58  1  0
  9 59  1  0
  9 60  1  0
 10 61  1  1
 11 62  1  0
 15 63  1  0
 15 64  1  0
 17 65  1  0
 18 66  1  0
 19 67  1  0
 20 68  1  0
 21 69  1  0
 24 70  1  0
 25 71  1  6
 26 72  1  0
 26 73  1  0
 27 74  1  0
 27 75  1  0
 29 76  1  0
 29 77  1  0
 34 78  1  0
 34 79  1  0
 35 80  1  0
 35 81  1  0
 36 82  1  0
 36 83  1  0
 37 84  1  1
 40 85  1  0
 41 86  1  1
 42 87  1  0
 42 88  1  0
 43 89  1  0
 44 90  1  0
 44 91  1  0
 44 92  1  0
 45 93  1  0
 45 94  1  0
 45 95  1  0
 49 96  1  0
 49 97  1  0
 49 98  1  0
M  END
$$$$
