@<TRIPOS>MOLECULE
*****
 98 99 0 0 0
SMALL
GASTEIGER

@<TRIPOS>ATOM
      1 C           6.9832    4.8541    2.5769 C.3     1  UNL1       -0.0306
      2 C           5.6035    5.2004    2.0166 C.3     1  UNL1        0.0900
      3 O           5.1030    4.0686    1.3059 O.3     1  UNL1       -0.4618
      4 C           4.9006    2.8531    1.9242 C.2     1  UNL1        0.3316
      5 O           5.1522    2.7132    3.1307 O.2     1  UNL1       -0.2456
      6 C           4.3908    1.7386    1.1500 C.2     1  UNL1        0.0186
      7 C           4.1271    1.8939   -0.1270 C.2     1  UNL1       -0.0772
      8 C           3.6067    0.7685   -0.9338 C.3     1  UNL1       -0.0321
      9 C           3.4709   -0.4477   -0.0765 C.3     1  UNL1       -0.0224
     10 C           2.9007   -1.6115   -0.9189 C.3     1  UNL1        0.1028
     11 N           3.8323   -1.8419   -1.9896 N.am    1  UNL1       -0.2698
     12 C           4.6857   -2.9922   -2.0297 C.2     1  UNL1        0.4012
     13 O           4.5735   -3.7876   -1.0697 O.2     1  UNL1       -0.2265
     14 O           5.5761   -3.2318   -3.0360 O.3     1  UNL1       -0.4456
     15 C           6.4590   -4.3213   -3.1502 C.3     1  UNL1        0.1191
     16 C           7.3762   -4.3362   -2.0133 C.ar    1  UNL1       -0.0103
     17 C           8.4946   -3.5325   -2.0759 C.ar    1  UNL1       -0.0554
     18 C           9.3934   -3.5172   -1.0482 C.ar    1  UNL1       -0.0614
     19 C           9.1802   -4.3145    0.0652 C.ar    1  UNL1       -0.0617
     20 C           8.0789   -5.1256    0.1597 C.ar    1  UNL1       -0.0614
     21 C           7.1745   -5.1182   -0.9145 C.ar    1  UNL1       -0.0554
     22 C           1.6390   -1.0858   -1.4781 C.2     1  UNL1        0.2341
     23 O           1.5743   -0.8786   -2.7221 O.2     1  UNL1       -0.2738
     24 N           0.5062   -0.8068   -0.6588 N.am    1  UNL1       -0.3025
     25 C          -0.6887   -0.2683   -1.3034 C.3     1  UNL1        0.1001
     26 C          -1.6935   -1.4203   -1.2712 C.3     1  UNL1       -0.0177
     27 C          -1.9668   -1.8418    0.1608 C.3     1  UNL1        0.0259
     28 C          -2.9412   -2.9618    0.1972 C.2     1  UNL1        0.2106
     29 N          -3.2220   -3.5254    1.4799 N.am    1  UNL1       -0.3293
     30 O          -3.5198   -3.4331   -0.8024 O.2     1  UNL1       -0.2760
     31 C          -1.1880    0.8933   -0.5752 C.2     1  UNL1        0.2365
     32 O          -0.6163    1.1568    0.5316 O.2     1  UNL1       -0.2735
     33 N          -2.2439    1.6947   -1.0583 N.am    1  UNL1       -0.2884
     34 C          -3.0308    1.6112   -2.2377 C.3     1  UNL1        0.0156
     35 C          -3.7065    2.9579   -2.4675 C.3     1  UNL1       -0.0350
     36 C          -3.0930    3.8600   -1.4174 C.3     1  UNL1       -0.0243
     37 C          -2.6936    2.8877   -0.3123 C.3     1  UNL1        0.1023
     38 C          -3.7803    2.6160    0.6256 C.2     1  UNL1        0.2342
     39 O          -4.0777    3.4919    1.5195 O.2     1  UNL1       -0.2738
     40 N          -4.5857    1.4495    0.6693 N.am    1  UNL1       -0.3008
     41 C          -5.6368    1.2754    1.6480 C.3     1  UNL1        0.1206
     42 C          -6.8967    1.9604    1.1551 C.3     1  UNL1       -0.0218
     43 C          -7.4242    1.5017   -0.1431 C.3     1  UNL1       -0.0445
     44 C          -7.7665    0.0522   -0.1399 C.3     1  UNL1       -0.0626
     45 C          -8.7524    2.2561   -0.3615 C.3     1  UNL1       -0.0626
     46 C          -5.8192   -0.0960    2.0964 C.2     1  UNL1        0.3274
     47 O          -5.1054   -1.0124    1.6165 O.2     1  UNL1       -0.2488
     48 O          -6.7650   -0.4485    3.0483 O.3     1  UNL1       -0.4666
     49 C          -6.8689   -1.8294    3.4118 C.3     1  UNL1        0.0817
     50 H           7.2696    3.8233    2.2765 H       1  UNL1        0.0262
     51 H           7.7616    5.5114    2.1357 H       1  UNL1        0.0262
     52 H           6.9619    4.8894    3.6766 H       1  UNL1        0.0262
     53 H           5.7290    6.0226    1.3054 H       1  UNL1        0.0695
     54 H           4.9167    5.5225    2.8133 H       1  UNL1        0.0695
     55 H           4.2335    0.7854    1.6410 H       1  UNL1        0.0686
     56 H           4.3079    2.8859   -0.5692 H       1  UNL1        0.0574
     57 H           4.2868    0.5374   -1.7946 H       1  UNL1        0.0308
     58 H           2.6046    1.0558   -1.3132 H       1  UNL1        0.0308
     59 H           2.7320   -0.2519    0.7285 H       1  UNL1        0.0291
     60 H           4.4502   -0.7429    0.3279 H       1  UNL1        0.0291
     61 H           2.8092   -2.4766   -0.2607 H       1  UNL1        0.0596
     62 H           3.8994   -1.1672   -2.7722 H       1  UNL1        0.1528
     63 H           7.0072   -4.2732   -4.1350 H       1  UNL1        0.0749
     64 H           5.8571   -5.2765   -3.1600 H       1  UNL1        0.0749
     65 H           8.6516   -2.9144   -2.9426 H       1  UNL1        0.0621
     66 H          10.2660   -2.8627   -1.1520 H       1  UNL1        0.0618
     67 H           9.9316   -4.2587    0.8515 H       1  UNL1        0.0618
     68 H           7.9116   -5.7475    1.0235 H       1  UNL1        0.0618
     69 H           6.3355   -5.7690   -0.8251 H       1  UNL1        0.0621
     70 H           0.5627   -0.9899    0.3649 H       1  UNL1        0.1495
     71 H          -0.4360   -0.0462   -2.3489 H       1  UNL1        0.0595
     72 H          -2.6172   -1.0754   -1.7144 H       1  UNL1        0.0292
     73 H          -1.3039   -2.2617   -1.8745 H       1  UNL1        0.0292
     74 H          -2.3190   -1.0033    0.7775 H       1  UNL1        0.0359
     75 H          -1.0020   -2.2788    0.5428 H       1  UNL1        0.0359
     76 H          -4.1539   -3.8490    1.7922 H       1  UNL1        0.1449
     77 H          -2.4425   -3.6357    2.1806 H       1  UNL1        0.1449
     78 H          -3.8353    0.8698   -2.2596 H       1  UNL1        0.0465
     79 H          -2.3652    1.3760   -3.1148 H       1  UNL1        0.0465
     80 H          -3.5563    3.2692   -3.4948 H       1  UNL1        0.0281
     81 H          -4.7894    2.9075   -2.2117 H       1  UNL1        0.0281
     82 H          -3.7510    4.6344   -1.0316 H       1  UNL1        0.0288
     83 H          -2.1893    4.2965   -1.8829 H       1  UNL1        0.0288
     84 H          -1.8472    3.3551    0.2244 H       1  UNL1        0.0597
     85 H          -4.4292    0.6874    0.0006 H       1  UNL1        0.1496
     86 H          -5.3212    1.9536    2.5160 H       1  UNL1        0.0614
     87 H          -6.6902    3.0664    1.1179 H       1  UNL1        0.0291
     88 H          -7.7041    1.8440    1.9175 H       1  UNL1        0.0291
     89 H          -6.8085    1.8032   -1.0216 H       1  UNL1        0.0296
     90 H          -8.2814   -0.2455    0.7830 H       1  UNL1        0.0232
     91 H          -8.5391   -0.0992   -0.9607 H       1  UNL1        0.0232
     92 H          -6.9072   -0.6075   -0.4100 H       1  UNL1        0.0232
     93 H          -9.1510    2.0672   -1.3790 H       1  UNL1        0.0232
     94 H          -9.4841    1.9175    0.3950 H       1  UNL1        0.0232
     95 H          -8.5683    3.3412   -0.2180 H       1  UNL1        0.0232
     96 H          -7.9081   -2.0474    3.7319 H       1  UNL1        0.0661
     97 H          -6.6107   -2.4775    2.5415 H       1  UNL1        0.0661
     98 H          -6.1743   -2.0331    4.2287 H       1  UNL1        0.0661
@<TRIPOS>BOND
     1     1     2    1
     2     2     3    1
     3     3     4    1
     4     4     5    2
     5     4     6    1
     6     6     7    2
     7     7     8    1
     8     8     9    1
     9     9    10    1
    10    10    11    1
    11    11    12   am
    12    12    13    2
    13    12    14    1
    14    14    15    1
    15    15    16    1
    16    16    17   ar
    17    17    18   ar
    18    18    19   ar
    19    19    20   ar
    20    20    21   ar
    21    10    22    1
    22    22    23    2
    23    22    24   am
    24    24    25    1
    25    25    26    1
    26    26    27    1
    27    27    28    1
    28    28    29   am
    29    28    30    2
    30    25    31    1
    31    31    32    2
    32    31    33   am
    33    33    34    1
    34    34    35    1
    35    35    36    1
    36    36    37    1
    37    37    38    1
    38    38    39    2
    39    38    40   am
    40    40    41    1
    41    41    42    1
    42    42    43    1
    43    43    44    1
    44    43    45    1
    45    41    46    1
    46    46    47    2
    47    46    48    1
    48    48    49    1
    49    21    16   ar
    50    37    33    1
    51     1    50    1
    52     1    51    1
    53     1    52    1
    54     2    53    1
    55     2    54    1
    56     6    55    1
    57     7    56    1
    58     8    57    1
    59     8    58    1
    60     9    59    1
    61     9    60    1
    62    10    61    1
    63    11    62    1
    64    15    63    1
    65    15    64    1
    66    17    65    1
    67    18    66    1
    68    19    67    1
    69    20    68    1
    70    21    69    1
    71    24    70    1
    72    25    71    1
    73    26    72    1
    74    26    73    1
    75    27    74    1
    76    27    75    1
    77    29    76    1
    78    29    77    1
    79    34    78    1
    80    34    79    1
    81    35    80    1
    82    35    81    1
    83    36    82    1
    84    36    83    1
    85    37    84    1
    86    40    85    1
    87    41    86    1
    88    42    87    1
    89    42    88    1
    90    43    89    1
    91    44    90    1
    92    44    91    1
    93    44    92    1
    94    45    93    1
    95    45    94    1
    96    45    95    1
    97    49    96    1
    98    49    97    1
    99    49    98    1
