@<TRIPOS>MOLECULE
*****
 37 40 0 0 0
SMALL
GASTEIGER

@<TRIPOS>ATOM
      1 O          -1.8027    1.1323    1.1325 O.2     1  UNL1       -0.2697
      2 C          -1.5966    0.4142    0.1334 C.2     1  UNL1        0.2530
      3 N          -2.7180   -0.2094   -0.4768 N.am    1  UNL1       -0.2663
      4 C          -4.0677   -0.1019   -0.0725 C.ar    1  UNL1        0.1253
      5 C          -4.6676   -0.9130    0.8441 C.ar    1  UNL1       -0.0188
      6 C          -6.0103   -0.7437    1.1563 C.ar    1  UNL1       -0.0217
      7 C          -6.7435    0.2486    0.5384 C.ar    1  UNL1        0.1415
      8 F          -8.0500    0.4499    0.8070 F       1  UNL1       -0.2039
      9 C          -6.1153    1.0481   -0.3788 C.ar    1  UNL1        0.0649
     10 N          -4.8160    0.8723   -0.6701 N.ar    1  UNL1       -0.2373
     11 C          -0.2418    0.1953   -0.4272 C.ar    1  UNL1        0.0847
     12 C           0.6688   -0.6641    0.1378 C.ar    1  UNL1       -0.0021
     13 C           1.9036   -0.8804   -0.4328 C.ar    1  UNL1        0.1474
     14 O           2.8586   -1.7501    0.1158 O.3     1  UNL1       -0.4529
     15 C           4.0238   -1.2513    0.7003 C.ar    1  UNL1        0.1494
     16 C           4.9831   -2.0945    1.2182 C.ar    1  UNL1        0.0730
     17 N           6.1011   -1.6088    1.7717 N.ar    1  UNL1       -0.2215
     18 C           6.3573   -0.2956    1.8585 C.ar    1  UNL1        0.2488
     19 F           7.4945    0.1822    2.4228 F       1  UNL1       -0.1808
     20 C           5.4424    0.6028    1.3626 C.ar    1  UNL1        0.1809
     21 F           5.6605    1.9387    1.4262 F       1  UNL1       -0.2007
     22 C           4.2831    0.1092    0.7874 C.ar    1  UNL1        0.0219
     23 C           2.2013   -0.1971   -1.6044 C.ar    1  UNL1        0.0737
     24 N           1.3279    0.6466   -2.1703 N.ar    1  UNL1       -0.2161
     25 N           1.4367    1.3830   -3.2700 N.ar    1  UNL1       -0.1534
     26 C           0.2888    2.0545   -3.3961 C.ar    1  UNL1        0.1390
     27 N          -0.5041    1.7195   -2.3710 N.ar    1  UNL1       -0.2141
     28 C           0.1334    0.8386   -1.5945 C.ar    1  UNL1        0.1680
     29 H          -2.5179   -0.8036   -1.3142 H       1  UNL1        0.1566
     30 H          -4.0782   -1.6846    1.3194 H       1  UNL1        0.0653
     31 H          -6.5039   -1.3753    1.8829 H       1  UNL1        0.0648
     32 H          -6.6664    1.8352   -0.8776 H       1  UNL1        0.0859
     33 H           0.3847   -1.1620    1.0441 H       1  UNL1        0.0663
     34 H           4.8390   -3.1574    1.1783 H       1  UNL1        0.0868
     35 H           3.5759    0.8250    0.4031 H       1  UNL1        0.0685
     36 H           3.1600   -0.3613   -2.0503 H       1  UNL1        0.0868
     37 H          -0.0245    2.7582   -4.1542 H       1  UNL1        0.1066
@<TRIPOS>BOND
     1     1     2    2
     2     2     3   am
     3     3     4    1
     4     4     5   ar
     5     5     6   ar
     6     6     7   ar
     7     7     8    1
     8     7     9   ar
     9     9    10   ar
    10     2    11    1
    11    11    12   ar
    12    12    13   ar
    13    13    14    1
    14    14    15    1
    15    15    16   ar
    16    16    17   ar
    17    17    18   ar
    18    18    19    1
    19    18    20   ar
    20    20    21    1
    21    20    22   ar
    22    13    23   ar
    23    23    24   ar
    24    24    25   ar
    25    25    26   ar
    26    26    27   ar
    27    27    28   ar
    28    10     4   ar
    29    28    11   ar
    30    22    15   ar
    31    28    24   ar
    32     3    29    1
    33     5    30    1
    34     6    31    1
    35     9    32    1
    36    12    33    1
    37    16    34    1
    38    22    35    1
    39    23    36    1
    40    26    37    1
