
     RDKit          3D

 37 40  0  0  0  0  0  0  0  0999 V2000
   -1.8027    1.1323    1.1325 O   0  0  0  0  0  0  0  0  0  0  0  0
   -1.5966    0.4142    0.1334 C   0  0  0  0  0  0  0  0  0  0  0  0
   -2.7180   -0.2094   -0.4768 N   0  0  0  0  0  0  0  0  0  0  0  0
   -4.0677   -0.1019   -0.0725 C   0  0  0  0  0  0  0  0  0  0  0  0
   -4.6676   -0.9130    0.8441 C   0  0  0  0  0  0  0  0  0  0  0  0
   -6.0103   -0.7437    1.1563 C   0  0  0  0  0  0  0  0  0  0  0  0
   -6.7435    0.2486    0.5384 C   0  0  0  0  0  0  0  0  0  0  0  0
   -8.0500    0.4499    0.8070 F   0  0  0  0  0  0  0  0  0  0  0  0
   -6.1153    1.0481   -0.3788 C   0  0  0  0  0  0  0  0  0  0  0  0
   -4.8160    0.8723   -0.6701 N   0  0  0  0  0  0  0  0  0  0  0  0
   -0.2418    0.1953   -0.4272 C   0  0  0  0  0  0  0  0  0  0  0  0
    0.6688   -0.6641    0.1378 C   0  0  0  0  0  0  0  0  0  0  0  0
    1.9036   -0.8804   -0.4328 C   0  0  0  0  0  0  0  0  0  0  0  0
    2.8586   -1.7501    0.1158 O   0  0  0  0  0  0  0  0  0  0  0  0
    4.0238   -1.2513    0.7003 C   0  0  0  0  0  0  0  0  0  0  0  0
    4.9831   -2.0945    1.2182 C   0  0  0  0  0  0  0  0  0  0  0  0
    6.1011   -1.6088    1.7717 N   0  0  0  0  0  0  0  0  0  0  0  0
    6.3573   -0.2956    1.8585 C   0  0  0  0  0  0  0  0  0  0  0  0
    7.4945    0.1822    2.4228 F   0  0  0  0  0  0  0  0  0  0  0  0
    5.4424    0.6028    1.3626 C   0  0  0  0  0  0  0  0  0  0  0  0
    5.6605    1.9387    1.4262 F   0  0  0  0  0  0  0  0  0  0  0  0
    4.2831    0.1092    0.7874 C   0  0  0  0  0  0  0  0  0  0  0  0
    2.2013   -0.1971   -1.6044 C   0  0  0  0  0  0  0  0  0  0  0  0
    1.3279    0.6466   -2.1703 N   0  0  0  0  0  0  0  0  0  0  0  0
    1.4367    1.3830   -3.2700 N   0  0  0  0  0  0  0  0  0  0  0  0
    0.2888    2.0545   -3.3961 C   0  0  0  0  0  0  0  0  0  0  0  0
   -0.5041    1.7195   -2.3710 N   0  0  0  0  0  0  0  0  0  0  0  0
    0.1334    0.8386   -1.5945 C   0  0  0  0  0  0  0  0  0  0  0  0
   -2.5179   -0.8036   -1.3142 H   0  0  0  0  0  0  0  0  0  0  0  0
   -4.0782   -1.6846    1.3194 H   0  0  0  0  0  0  0  0  0  0  0  0
   -6.5039   -1.3753    1.8829 H   0  0  0  0  0  0  0  0  0  0  0  0
   -6.6664    1.8352   -0.8776 H   0  0  0  0  0  0  0  0  0  0  0  0
    0.3847   -1.1620    1.0441 H   0  0  0  0  0  0  0  0  0  0  0  0
    4.8390   -3.1574    1.1783 H   0  0  0  0  0  0  0  0  0  0  0  0
    3.5759    0.8250    0.4031 H   0  0  0  0  0  0  0  0  0  0  0  0
    3.1600   -0.3613   -2.0503 H   0  0  0  0  0  0  0  0  0  0  0  0
   -0.0245    2.7582   -4.1542 H   0  0  0  0  0  0  0  0  0  0  0  0
  1  2  2  0
  2  3  1  0
  3  4  1  0
  4  5  2  0
  5  6  1  0
  6  7  2  0
  7  8  1  0
  7  9  1  0
  9 10  2  0
  2 11  1  0
 11 12  2  0
 12 13  1  0
 13 14  1  0
 14 15  1  0
 15 16  2  0
 16 17  1  0
 17 18  2  0
 18 19  1  0
 18 20  1  0
 20 21  1  0
 20 22  2  0
 13 23  2  0
 23 24  1  0
 24 25  1  0
 25 26  2  0
 26 27  1  0
 27 28  2  0
 10  4  1  0
 28 11  1  0
 22 15  1  0
 28 24  1  0
  3 29  1  0
  5 30  1  0
  6 31  1  0
  9 32  1  0
 12 33  1  0
 16 34  1  0
 22 35  1  0
 23 36  1  0
 26 37  1  0
M  END
$$$$
