@<TRIPOS>MOLECULE
*****
 52 54 0 0 0
SMALL
GASTEIGER

@<TRIPOS>ATOM
      1 C          -6.6587   -1.1487    0.1097 C.3     1  UNL1       -0.0653
      2 C          -6.1936   -0.7400    1.4550 C.3     1  UNL1       -0.0559
      3 C          -5.9733    0.7284    1.6355 C.3     1  UNL1       -0.0533
      4 C          -4.9337    1.3313    0.7205 C.3     1  UNL1       -0.0530
      5 C          -3.5843    0.7315    0.9058 C.3     1  UNL1       -0.0515
      6 C          -2.5304    1.3165    0.0039 C.3     1  UNL1       -0.0305
      7 C          -2.9248    1.0674   -1.4307 C.3     1  UNL1        0.1094
      8 S          -1.6319    1.7652   -2.5177 S.3     1  UNL1       -0.0712
      9 C          -0.1319    0.8216   -2.1689 C.ar    1  UNL1        0.1920
     10 N           0.1125   -0.3273   -2.8293 N.ar    1  UNL1       -0.2101
     11 C           1.2271   -1.0508   -2.6037 C.ar    1  UNL1        0.1354
     12 CL          1.5220   -2.5533   -3.4886 Cl      1  UNL1       -0.0618
     13 C           2.1421   -0.5964   -1.6669 C.ar    1  UNL1        0.0154
     14 C           1.8611    0.5934   -1.0016 C.ar    1  UNL1        0.1287
     15 N           2.7624    1.1155   -0.0369 N.pl3   1  UNL1       -0.2993
     16 C           3.8932    0.4020    0.3894 C.ar    1  UNL1        0.0331
     17 C           3.7603   -0.8875    0.8471 C.ar    1  UNL1       -0.0385
     18 C           4.8338   -1.6413    1.2645 C.ar    1  UNL1       -0.0340
     19 C           6.0753   -1.0481    1.2076 C.ar    1  UNL1        0.0711
     20 N           7.1786   -1.7232    1.5942 N.ar    1  UNL1       -0.2550
     21 C           8.4072   -1.1700    1.5448 C.ar    1  UNL1        0.0283
     22 C           8.6072    0.1108    1.0986 C.ar    1  UNL1       -0.0430
     23 C           7.5207    0.8386    0.6948 C.ar    1  UNL1       -0.0511
     24 C           6.2789    0.2442    0.7581 C.ar    1  UNL1        0.0021
     25 C           5.1413    0.9560    0.3481 C.ar    1  UNL1       -0.0313
     26 N           0.7317    1.2776   -1.2649 N.ar    1  UNL1       -0.2067
     27 C          -3.1778   -0.3469   -1.7167 C.2     1  UNL1        0.3182
     28 O          -4.3294   -0.7324   -2.1208 O.2     1  UNL1       -0.2498
     29 O          -2.2401   -1.3538   -1.5822 O.3     1  UNL1       -0.4798
     30 H          -6.0331   -1.9905   -0.2753 H       1  UNL1        0.0230
     31 H          -6.7817   -0.3231   -0.6202 H       1  UNL1        0.0230
     32 H          -7.6899   -1.6112    0.1762 H       1  UNL1        0.0230
     33 H          -5.2337   -1.2585    1.6818 H       1  UNL1        0.0263
     34 H          -6.9085   -1.1077    2.2184 H       1  UNL1        0.0263
     35 H          -6.9296    1.2486    1.4211 H       1  UNL1        0.0265
     36 H          -5.6961    0.9764    2.6782 H       1  UNL1        0.0265
     37 H          -5.2825    1.3069   -0.3445 H       1  UNL1        0.0265
     38 H          -4.8722    2.4068    0.9906 H       1  UNL1        0.0265
     39 H          -3.2389    0.7588    1.9619 H       1  UNL1        0.0266
     40 H          -3.6240   -0.3757    0.6626 H       1  UNL1        0.0266
     41 H          -1.5733    0.7514    0.1813 H       1  UNL1        0.0281
     42 H          -2.3749    2.3950    0.2054 H       1  UNL1        0.0281
     43 H          -3.8530    1.6510   -1.7044 H       1  UNL1        0.0531
     44 H           3.0422   -1.1306   -1.4548 H       1  UNL1        0.0682
     45 H           2.5803    2.0533    0.3638 H       1  UNL1        0.1536
     46 H           2.7782   -1.3831    0.9038 H       1  UNL1        0.0637
     47 H           4.7439   -2.6486    1.6227 H       1  UNL1        0.0639
     48 H           9.2468   -1.7543    1.8677 H       1  UNL1        0.0830
     49 H           9.5847    0.5608    1.0559 H       1  UNL1        0.0633
     50 H           7.6010    1.8573    0.3290 H       1  UNL1        0.0625
     51 H           5.3121    1.9619    0.0010 H       1  UNL1        0.0643
     52 H          -2.5435   -2.3253   -1.4670 H       1  UNL1        0.2951
@<TRIPOS>BOND
     1     1     2    1
     2     2     3    1
     3     3     4    1
     4     4     5    1
     5     5     6    1
     6     6     7    1
     7     7     8    1
     8     8     9    1
     9     9    10   ar
    10    10    11   ar
    11    11    12    1
    12    11    13   ar
    13    13    14   ar
    14    14    15    1
    15    15    16    1
    16    16    17   ar
    17    17    18   ar
    18    18    19   ar
    19    19    20   ar
    20    20    21   ar
    21    21    22   ar
    22    22    23   ar
    23    23    24   ar
    24    24    25   ar
    25    14    26   ar
    26     7    27    1
    27    27    28    2
    28    27    29    1
    29    26     9   ar
    30    25    16   ar
    31    24    19   ar
    32     1    30    1
    33     1    31    1
    34     1    32    1
    35     2    33    1
    36     2    34    1
    37     3    35    1
    38     3    36    1
    39     4    37    1
    40     4    38    1
    41     5    39    1
    42     5    40    1
    43     6    41    1
    44     6    42    1
    45     7    43    1
    46    13    44    1
    47    15    45    1
    48    17    46    1
    49    18    47    1
    50    21    48    1
    51    22    49    1
    52    23    50    1
    53    25    51    1
    54    29    52    1
