@<TRIPOS>MOLECULE
*****
 19 20 0 0 0
SMALL
GASTEIGER

@<TRIPOS>ATOM
      1 N          -3.3027    0.2798   -0.3072 N.pl3   1  UNL1       -0.3579
      2 C          -1.9369   -0.0976   -0.1560 C.ar    1  UNL1        0.0252
      3 C          -1.5482   -1.4131   -0.0025 C.ar    1  UNL1       -0.0390
      4 C          -0.2255   -1.7764    0.1438 C.ar    1  UNL1       -0.0340
      5 C           0.7778   -0.8319    0.1431 C.ar    1  UNL1        0.0711
      6 N           2.0594   -1.2048    0.2868 N.ar    1  UNL1       -0.2550
      7 C           3.0366   -0.2589    0.2838 C.ar    1  UNL1        0.0283
      8 C           2.7265    1.0761    0.1353 C.ar    1  UNL1       -0.0430
      9 C           1.4029    1.4313   -0.0103 C.ar    1  UNL1       -0.0511
     10 C           0.3934    0.4846   -0.0101 C.ar    1  UNL1        0.0021
     11 C          -0.9272    0.8574   -0.1570 C.ar    1  UNL1       -0.0319
     12 H          -3.6751    1.1977    0.0175 H       1  UNL1        0.1423
     13 H          -3.9551   -0.3771   -0.7552 H       1  UNL1        0.1423
     14 H          -2.3246   -2.1872    0.0019 H       1  UNL1        0.0637
     15 H           0.0320   -2.8382    0.2628 H       1  UNL1        0.0639
     16 H           4.0854   -0.5154    0.3969 H       1  UNL1        0.0830
     17 H           3.4985    1.8201    0.1332 H       1  UNL1        0.0633
     18 H           1.1078    2.4584   -0.1294 H       1  UNL1        0.0625
     19 H          -1.2250    1.8953   -0.2773 H       1  UNL1        0.0642
@<TRIPOS>BOND
     1     1     2    1
     2     2     3   ar
     3     3     4   ar
     4     4     5   ar
     5     5     6   ar
     6     6     7   ar
     7     7     8   ar
     8     8     9   ar
     9     9    10   ar
    10    10    11   ar
    11    11     2   ar
    12    10     5   ar
    13     1    12    1
    14     1    13    1
    15     3    14    1
    16     4    15    1
    17     7    16    1
    18     8    17    1
    19     9    18    1
    20    11    19    1
