@<TRIPOS>MOLECULE
*****
 72 76 0 0 0
SMALL
GASTEIGER

@<TRIPOS>ATOM
      1 C           6.7104   -1.8845   -0.5430 C.3     1  UNL1       -0.0366
      2 C           7.6883   -0.7837   -0.3608 C.ar    1  UNL1       -0.0111
      3 C           9.0291   -1.1362   -0.3440 C.ar    1  UNL1        0.0456
      4 CL          9.5024   -2.8294   -0.5459 Cl      1  UNL1       -0.0832
      5 C           9.9884   -0.1642   -0.1698 C.ar    1  UNL1       -0.0430
      6 C           9.6866    1.1510   -0.0099 C.ar    1  UNL1       -0.0586
      7 C           8.3543    1.5042   -0.0265 C.ar    1  UNL1       -0.0403
      8 C           7.3563    0.5297   -0.2031 C.ar    1  UNL1        0.0341
      9 N           6.0151    0.9464   -0.2190 N.pl3   1  UNL1       -0.3272
     10 C           5.2214    0.8168   -1.4085 C.3     1  UNL1        0.0250
     11 C           3.7768    0.6665   -0.9850 C.3     1  UNL1        0.0147
     12 N           3.5627    0.1149    0.2884 N.3     1  UNL1       -0.2993
     13 C           2.8915   -1.1256    0.3918 C.3     1  UNL1        0.0004
     14 C           1.4276   -0.9191   -0.0169 C.3     1  UNL1       -0.0245
     15 C           0.8469    0.0911    0.9325 C.3     1  UNL1        0.0131
     16 N          -0.5283    0.3746    0.6655 N.am    1  UNL1       -0.3100
     17 C          -1.5017   -0.6525    0.7239 C.2     1  UNL1        0.2642
     18 O          -1.1704   -1.8235    1.0086 O.2     1  UNL1       -0.2685
     19 C          -2.8868   -0.3129    0.4471 C.ar    1  UNL1        0.1470
     20 N          -3.4443    0.8557    0.1301 N.ar    1  UNL1       -0.2223
     21 C          -4.7787    0.7382   -0.0430 C.ar    1  UNL1        0.1463
     22 C          -5.6885    1.8341   -0.3957 C.ar    1  UNL1        0.0178
     23 C          -6.7447    2.2150    0.4050 C.ar    1  UNL1       -0.0511
     24 C          -7.5776    3.2681    0.0171 C.ar    1  UNL1       -0.0611
     25 C          -7.3457    3.9347   -1.1747 C.ar    1  UNL1       -0.0617
     26 C          -6.2979    3.5651   -1.9803 C.ar    1  UNL1       -0.0611
     27 C          -5.4989    2.5284   -1.5722 C.ar    1  UNL1       -0.0511
     28 N          -5.0710   -0.5525    0.1732 N.ar    1  UNL1       -0.2960
     29 C          -6.3533   -1.1545    0.1071 C.ar    1  UNL1        0.0483
     30 C          -7.0917   -1.1824   -1.0612 C.ar    1  UNL1       -0.0378
     31 C          -8.3368   -1.7783   -1.0882 C.ar    1  UNL1       -0.0598
     32 C          -8.8965   -2.3679    0.0382 C.ar    1  UNL1       -0.0616
     33 C          -8.1471   -2.3317    1.1955 C.ar    1  UNL1       -0.0598
     34 C          -6.9019   -1.7428    1.2478 C.ar    1  UNL1       -0.0378
     35 C          -3.9485   -1.2246    0.4737 C.ar    1  UNL1        0.0530
     36 C          -3.7776   -2.6792    0.7904 C.3     1  UNL1       -0.0216
     37 C           4.3144    0.5734    1.3863 C.3     1  UNL1        0.0147
     38 C           5.4182    1.5199    0.9931 C.3     1  UNL1        0.0250
     39 H           7.1179   -2.7555    0.0311 H       1  UNL1        0.0279
     40 H           5.6978   -1.6165   -0.1797 H       1  UNL1        0.0279
     41 H           6.6156   -2.1668   -1.6050 H       1  UNL1        0.0279
     42 H          11.0359   -0.4612   -0.1591 H       1  UNL1        0.0632
     43 H          10.4182    1.9364    0.1292 H       1  UNL1        0.0619
     44 H           8.0365    2.5299    0.0941 H       1  UNL1        0.0636
     45 H           5.5130   -0.0809   -1.9791 H       1  UNL1        0.0476
     46 H           5.2961    1.7191   -2.0659 H       1  UNL1        0.0476
     47 H           3.2790    1.6761   -1.0629 H       1  UNL1        0.0442
     48 H           3.2399    0.0370   -1.7383 H       1  UNL1        0.0442
     49 H           3.3044   -1.8345   -0.3702 H       1  UNL1        0.0427
     50 H           2.9479   -1.5873    1.3981 H       1  UNL1        0.0427
     51 H           0.9038   -1.8746   -0.0288 H       1  UNL1        0.0293
     52 H           1.3781   -0.5058   -1.0430 H       1  UNL1        0.0293
     53 H           0.8822   -0.3163    1.9874 H       1  UNL1        0.0462
     54 H           1.4766    1.0067    0.9838 H       1  UNL1        0.0462
     55 H          -0.7951    1.3791    0.4228 H       1  UNL1        0.1490
     56 H          -6.9228    1.6947    1.3317 H       1  UNL1        0.0625
     57 H          -8.4025    3.5742    0.6306 H       1  UNL1        0.0618
     58 H          -7.9721    4.7565   -1.5066 H       1  UNL1        0.0618
     59 H          -6.1298    4.1043   -2.9197 H       1  UNL1        0.0618
     60 H          -4.6692    2.2249   -2.1959 H       1  UNL1        0.0625
     61 H          -6.6816   -0.7277   -1.9670 H       1  UNL1        0.0638
     62 H          -8.9437   -1.8193   -1.9839 H       1  UNL1        0.0618
     63 H          -9.8834   -2.8325   -0.0116 H       1  UNL1        0.0618
     64 H          -8.5405   -2.7788    2.1037 H       1  UNL1        0.0618
     65 H          -6.3486   -1.7429    2.1981 H       1  UNL1        0.0638
     66 H          -3.4334   -2.7826    1.8311 H       1  UNL1        0.0293
     67 H          -4.7377   -3.2054    0.6134 H       1  UNL1        0.0293
     68 H          -3.0132   -3.0481    0.0522 H       1  UNL1        0.0293
     69 H           3.6250    1.1558    2.0610 H       1  UNL1        0.0442
     70 H           4.7204   -0.3185    1.9300 H       1  UNL1        0.0442
     71 H           5.0396    2.5379    0.8267 H       1  UNL1        0.0476
     72 H           6.1433    1.5401    1.8201 H       1  UNL1        0.0476
@<TRIPOS>BOND
     1     1     2    1
     2     2     3   ar
     3     3     4    1
     4     3     5   ar
     5     5     6   ar
     6     6     7   ar
     7     7     8   ar
     8     8     9    1
     9     9    10    1
    10    10    11    1
    11    11    12    1
    12    12    13    1
    13    13    14    1
    14    14    15    1
    15    15    16    1
    16    16    17   am
    17    17    18    2
    18    17    19    1
    19    19    20   ar
    20    20    21   ar
    21    21    22    1
    22    22    23   ar
    23    23    24   ar
    24    24    25   ar
    25    25    26   ar
    26    26    27   ar
    27    21    28   ar
    28    28    29    1
    29    29    30   ar
    30    30    31   ar
    31    31    32   ar
    32    32    33   ar
    33    33    34   ar
    34    28    35   ar
    35    35    36    1
    36    12    37    1
    37    37    38    1
    38     8     2   ar
    39    38     9    1
    40    35    19   ar
    41    27    22   ar
    42    34    29   ar
    43     1    39    1
    44     1    40    1
    45     1    41    1
    46     5    42    1
    47     6    43    1
    48     7    44    1
    49    10    45    1
    50    10    46    1
    51    11    47    1
    52    11    48    1
    53    13    49    1
    54    13    50    1
    55    14    51    1
    56    14    52    1
    57    15    53    1
    58    15    54    1
    59    16    55    1
    60    23    56    1
    61    24    57    1
    62    25    58    1
    63    26    59    1
    64    27    60    1
    65    30    61    1
    66    31    62    1
    67    32    63    1
    68    33    64    1
    69    34    65    1
    70    36    66    1
    71    36    67    1
    72    36    68    1
    73    37    69    1
    74    37    70    1
    75    38    71    1
    76    38    72    1
