@<TRIPOS>MOLECULE
*****
 64 67 0 0 0
SMALL
GASTEIGER

@<TRIPOS>ATOM
      1 C          -5.5910   -3.9019    0.8487 C.3     1  UNL1       -0.0652
      2 C          -5.7044   -2.7046   -0.0683 C.3     1  UNL1       -0.0545
      3 C          -5.0310   -3.0428   -1.3765 C.3     1  UNL1       -0.0376
      4 C          -5.0948   -1.9014   -2.3594 C.3     1  UNL1        0.0118
      5 N          -4.4698   -0.6985   -1.9107 N.pl3   1  UNL1       -0.3134
      6 C          -3.0831   -0.6611   -1.5982 C.ar    1  UNL1        0.2169
      7 N          -2.3552   -1.7735   -1.7353 N.ar    1  UNL1       -0.2222
      8 C          -1.0323   -1.7983   -1.4539 C.ar    1  UNL1        0.0437
      9 C          -0.3715   -0.6724   -1.0110 C.ar    1  UNL1        0.0600
     10 C           1.0721   -0.7061   -0.7070 C.ar    1  UNL1        0.0981
     11 C           1.8204   -1.8632   -0.8525 C.ar    1  UNL1       -0.0317
     12 C           3.1893   -1.8397   -0.5504 C.ar    1  UNL1       -0.0319
     13 C           3.8200   -0.7102   -0.1142 C.ar    1  UNL1        0.0934
     14 C           5.2534   -0.6398    0.2137 C.ar    1  UNL1        0.0029
     15 C           5.7948    0.5738    0.6523 C.ar    1  UNL1       -0.0525
     16 C           7.1240    0.7137    0.9755 C.ar    1  UNL1       -0.0604
     17 C           7.9356   -0.3934    0.8564 C.ar    1  UNL1       -0.0477
     18 C           7.4505   -1.6058    0.4302 C.ar    1  UNL1        0.0595
     19 C           8.3365   -2.7292    0.3225 C.2     1  UNL1        0.3368
     20 O           9.5531   -2.6087    0.6159 O.2     1  UNL1       -0.2451
     21 O           7.9409   -3.9935   -0.0979 O.3     1  UNL1       -0.4771
     22 C           6.1027   -1.7024    0.1144 C.ar    1  UNL1       -0.0385
     23 N           3.0452    0.3860    0.0094 N.ar    1  UNL1       -0.1487
     24 N           1.7647    0.3528   -0.2762 N.ar    1  UNL1       -0.1485
     25 C          -1.1128    0.4608   -0.8713 C.ar    1  UNL1        0.1333
     26 N          -0.6194    1.6889   -0.4370 N.pl3   1  UNL1       -0.3256
     27 C          -1.4788    2.8706   -0.3102 C.3     1  UNL1        0.0221
     28 C          -2.5956    2.6499    0.6544 C.3     1  UNL1       -0.0322
     29 C          -2.8895    3.8857    1.4646 C.3     1  UNL1       -0.0252
     30 C          -1.7106    4.2365    2.3565 C.3     1  UNL1        0.0554
     31 O          -1.8044    5.5145    2.8636 O.3     1  UNL1       -0.3918
     32 C          -0.4431    4.1073    1.5776 C.3     1  UNL1       -0.0252
     33 C          -0.7209    4.0996    0.0904 C.3     1  UNL1       -0.0322
     34 N          -2.4558    0.4275   -1.1725 N.ar    1  UNL1       -0.1991
     35 H          -5.1071   -4.7683    0.3596 H       1  UNL1        0.0230
     36 H          -4.9427   -3.6550    1.7345 H       1  UNL1        0.0230
     37 H          -6.6002   -4.2451    1.2023 H       1  UNL1        0.0230
     38 H          -6.8037   -2.5147   -0.2273 H       1  UNL1        0.0263
     39 H          -5.2167   -1.8374    0.4175 H       1  UNL1        0.0263
     40 H          -5.5951   -3.8896   -1.8417 H       1  UNL1        0.0280
     41 H          -4.0112   -3.3748   -1.1660 H       1  UNL1        0.0280
     42 H          -4.5971   -2.2803   -3.2987 H       1  UNL1        0.0462
     43 H          -6.1453   -1.6924   -2.6473 H       1  UNL1        0.0462
     44 H          -5.0232    0.1817   -1.8031 H       1  UNL1        0.1489
     45 H          -0.4684   -2.7108   -1.5736 H       1  UNL1        0.0838
     46 H           1.3590   -2.7634   -1.1913 H       1  UNL1        0.0640
     47 H           3.7457   -2.7562   -0.6734 H       1  UNL1        0.0640
     48 H           5.1088    1.4214    0.7297 H       1  UNL1        0.0624
     49 H           7.5211    1.6765    1.3167 H       1  UNL1        0.0618
     50 H           8.9954   -0.2547    1.1212 H       1  UNL1        0.0626
     51 H           8.6202   -4.5700   -0.5903 H       1  UNL1        0.2954
     52 H           5.7042   -2.6519   -0.2234 H       1  UNL1        0.0632
     53 H           0.3550    1.8562   -0.1796 H       1  UNL1        0.1478
     54 H          -1.9011    3.0579   -1.3213 H       1  UNL1        0.0498
     55 H          -2.3652    1.8379    1.3994 H       1  UNL1        0.0284
     56 H          -3.5284    2.4084    0.0935 H       1  UNL1        0.0284
     57 H          -3.8035    3.6776    2.0822 H       1  UNL1        0.0291
     58 H          -3.1200    4.7706    0.8585 H       1  UNL1        0.0291
     59 H          -1.6921    3.5262    3.2333 H       1  UNL1        0.0593
     60 H          -1.3549    6.2046    2.3098 H       1  UNL1        0.2098
     61 H           0.2756    4.9476    1.7956 H       1  UNL1        0.0291
     62 H           0.0825    3.1614    1.8520 H       1  UNL1        0.0291
     63 H          -1.3448    4.9860   -0.1335 H       1  UNL1        0.0284
     64 H           0.2141    4.2294   -0.4979 H       1  UNL1        0.0284
@<TRIPOS>BOND
     1     1     2    1
     2     2     3    1
     3     3     4    1
     4     4     5    1
     5     5     6    1
     6     6     7   ar
     7     7     8   ar
     8     8     9   ar
     9     9    10    1
    10    10    11   ar
    11    11    12   ar
    12    12    13   ar
    13    13    14    1
    14    14    15   ar
    15    15    16   ar
    16    16    17   ar
    17    17    18   ar
    18    18    19    1
    19    19    20    2
    20    19    21    1
    21    18    22   ar
    22    13    23   ar
    23    23    24   ar
    24     9    25   ar
    25    25    26    1
    26    26    27    1
    27    27    28    1
    28    28    29    1
    29    29    30    1
    30    30    31    1
    31    30    32    1
    32    32    33    1
    33    25    34   ar
    34    34     6   ar
    35    24    10   ar
    36    33    27    1
    37    22    14   ar
    38     1    35    1
    39     1    36    1
    40     1    37    1
    41     2    38    1
    42     2    39    1
    43     3    40    1
    44     3    41    1
    45     4    42    1
    46     4    43    1
    47     5    44    1
    48     8    45    1
    49    11    46    1
    50    12    47    1
    51    15    48    1
    52    16    49    1
    53    17    50    1
    54    21    51    1
    55    22    52    1
    56    26    53    1
    57    27    54    1
    58    28    55    1
    59    28    56    1
    60    29    57    1
    61    29    58    1
    62    30    59    1
    63    31    60    1
    64    32    61    1
    65    32    62    1
    66    33    63    1
    67    33    64    1
