
     RDKit          3D

 64 67  0  0  0  0  0  0  0  0999 V2000
   -5.5910   -3.9019    0.8487 C   0  0  0  0  0  0  0  0  0  0  0  0
   -5.7044   -2.7046   -0.0683 C   0  0  0  0  0  0  0  0  0  0  0  0
   -5.0310   -3.0428   -1.3765 C   0  0  0  0  0  0  0  0  0  0  0  0
   -5.0948   -1.9014   -2.3594 C   0  0  0  0  0  0  0  0  0  0  0  0
   -4.4698   -0.6985   -1.9107 N   0  0  0  0  0  0  0  0  0  0  0  0
   -3.0831   -0.6611   -1.5982 C   0  0  0  0  0  0  0  0  0  0  0  0
   -2.3552   -1.7735   -1.7353 N   0  0  0  0  0  0  0  0  0  0  0  0
   -1.0323   -1.7983   -1.4539 C   0  0  0  0  0  0  0  0  0  0  0  0
   -0.3715   -0.6724   -1.0110 C   0  0  0  0  0  0  0  0  0  0  0  0
    1.0721   -0.7061   -0.7070 C   0  0  0  0  0  0  0  0  0  0  0  0
    1.8204   -1.8632   -0.8525 C   0  0  0  0  0  0  0  0  0  0  0  0
    3.1893   -1.8397   -0.5504 C   0  0  0  0  0  0  0  0  0  0  0  0
    3.8200   -0.7102   -0.1142 C   0  0  0  0  0  0  0  0  0  0  0  0
    5.2534   -0.6398    0.2137 C   0  0  0  0  0  0  0  0  0  0  0  0
    5.7948    0.5738    0.6523 C   0  0  0  0  0  0  0  0  0  0  0  0
    7.1240    0.7137    0.9755 C   0  0  0  0  0  0  0  0  0  0  0  0
    7.9356   -0.3934    0.8564 C   0  0  0  0  0  0  0  0  0  0  0  0
    7.4505   -1.6058    0.4302 C   0  0  0  0  0  0  0  0  0  0  0  0
    8.3365   -2.7292    0.3225 C   0  0  0  0  0  0  0  0  0  0  0  0
    9.5531   -2.6087    0.6159 O   0  0  0  0  0  0  0  0  0  0  0  0
    7.9409   -3.9935   -0.0979 O   0  0  0  0  0  0  0  0  0  0  0  0
    6.1027   -1.7024    0.1144 C   0  0  0  0  0  0  0  0  0  0  0  0
    3.0452    0.3860    0.0094 N   0  0  0  0  0  0  0  0  0  0  0  0
    1.7647    0.3528   -0.2762 N   0  0  0  0  0  0  0  0  0  0  0  0
   -1.1128    0.4608   -0.8713 C   0  0  0  0  0  0  0  0  0  0  0  0
   -0.6194    1.6889   -0.4370 N   0  0  0  0  0  0  0  0  0  0  0  0
   -1.4788    2.8706   -0.3102 C   0  0  1  0  0  0  0  0  0  0  0  0
   -2.5956    2.6499    0.6544 C   0  0  0  0  0  0  0  0  0  0  0  0
   -2.8895    3.8857    1.4646 C   0  0  0  0  0  0  0  0  0  0  0  0
   -1.7106    4.2365    2.3565 C   0  0  2  0  0  0  0  0  0  0  0  0
   -1.8044    5.5145    2.8636 O   0  0  0  0  0  0  0  0  0  0  0  0
   -0.4431    4.1073    1.5776 C   0  0  0  0  0  0  0  0  0  0  0  0
   -0.7209    4.0996    0.0904 C   0  0  0  0  0  0  0  0  0  0  0  0
   -2.4558    0.4275   -1.1725 N   0  0  0  0  0  0  0  0  0  0  0  0
   -5.1071   -4.7683    0.3596 H   0  0  0  0  0  0  0  0  0  0  0  0
   -4.9427   -3.6550    1.7345 H   0  0  0  0  0  0  0  0  0  0  0  0
   -6.6002   -4.2451    1.2023 H   0  0  0  0  0  0  0  0  0  0  0  0
   -6.8037   -2.5147   -0.2273 H   0  0  0  0  0  0  0  0  0  0  0  0
   -5.2167   -1.8374    0.4175 H   0  0  0  0  0  0  0  0  0  0  0  0
   -5.5951   -3.8896   -1.8417 H   0  0  0  0  0  0  0  0  0  0  0  0
   -4.0112   -3.3748   -1.1660 H   0  0  0  0  0  0  0  0  0  0  0  0
   -4.5971   -2.2803   -3.2987 H   0  0  0  0  0  0  0  0  0  0  0  0
   -6.1453   -1.6924   -2.6473 H   0  0  0  0  0  0  0  0  0  0  0  0
   -5.0232    0.1817   -1.8031 H   0  0  0  0  0  0  0  0  0  0  0  0
   -0.4684   -2.7108   -1.5736 H   0  0  0  0  0  0  0  0  0  0  0  0
    1.3590   -2.7634   -1.1913 H   0  0  0  0  0  0  0  0  0  0  0  0
    3.7457   -2.7562   -0.6734 H   0  0  0  0  0  0  0  0  0  0  0  0
    5.1088    1.4214    0.7297 H   0  0  0  0  0  0  0  0  0  0  0  0
    7.5211    1.6765    1.3167 H   0  0  0  0  0  0  0  0  0  0  0  0
    8.9954   -0.2547    1.1212 H   0  0  0  0  0  0  0  0  0  0  0  0
    8.6202   -4.5700   -0.5903 H   0  0  0  0  0  0  0  0  0  0  0  0
    5.7042   -2.6519   -0.2234 H   0  0  0  0  0  0  0  0  0  0  0  0
    0.3550    1.8562   -0.1796 H   0  0  0  0  0  0  0  0  0  0  0  0
   -1.9011    3.0579   -1.3213 H   0  0  0  0  0  0  0  0  0  0  0  0
   -2.3652    1.8379    1.3994 H   0  0  0  0  0  0  0  0  0  0  0  0
   -3.5284    2.4084    0.0935 H   0  0  0  0  0  0  0  0  0  0  0  0
   -3.8035    3.6776    2.0822 H   0  0  0  0  0  0  0  0  0  0  0  0
   -3.1200    4.7706    0.8585 H   0  0  0  0  0  0  0  0  0  0  0  0
   -1.6921    3.5262    3.2333 H   0  0  0  0  0  0  0  0  0  0  0  0
   -1.3549    6.2046    2.3098 H   0  0  0  0  0  0  0  0  0  0  0  0
    0.2756    4.9476    1.7956 H   0  0  0  0  0  0  0  0  0  0  0  0
    0.0825    3.1614    1.8520 H   0  0  0  0  0  0  0  0  0  0  0  0
   -1.3448    4.9860   -0.1335 H   0  0  0  0  0  0  0  0  0  0  0  0
    0.2141    4.2294   -0.4979 H   0  0  0  0  0  0  0  0  0  0  0  0
  1  2  1  0
  2  3  1  0
  3  4  1  0
  4  5  1  0
  5  6  1  0
  6  7  2  0
  7  8  1  0
  8  9  2  0
  9 10  1  0
 10 11  2  0
 11 12  1  0
 12 13  2  0
 13 14  1  0
 14 15  2  0
 15 16  1  0
 16 17  2  0
 17 18  1  0
 18 19  1  0
 19 20  2  0
 19 21  1  0
 18 22  2  0
 13 23  1  0
 23 24  2  0
  9 25  1  0
 25 26  1  0
 26 27  1  0
 27 28  1  0
 28 29  1  0
 29 30  1  0
 30 31  1  0
 30 32  1  0
 32 33  1  0
 25 34  2  0
 34  6  1  0
 24 10  1  0
 33 27  1  0
 22 14  1  0
  1 35  1  0
  1 36  1  0
  1 37  1  0
  2 38  1  0
  2 39  1  0
  3 40  1  0
  3 41  1  0
  4 42  1  0
  4 43  1  0
  5 44  1  0
  8 45  1  0
 11 46  1  0
 12 47  1  0
 15 48  1  0
 16 49  1  0
 17 50  1  0
 21 51  1  0
 22 52  1  0
 26 53  1  0
 27 54  1  6
 28 55  1  0
 28 56  1  0
 29 57  1  0
 29 58  1  0
 30 59  1  1
 31 60  1  0
 32 61  1  0
 32 62  1  0
 33 63  1  0
 33 64  1  0
M  END
$$$$
