@<TRIPOS>MOLECULE
*****
 83 83 0 0 0
SMALL
GASTEIGER

@<TRIPOS>ATOM
      1 C          -4.6217    6.8095   -0.1235 C.3     1  UNL1       -0.0397
      2 C          -4.7647    5.3721   -0.5118 C.ar    1  UNL1       -0.0503
      3 C          -4.9345    4.3739    0.4225 C.ar    1  UNL1       -0.0570
      4 C          -5.0616    3.0574    0.0450 C.ar    1  UNL1       -0.0351
      5 C          -5.0205    2.7158   -1.2854 C.ar    1  UNL1        0.1053
      6 S          -5.1592    1.0568   -1.8274 S.O2    1  UNL1        0.0591
      7 O          -5.8130    1.0649   -3.1723 O.2     1  UNL1       -0.1530
      8 O          -5.9467    0.2924   -0.8160 O.2     1  UNL1       -0.1530
      9 N          -3.5375    0.4520   -1.9692 N.3     1  UNL1       -0.1781
     10 C          -2.8607    0.4608   -0.7062 C.3     1  UNL1        0.1052
     11 C          -2.2781   -0.8981   -0.4096 C.3     1  UNL1       -0.0174
     12 C          -3.3422   -1.9831   -0.3824 C.3     1  UNL1        0.0469
     13 C          -2.7099   -3.3036   -0.0667 C.2     1  UNL1        0.3076
     14 O          -1.5083   -3.3283    0.2717 O.2     1  UNL1       -0.2508
     15 O          -3.4080   -4.4856   -0.1399 O.3     1  UNL1       -0.4589
     16 C          -2.8468   -5.7499    0.1603 C.3     1  UNL1        0.1052
     17 C          -3.9548   -6.7718   -0.1251 C.3     1  UNL1       -0.0254
     18 C          -1.6367   -6.1093   -0.6173 C.3     1  UNL1       -0.0254
     19 C          -2.5432   -5.8562    1.6490 C.3     1  UNL1       -0.0254
     20 C          -1.6513    1.3646   -0.8177 C.2     1  UNL1        0.2323
     21 O          -1.4932    1.9880   -1.8800 O.2     1  UNL1       -0.2740
     22 N          -0.7150    1.5131    0.2293 N.am    1  UNL1       -0.3029
     23 C           0.4600    2.3464    0.1937 C.3     1  UNL1        0.0966
     24 C           0.6452    3.2390    1.3683 C.3     1  UNL1       -0.0381
     25 C           1.6360    1.4167    0.0792 C.2     1  UNL1        0.2335
     26 O           1.4680    0.1620   -0.0644 O.2     1  UNL1       -0.2738
     27 N           2.9592    1.9015    0.1313 N.am    1  UNL1       -0.3075
     28 C           4.0742    0.9629    0.0210 C.3     1  UNL1        0.0432
     29 C           4.6806    0.7351    1.3508 C.2     1  UNL1       -0.0464
     30 C           4.3906   -0.3575    2.0338 C.2     1  UNL1        0.0495
     31 S           5.0746   -0.6726    3.5956 S.O2    1  UNL1       -0.0127
     32 C           6.5647   -1.6127    3.3987 C.3     1  UNL1        0.0589
     33 O           5.4111    0.6469    4.2552 O.2     1  UNL1       -0.1702
     34 O           4.0428   -1.3778    4.4175 O.2     1  UNL1       -0.1702
     35 C           5.1070    1.3714   -0.9677 C.3     1  UNL1       -0.0285
     36 C           6.1944    0.2990   -0.9771 C.3     1  UNL1       -0.0448
     37 C           5.6667   -1.0543   -1.3746 C.3     1  UNL1       -0.0626
     38 C           7.3558    0.6636   -1.8493 C.3     1  UNL1       -0.0626
     39 C          -4.8530    3.6979   -2.2281 C.ar    1  UNL1       -0.0351
     40 C          -4.7263    5.0189   -1.8285 C.ar    1  UNL1       -0.0570
     41 H          -5.5855    7.3279   -0.2422 H       1  UNL1        0.0278
     42 H          -4.3677    6.8647    0.9729 H       1  UNL1        0.0278
     43 H          -3.8228    7.2868   -0.7125 H       1  UNL1        0.0278
     44 H          -4.9759    4.6341    1.4632 H       1  UNL1        0.0621
     45 H          -5.1990    2.2685    0.7896 H       1  UNL1        0.0637
     46 H          -2.9921    0.9983   -2.6566 H       1  UNL1        0.1489
     47 H          -3.5147    0.8046    0.1053 H       1  UNL1        0.0573
     48 H          -1.6919   -0.8886    0.5474 H       1  UNL1        0.0291
     49 H          -1.5467   -1.1927   -1.2226 H       1  UNL1        0.0291
     50 H          -4.1006   -1.7077    0.3513 H       1  UNL1        0.0378
     51 H          -3.7785   -2.0515   -1.3951 H       1  UNL1        0.0378
     52 H          -4.0483   -6.8356   -1.2334 H       1  UNL1        0.0268
     53 H          -3.6921   -7.7755    0.2657 H       1  UNL1        0.0268
     54 H          -4.9119   -6.3826    0.2610 H       1  UNL1        0.0268
     55 H          -1.9320   -6.8060   -1.4473 H       1  UNL1        0.0268
     56 H          -0.9103   -6.6903    0.0024 H       1  UNL1        0.0268
     57 H          -1.1638   -5.2242   -1.1096 H       1  UNL1        0.0268
     58 H          -1.4983   -6.1345    1.8511 H       1  UNL1        0.0268
     59 H          -3.1976   -6.6221    2.1371 H       1  UNL1        0.0268
     60 H          -2.7995   -4.8910    2.1260 H       1  UNL1        0.0268
     61 H          -0.8919    0.9675    1.1094 H       1  UNL1        0.1495
     62 H           0.5136    2.9529   -0.7498 H       1  UNL1        0.0592
     63 H          -0.3344    3.5460    1.8363 H       1  UNL1        0.0252
     64 H           1.2690    2.7855    2.1713 H       1  UNL1        0.0252
     65 H           1.1501    4.1976    1.0947 H       1  UNL1        0.0252
     66 H           3.1221    2.9150    0.2491 H       1  UNL1        0.1493
     67 H           3.6472   -0.0180   -0.2987 H       1  UNL1        0.0543
     68 H           5.3527    1.4507    1.7773 H       1  UNL1        0.0603
     69 H           3.6875   -1.0913    1.5986 H       1  UNL1        0.0816
     70 H           6.2628   -2.6889    3.3565 H       1  UNL1        0.0468
     71 H           7.2624   -1.4294    4.2600 H       1  UNL1        0.0468
     72 H           7.1313   -1.3084    2.4994 H       1  UNL1        0.0468
     73 H           4.6163    1.4233   -1.9730 H       1  UNL1        0.0289
     74 H           5.5639    2.3338   -0.6986 H       1  UNL1        0.0289
     75 H           6.5888    0.1605    0.0738 H       1  UNL1        0.0296
     76 H           4.9038   -1.4751   -0.7257 H       1  UNL1        0.0232
     77 H           5.3311   -0.9588   -2.4284 H       1  UNL1        0.0232
     78 H           6.5481   -1.7396   -1.3624 H       1  UNL1        0.0232
     79 H           7.1162    0.5694   -2.9360 H       1  UNL1        0.0232
     80 H           7.7252    1.7082   -1.6325 H       1  UNL1        0.0232
     81 H           8.2241   -0.0142   -1.6747 H       1  UNL1        0.0232
     82 H          -4.8144    3.5031   -3.2944 H       1  UNL1        0.0637
     83 H          -4.5906    5.8057   -2.5883 H       1  UNL1        0.0621
@<TRIPOS>BOND
     1     1     2    1
     2     2     3   ar
     3     3     4   ar
     4     4     5   ar
     5     5     6    1
     6     6     7    2
     7     6     8    2
     8     6     9    1
     9     9    10    1
    10    10    11    1
    11    11    12    1
    12    12    13    1
    13    13    14    2
    14    13    15    1
    15    15    16    1
    16    16    17    1
    17    16    18    1
    18    16    19    1
    19    10    20    1
    20    20    21    2
    21    20    22   am
    22    22    23    1
    23    23    24    1
    24    23    25    1
    25    25    26    2
    26    25    27   am
    27    27    28    1
    28    28    29    1
    29    29    30    2
    30    30    31    1
    31    31    32    1
    32    31    33    2
    33    31    34    2
    34    28    35    1
    35    35    36    1
    36    36    37    1
    37    36    38    1
    38     5    39   ar
    39    39    40   ar
    40    40     2   ar
    41     1    41    1
    42     1    42    1
    43     1    43    1
    44     3    44    1
    45     4    45    1
    46     9    46    1
    47    10    47    1
    48    11    48    1
    49    11    49    1
    50    12    50    1
    51    12    51    1
    52    17    52    1
    53    17    53    1
    54    17    54    1
    55    18    55    1
    56    18    56    1
    57    18    57    1
    58    19    58    1
    59    19    59    1
    60    19    60    1
    61    22    61    1
    62    23    62    1
    63    24    63    1
    64    24    64    1
    65    24    65    1
    66    27    66    1
    67    28    67    1
    68    29    68    1
    69    30    69    1
    70    32    70    1
    71    32    71    1
    72    32    72    1
    73    35    73    1
    74    35    74    1
    75    36    75    1
    76    37    76    1
    77    37    77    1
    78    37    78    1
    79    38    79    1
    80    38    80    1
    81    38    81    1
    82    39    82    1
    83    40    83    1
