
     RDKit          3D

 83 83  0  0  0  0  0  0  0  0999 V2000
   -4.6217    6.8095   -0.1235 C   0  0  0  0  0  0  0  0  0  0  0  0
   -4.7647    5.3721   -0.5118 C   0  0  0  0  0  0  0  0  0  0  0  0
   -4.9345    4.3739    0.4225 C   0  0  0  0  0  0  0  0  0  0  0  0
   -5.0616    3.0574    0.0450 C   0  0  0  0  0  0  0  0  0  0  0  0
   -5.0205    2.7158   -1.2854 C   0  0  0  0  0  0  0  0  0  0  0  0
   -5.1592    1.0568   -1.8274 S   0  0  0  0  0  6  0  0  0  0  0  0
   -5.8130    1.0649   -3.1723 O   0  0  0  0  0  0  0  0  0  0  0  0
   -5.9467    0.2924   -0.8160 O   0  0  0  0  0  0  0  0  0  0  0  0
   -3.5375    0.4520   -1.9692 N   0  0  0  0  0  0  0  0  0  0  0  0
   -2.8607    0.4608   -0.7062 C   0  0  1  0  0  0  0  0  0  0  0  0
   -2.2781   -0.8981   -0.4096 C   0  0  0  0  0  0  0  0  0  0  0  0
   -3.3422   -1.9831   -0.3824 C   0  0  0  0  0  0  0  0  0  0  0  0
   -2.7099   -3.3036   -0.0667 C   0  0  0  0  0  0  0  0  0  0  0  0
   -1.5083   -3.3283    0.2717 O   0  0  0  0  0  0  0  0  0  0  0  0
   -3.4080   -4.4856   -0.1399 O   0  0  0  0  0  0  0  0  0  0  0  0
   -2.8468   -5.7499    0.1603 C   0  0  0  0  0  0  0  0  0  0  0  0
   -3.9548   -6.7718   -0.1251 C   0  0  0  0  0  0  0  0  0  0  0  0
   -1.6367   -6.1093   -0.6173 C   0  0  0  0  0  0  0  0  0  0  0  0
   -2.5432   -5.8562    1.6490 C   0  0  0  0  0  0  0  0  0  0  0  0
   -1.6513    1.3646   -0.8177 C   0  0  0  0  0  0  0  0  0  0  0  0
   -1.4932    1.9880   -1.8800 O   0  0  0  0  0  0  0  0  0  0  0  0
   -0.7150    1.5131    0.2293 N   0  0  0  0  0  0  0  0  0  0  0  0
    0.4600    2.3464    0.1937 C   0  0  1  0  0  0  0  0  0  0  0  0
    0.6452    3.2390    1.3683 C   0  0  0  0  0  0  0  0  0  0  0  0
    1.6360    1.4167    0.0792 C   0  0  0  0  0  0  0  0  0  0  0  0
    1.4680    0.1620   -0.0644 O   0  0  0  0  0  0  0  0  0  0  0  0
    2.9592    1.9015    0.1313 N   0  0  0  0  0  0  0  0  0  0  0  0
    4.0742    0.9629    0.0210 C   0  0  2  0  0  0  0  0  0  0  0  0
    4.6806    0.7351    1.3508 C   0  0  0  0  0  0  0  0  0  0  0  0
    4.3906   -0.3575    2.0338 C   0  0  0  0  0  0  0  0  0  0  0  0
    5.0746   -0.6726    3.5956 S   0  0  0  0  0  6  0  0  0  0  0  0
    6.5647   -1.6127    3.3987 C   0  0  0  0  0  0  0  0  0  0  0  0
    5.4111    0.6469    4.2552 O   0  0  0  0  0  0  0  0  0  0  0  0
    4.0428   -1.3778    4.4175 O   0  0  0  0  0  0  0  0  0  0  0  0
    5.1070    1.3714   -0.9677 C   0  0  0  0  0  0  0  0  0  0  0  0
    6.1944    0.2990   -0.9771 C   0  0  0  0  0  0  0  0  0  0  0  0
    5.6667   -1.0543   -1.3746 C   0  0  0  0  0  0  0  0  0  0  0  0
    7.3558    0.6636   -1.8493 C   0  0  0  0  0  0  0  0  0  0  0  0
   -4.8530    3.6979   -2.2281 C   0  0  0  0  0  0  0  0  0  0  0  0
   -4.7263    5.0189   -1.8285 C   0  0  0  0  0  0  0  0  0  0  0  0
   -5.5855    7.3279   -0.2422 H   0  0  0  0  0  0  0  0  0  0  0  0
   -4.3677    6.8647    0.9729 H   0  0  0  0  0  0  0  0  0  0  0  0
   -3.8228    7.2868   -0.7125 H   0  0  0  0  0  0  0  0  0  0  0  0
   -4.9759    4.6341    1.4632 H   0  0  0  0  0  0  0  0  0  0  0  0
   -5.1990    2.2685    0.7896 H   0  0  0  0  0  0  0  0  0  0  0  0
   -2.9921    0.9983   -2.6566 H   0  0  0  0  0  0  0  0  0  0  0  0
   -3.5147    0.8046    0.1053 H   0  0  0  0  0  0  0  0  0  0  0  0
   -1.6919   -0.8886    0.5474 H   0  0  0  0  0  0  0  0  0  0  0  0
   -1.5467   -1.1927   -1.2226 H   0  0  0  0  0  0  0  0  0  0  0  0
   -4.1006   -1.7077    0.3513 H   0  0  0  0  0  0  0  0  0  0  0  0
   -3.7785   -2.0515   -1.3951 H   0  0  0  0  0  0  0  0  0  0  0  0
   -4.0483   -6.8356   -1.2334 H   0  0  0  0  0  0  0  0  0  0  0  0
   -3.6921   -7.7755    0.2657 H   0  0  0  0  0  0  0  0  0  0  0  0
   -4.9119   -6.3826    0.2610 H   0  0  0  0  0  0  0  0  0  0  0  0
   -1.9320   -6.8060   -1.4473 H   0  0  0  0  0  0  0  0  0  0  0  0
   -0.9103   -6.6903    0.0024 H   0  0  0  0  0  0  0  0  0  0  0  0
   -1.1638   -5.2242   -1.1096 H   0  0  0  0  0  0  0  0  0  0  0  0
   -1.4983   -6.1345    1.8511 H   0  0  0  0  0  0  0  0  0  0  0  0
   -3.1976   -6.6221    2.1371 H   0  0  0  0  0  0  0  0  0  0  0  0
   -2.7995   -4.8910    2.1260 H   0  0  0  0  0  0  0  0  0  0  0  0
   -0.8919    0.9675    1.1094 H   0  0  0  0  0  0  0  0  0  0  0  0
    0.5136    2.9529   -0.7498 H   0  0  0  0  0  0  0  0  0  0  0  0
   -0.3344    3.5460    1.8363 H   0  0  0  0  0  0  0  0  0  0  0  0
    1.2690    2.7855    2.1713 H   0  0  0  0  0  0  0  0  0  0  0  0
    1.1501    4.1976    1.0947 H   0  0  0  0  0  0  0  0  0  0  0  0
    3.1221    2.9150    0.2491 H   0  0  0  0  0  0  0  0  0  0  0  0
    3.6472   -0.0180   -0.2987 H   0  0  0  0  0  0  0  0  0  0  0  0
    5.3527    1.4507    1.7773 H   0  0  0  0  0  0  0  0  0  0  0  0
    3.6875   -1.0913    1.5986 H   0  0  0  0  0  0  0  0  0  0  0  0
    6.2628   -2.6889    3.3565 H   0  0  0  0  0  0  0  0  0  0  0  0
    7.2624   -1.4294    4.2600 H   0  0  0  0  0  0  0  0  0  0  0  0
    7.1313   -1.3084    2.4994 H   0  0  0  0  0  0  0  0  0  0  0  0
    4.6163    1.4233   -1.9730 H   0  0  0  0  0  0  0  0  0  0  0  0
    5.5639    2.3338   -0.6986 H   0  0  0  0  0  0  0  0  0  0  0  0
    6.5888    0.1605    0.0738 H   0  0  0  0  0  0  0  0  0  0  0  0
    4.9038   -1.4751   -0.7257 H   0  0  0  0  0  0  0  0  0  0  0  0
    5.3311   -0.9588   -2.4284 H   0  0  0  0  0  0  0  0  0  0  0  0
    6.5481   -1.7396   -1.3624 H   0  0  0  0  0  0  0  0  0  0  0  0
    7.1162    0.5694   -2.9360 H   0  0  0  0  0  0  0  0  0  0  0  0
    7.7252    1.7082   -1.6325 H   0  0  0  0  0  0  0  0  0  0  0  0
    8.2241   -0.0142   -1.6747 H   0  0  0  0  0  0  0  0  0  0  0  0
   -4.8144    3.5031   -3.2944 H   0  0  0  0  0  0  0  0  0  0  0  0
   -4.5906    5.8057   -2.5883 H   0  0  0  0  0  0  0  0  0  0  0  0
  1  2  1  0
  2  3  2  0
  3  4  1  0
  4  5  2  0
  5  6  1  0
  6  7  2  0
  6  8  2  0
  6  9  1  0
  9 10  1  0
 10 11  1  0
 11 12  1  0
 12 13  1  0
 13 14  2  0
 13 15  1  0
 15 16  1  0
 16 17  1  0
 16 18  1  0
 16 19  1  0
 10 20  1  0
 20 21  2  0
 20 22  1  0
 22 23  1  0
 23 24  1  0
 23 25  1  0
 25 26  2  0
 25 27  1  0
 27 28  1  0
 28 29  1  0
 29 30  2  0
 30 31  1  0
 31 32  1  0
 31 33  2  0
 31 34  2  0
 28 35  1  0
 35 36  1  0
 36 37  1  0
 36 38  1  0
  5 39  1  0
 39 40  2  0
 40  2  1  0
  1 41  1  0
  1 42  1  0
  1 43  1  0
  3 44  1  0
  4 45  1  0
  9 46  1  0
 10 47  1  1
 11 48  1  0
 11 49  1  0
 12 50  1  0
 12 51  1  0
 17 52  1  0
 17 53  1  0
 17 54  1  0
 18 55  1  0
 18 56  1  0
 18 57  1  0
 19 58  1  0
 19 59  1  0
 19 60  1  0
 22 61  1  0
 23 62  1  6
 24 63  1  0
 24 64  1  0
 24 65  1  0
 27 66  1  0
 28 67  1  6
 29 68  1  0
 30 69  1  0
 32 70  1  0
 32 71  1  0
 32 72  1  0
 35 73  1  0
 35 74  1  0
 36 75  1  0
 37 76  1  0
 37 77  1  0
 37 78  1  0
 38 79  1  0
 38 80  1  0
 38 81  1  0
 39 82  1  0
 40 83  1  0
M  END
$$$$
