@<TRIPOS>MOLECULE
*****
 258 257 0 0 0
SMALL
GASTEIGER

@<TRIPOS>ATOM
      1 C          -1.6445    6.4279    1.9974 C.3     1  UNL1       -0.0653
      2 C          -1.9030    6.7552    0.5470 C.3     1  UNL1       -0.0559
      3 C          -1.0160    7.9094    0.0877 C.3     1  UNL1       -0.0533
      4 C          -1.2805    8.2355   -1.3775 C.3     1  UNL1       -0.0531
      5 C          -1.0070    7.0766   -2.2653 C.3     1  UNL1       -0.0531
      6 C          -1.2945    7.4369   -3.7250 C.3     1  UNL1       -0.0531
      7 C          -1.0084    6.2006   -4.5902 C.3     1  UNL1       -0.0531
      8 C          -1.2997    6.3926   -6.0377 C.3     1  UNL1       -0.0531
      9 C          -0.9693    5.1376   -6.8500 C.3     1  UNL1       -0.0531
     10 C          -1.7246    3.9859   -6.3181 C.3     1  UNL1       -0.0531
     11 C          -1.4978    2.6457   -7.0661 C.3     1  UNL1       -0.0531
     12 C          -2.2981    1.5965   -6.3243 C.3     1  UNL1       -0.0531
     13 C          -2.1435    0.2452   -6.9060 C.3     1  UNL1       -0.0531
     14 C          -2.8972   -0.7718   -6.0217 C.3     1  UNL1       -0.0530
     15 C          -4.3367   -0.4846   -5.9474 C.3     1  UNL1       -0.0526
     16 C          -5.1314   -1.3538   -4.9576 C.3     1  UNL1       -0.0430
     17 C          -4.5860   -1.1049   -3.5551 C.3     1  UNL1        0.0449
     18 C          -5.3294   -1.7731   -2.4869 C.2     1  UNL1        0.3072
     19 O          -6.2299   -2.5469   -2.0901 O.2     1  UNL1       -0.2509
     20 O          -4.7684   -1.3243   -1.3361 O.3     1  UNL1       -0.4608
     21 C          -5.1259   -1.6096    0.0030 C.3     1  UNL1        0.1315
     22 C          -4.2130   -0.8523    0.9313 C.3     1  UNL1        0.1605
     23 C          -3.9888    0.5489    0.2038 C.3     1  UNL1        0.0993
     24 O          -3.0190    1.2159    0.8983 O.3     1  UNL1       -0.2828
     25 P          -1.7544    1.7497   -0.1006 P.3     1  UNL1        0.4751
     26 O          -2.3090    2.4192   -1.5423 O.3     1  UNL1       -0.3025
     27 O          -1.0190    2.8340    0.6564 O.2     1  UNL1       -0.2273
     28 O          -0.6587    0.5155   -0.4390 O.3     1  UNL1       -0.2840
     29 C          -0.7267    0.0264   -1.7227 C.3     1  UNL1        0.0872
     30 C           0.0674   -1.2438   -1.8676 C.3     1  UNL1        0.1028
     31 O           1.3857   -1.0093   -1.5583 O.3     1  UNL1       -0.3872
     32 C          -0.4347   -2.3553   -0.9610 C.3     1  UNL1        0.0872
     33 O           0.2863   -3.5192   -1.1841 O.3     1  UNL1       -0.2840
     34 P          -0.1737   -4.8082   -0.2105 P.3     1  UNL1        0.4751
     35 O          -0.9509   -5.9281   -1.2475 O.3     1  UNL1       -0.3025
     36 O          -1.1237   -4.3604    0.8521 O.2     1  UNL1       -0.2273
     37 O           1.2039   -5.5538    0.4809 O.3     1  UNL1       -0.2828
     38 C           1.2611   -5.2165    1.8223 C.3     1  UNL1        0.0993
     39 C           2.5606   -5.7274    2.4612 C.3     1  UNL1        0.1605
     40 C           2.5961   -7.2392    2.2979 C.3     1  UNL1        0.1315
     41 O           2.5399   -7.5734    0.9151 O.3     1  UNL1       -0.4608
     42 C           2.6154   -8.8977    0.5353 C.2     1  UNL1        0.3072
     43 O           2.7385   -9.6895    1.5202 O.2     1  UNL1       -0.2509
     44 C           2.5562   -9.2936   -0.8711 C.3     1  UNL1        0.0449
     45 C           3.8949   -9.1059   -1.5302 C.3     1  UNL1       -0.0430
     46 C           3.8457   -9.5234   -2.9792 C.3     1  UNL1       -0.0526
     47 C           2.8623   -8.7700   -3.7991 C.3     1  UNL1       -0.0530
     48 C           3.2261   -7.2872   -3.7941 C.3     1  UNL1       -0.0531
     49 C           2.1722   -6.5987   -4.6154 C.3     1  UNL1       -0.0531
     50 C           2.4527   -5.0964   -4.7173 C.3     1  UNL1       -0.0531
     51 C           3.7528   -4.7844   -5.3688 C.3     1  UNL1       -0.0531
     52 C           4.0070   -3.2696   -5.5576 C.3     1  UNL1       -0.0531
     53 C           4.0062   -2.5989   -4.2535 C.3     1  UNL1       -0.0531
     54 C           4.1534   -1.1492   -4.1406 C.3     1  UNL1       -0.0531
     55 C           5.1848   -0.2440   -4.4954 C.3     1  UNL1       -0.0531
     56 C           5.7364    0.1712   -5.7974 C.3     1  UNL1       -0.0531
     57 C           6.3195   -0.8748   -6.6410 C.3     1  UNL1       -0.0531
     58 C           7.0647   -0.4237   -7.8470 C.3     1  UNL1       -0.0533
     59 C           6.3184    0.2923   -8.9020 C.3     1  UNL1       -0.0559
     60 C           5.6981    1.6055   -8.5792 C.3     1  UNL1       -0.0653
     61 O           3.6827   -5.1422    1.8245 O.3     1  UNL1       -0.4555
     62 C           4.5746   -4.3354    2.4849 C.2     1  UNL1        0.3075
     63 O           4.5431   -3.9897    3.7122 O.2     1  UNL1       -0.2508
     64 C           5.5688   -3.9731    1.4321 C.3     1  UNL1        0.0450
     65 C           4.9158   -3.2646    0.2767 C.3     1  UNL1       -0.0430
     66 C           4.2458   -1.9883    0.6809 C.3     1  UNL1       -0.0526
     67 C           5.1877   -0.9615    1.2430 C.3     1  UNL1       -0.0530
     68 C           4.3817    0.2690    1.6233 C.3     1  UNL1       -0.0531
     69 C           5.2762    1.3626    2.1558 C.3     1  UNL1       -0.0531
     70 C           4.4711    2.5826    2.5490 C.3     1  UNL1       -0.0531
     71 C           5.3762    3.7281    3.0357 C.3     1  UNL1       -0.0531
     72 C           4.4526    4.8409    3.3979 C.3     1  UNL1       -0.0531
     73 C           5.1445    6.1075    3.8640 C.3     1  UNL1       -0.0531
     74 C           6.0381    6.6222    2.7232 C.3     1  UNL1       -0.0531
     75 C           6.7455    7.8781    3.0625 C.3     1  UNL1       -0.0531
     76 C           7.6459    8.4702    2.0285 C.3     1  UNL1       -0.0531
     77 C           7.0823    8.9467    0.7669 C.3     1  UNL1       -0.0531
     78 C           6.3298    8.0944   -0.1512 C.3     1  UNL1       -0.0533
     79 C           6.9668    6.8666   -0.6830 C.3     1  UNL1       -0.0559
     80 C           5.9332    6.1786   -1.5834 C.3     1  UNL1       -0.0653
     81 O          -2.8975   -1.4372    0.9305 O.3     1  UNL1       -0.4555
     82 C          -2.3111   -1.6718    2.2006 C.2     1  UNL1        0.3075
     83 O          -3.1145   -1.3075    3.0810 O.2     1  UNL1       -0.2508
     84 C          -1.4702   -2.0146    3.4431 C.3     1  UNL1        0.0450
     85 C          -2.2671   -1.6438    4.6321 C.3     1  UNL1       -0.0430
     86 C          -1.5204   -1.8750    5.9320 C.3     1  UNL1       -0.0526
     87 C          -2.4833   -1.3992    7.0359 C.3     1  UNL1       -0.0530
     88 C          -1.8706   -1.5166    8.3767 C.3     1  UNL1       -0.0531
     89 C          -2.8859   -0.9368    9.3616 C.3     1  UNL1       -0.0531
     90 C          -4.1967   -1.6440    9.3777 C.3     1  UNL1       -0.0531
     91 C          -5.1114   -0.8486   10.3223 C.3     1  UNL1       -0.0531
     92 C          -6.4792   -1.4983   10.4360 C.3     1  UNL1       -0.0531
     93 C          -7.1535   -1.7108    9.1147 C.3     1  UNL1       -0.0531
     94 C          -8.5413   -2.3418    9.2815 C.3     1  UNL1       -0.0531
     95 C          -9.0546   -2.6161    7.9148 C.3     1  UNL1       -0.0531
     96 C          -9.2040   -1.5361    6.9332 C.3     1  UNL1       -0.0531
     97 C         -10.1615   -0.4347    7.0839 C.3     1  UNL1       -0.0531
     98 C         -10.0676    0.4829    8.2478 C.3     1  UNL1       -0.0533
     99 C         -11.1360    1.6041    8.1185 C.3     1  UNL1       -0.0559
    100 C         -12.5142    0.9933    8.0702 C.3     1  UNL1       -0.0653
    101 H          -0.6873    5.9016    2.1477 H       1  UNL1        0.0230
    102 H          -2.4831    5.7529    2.3266 H       1  UNL1        0.0230
    103 H          -1.6895    7.3024    2.6691 H       1  UNL1        0.0230
    104 H          -1.6923    5.8248   -0.0314 H       1  UNL1        0.0263
    105 H          -2.9615    7.0741    0.4626 H       1  UNL1        0.0263
    106 H          -1.3419    8.8004    0.6504 H       1  UNL1        0.0265
    107 H           0.0345    7.7282    0.2896 H       1  UNL1        0.0265
    108 H          -2.3095    8.5912   -1.4730 H       1  UNL1        0.0265
    109 H          -0.5821    9.0910   -1.6070 H       1  UNL1        0.0265
    110 H          -0.0076    6.6464   -2.1233 H       1  UNL1        0.0265
    111 H          -1.7418    6.2637   -1.9775 H       1  UNL1        0.0265
    112 H          -2.3582    7.6765   -3.8447 H       1  UNL1        0.0265
    113 H          -0.6724    8.2784   -4.0359 H       1  UNL1        0.0265
    114 H           0.0262    5.8930   -4.3725 H       1  UNL1        0.0265
    115 H          -1.6492    5.3649   -4.2154 H       1  UNL1        0.0265
    116 H          -0.6577    7.2346   -6.4005 H       1  UNL1        0.0265
    117 H          -2.3469    6.7088   -6.1847 H       1  UNL1        0.0265
    118 H           0.1467    4.9926   -6.8177 H       1  UNL1        0.0265
    119 H          -1.2293    5.3260   -7.8912 H       1  UNL1        0.0265
    120 H          -2.8045    4.2183   -6.3033 H       1  UNL1        0.0265
    121 H          -1.3586    3.7827   -5.2614 H       1  UNL1        0.0265
    122 H          -0.4114    2.4532   -7.0378 H       1  UNL1        0.0265
    123 H          -1.8101    2.8297   -8.0915 H       1  UNL1        0.0265
    124 H          -1.9898    1.6810   -5.2638 H       1  UNL1        0.0265
    125 H          -3.3733    1.9144   -6.4628 H       1  UNL1        0.0265
    126 H          -1.0817   -0.0509   -6.8895 H       1  UNL1        0.0265
    127 H          -2.4902    0.2101   -7.9400 H       1  UNL1        0.0265
    128 H          -2.3447   -0.8634   -5.0748 H       1  UNL1        0.0265
    129 H          -2.7631   -1.7517   -6.5615 H       1  UNL1        0.0265
    130 H          -4.8577   -0.6816   -6.9297 H       1  UNL1        0.0265
    131 H          -4.6214    0.5586   -5.7023 H       1  UNL1        0.0265
    132 H          -6.1860   -1.0375   -5.0137 H       1  UNL1        0.0270
    133 H          -4.9917   -2.4060   -5.2450 H       1  UNL1        0.0270
    134 H          -3.4940   -1.3808   -3.5332 H       1  UNL1        0.0377
    135 H          -4.6253   -0.0115   -3.4214 H       1  UNL1        0.0377
    136 H          -5.1020   -2.6974    0.1887 H       1  UNL1        0.0736
    137 H          -6.1856   -1.2897    0.1482 H       1  UNL1        0.0736
    138 H          -4.6054   -0.7035    1.8843 H       1  UNL1        0.0792
    139 H          -3.8252    0.3818   -0.8630 H       1  UNL1        0.0604
    140 H          -4.9587    1.0611    0.3408 H       1  UNL1        0.0604
    141 H          -1.6197    2.8700   -2.0487 H       1  UNL1        0.2220
    142 H          -0.3404    0.8214   -2.4110 H       1  UNL1        0.0592
    143 H          -1.7777   -0.1941   -2.0163 H       1  UNL1        0.0592
    144 H          -0.0181   -1.6179   -2.9217 H       1  UNL1        0.0640
    145 H           1.7775   -0.2051   -1.9777 H       1  UNL1        0.2100
    146 H          -0.3132   -2.0876    0.1160 H       1  UNL1        0.0592
    147 H          -1.5099   -2.5401   -1.1623 H       1  UNL1        0.0592
    148 H          -1.7292   -6.2938   -0.7256 H       1  UNL1        0.2220
    149 H           1.2267   -4.1177    1.9853 H       1  UNL1        0.0604
    150 H           0.4228   -5.6419    2.4109 H       1  UNL1        0.0604
    151 H           2.5201   -5.4881    3.5219 H       1  UNL1        0.0792
    152 H           3.4888   -7.6571    2.7754 H       1  UNL1        0.0736
    153 H           1.6855   -7.6183    2.7980 H       1  UNL1        0.0736
    154 H           2.3732  -10.4075   -0.8735 H       1  UNL1        0.0377
    155 H           1.7069   -8.8356   -1.4307 H       1  UNL1        0.0377
    156 H           4.6112   -9.7795   -1.0150 H       1  UNL1        0.0270
    157 H           4.2024   -8.0663   -1.3624 H       1  UNL1        0.0270
    158 H           4.8632   -9.3176   -3.3945 H       1  UNL1        0.0265
    159 H           3.6515  -10.6306   -2.9775 H       1  UNL1        0.0265
    160 H           2.9217   -9.1048   -4.8675 H       1  UNL1        0.0265
    161 H           1.8122   -8.8438   -3.4748 H       1  UNL1        0.0265
    162 H           3.1694   -6.9427   -2.7558 H       1  UNL1        0.0265
    163 H           4.2124   -7.1335   -4.2579 H       1  UNL1        0.0265
    164 H           2.0860   -6.9944   -5.6383 H       1  UNL1        0.0265
    165 H           1.1725   -6.7081   -4.1168 H       1  UNL1        0.0265
    166 H           2.4569   -4.7270   -3.6523 H       1  UNL1        0.0265
    167 H           1.6266   -4.6496   -5.2982 H       1  UNL1        0.0265
    168 H           4.5812   -5.2032   -4.7324 H       1  UNL1        0.0265
    169 H           3.8289   -5.1917   -6.4047 H       1  UNL1        0.0265
    170 H           5.0673   -3.2321   -5.9996 H       1  UNL1        0.0265
    171 H           3.3548   -2.8370   -6.3153 H       1  UNL1        0.0265
    172 H           3.0502   -2.9354   -3.7211 H       1  UNL1        0.0265
    173 H           4.7923   -3.0604   -3.5540 H       1  UNL1        0.0265
    174 H           3.9963   -0.9700   -2.9726 H       1  UNL1        0.0265
    175 H           3.1375   -0.6651   -4.5394 H       1  UNL1        0.0265
    176 H           6.1201   -0.4981   -3.7969 H       1  UNL1        0.0265
    177 H           4.9712    0.8065   -3.9802 H       1  UNL1        0.0265
    178 H           4.9284    0.7432   -6.3674 H       1  UNL1        0.0265
    179 H           6.5150    1.0013   -5.6559 H       1  UNL1        0.0265
    180 H           5.4089   -1.4127   -7.1486 H       1  UNL1        0.0265
    181 H           6.8423   -1.6808   -6.1136 H       1  UNL1        0.0265
    182 H           7.9127    0.2280   -7.4663 H       1  UNL1        0.0265
    183 H           7.6324   -1.3147   -8.2642 H       1  UNL1        0.0265
    184 H           6.9716    0.4345   -9.8308 H       1  UNL1        0.0263
    185 H           5.4725   -0.3594   -9.2991 H       1  UNL1        0.0263
    186 H           5.8615    2.3513   -9.4394 H       1  UNL1        0.0230
    187 H           4.6040    1.5745   -8.4556 H       1  UNL1        0.0230
    188 H           6.2030    2.1072   -7.7393 H       1  UNL1        0.0230
    189 H           6.2730   -3.2626    1.9057 H       1  UNL1        0.0377
    190 H           6.1372   -4.8573    1.0880 H       1  UNL1        0.0377
    191 H           4.2286   -3.9645   -0.2380 H       1  UNL1        0.0270
    192 H           5.7494   -2.9938   -0.4328 H       1  UNL1        0.0270
    193 H           3.4461   -2.2537    1.4168 H       1  UNL1        0.0265
    194 H           3.7059   -1.6034   -0.2214 H       1  UNL1        0.0265
    195 H           5.5909   -1.3566    2.2004 H       1  UNL1        0.0265
    196 H           5.9592   -0.7064    0.5197 H       1  UNL1        0.0265
    197 H           3.7674    0.6282    0.7819 H       1  UNL1        0.0265
    198 H           3.6655   -0.0287    2.4358 H       1  UNL1        0.0265
    199 H           6.0602    1.5877    1.4386 H       1  UNL1        0.0265
    200 H           5.7234    0.9962    3.1253 H       1  UNL1        0.0265
    201 H           3.9271    2.8987    1.6371 H       1  UNL1        0.0265
    202 H           3.7358    2.3749    3.3288 H       1  UNL1        0.0265
    203 H           5.9933    3.3954    3.8909 H       1  UNL1        0.0265
    204 H           6.0557    3.9400    2.1899 H       1  UNL1        0.0265
    205 H           3.8306    4.5155    4.2615 H       1  UNL1        0.0265
    206 H           3.7368    5.0246    2.5709 H       1  UNL1        0.0265
    207 H           5.6925    5.9250    4.7853 H       1  UNL1        0.0265
    208 H           4.3668    6.8663    4.0206 H       1  UNL1        0.0265
    209 H           5.4301    6.5704    1.8468 H       1  UNL1        0.0265
    210 H           6.8527    5.8338    2.6112 H       1  UNL1        0.0265
    211 H           7.3423    7.7869    4.0207 H       1  UNL1        0.0265
    212 H           5.9747    8.6736    3.3552 H       1  UNL1        0.0265
    213 H           8.0805    9.4020    2.5459 H       1  UNL1        0.0265
    214 H           8.5843    7.8525    1.9048 H       1  UNL1        0.0265
    215 H           6.4415    9.8655    1.0268 H       1  UNL1        0.0265
    216 H           7.8923    9.4612    0.1356 H       1  UNL1        0.0265
    217 H           6.1446    8.7200   -1.1399 H       1  UNL1        0.0265
    218 H           5.2819    7.9068    0.1327 H       1  UNL1        0.0265
    219 H           7.7835    7.1573   -1.3959 H       1  UNL1        0.0263
    220 H           7.3017    6.1302    0.0388 H       1  UNL1        0.0263
    221 H           6.3763    5.8233   -2.5323 H       1  UNL1        0.0230
    222 H           5.5685    5.2606   -1.0539 H       1  UNL1        0.0230
    223 H           5.0387    6.8222   -1.7365 H       1  UNL1        0.0230
    224 H          -0.5718   -1.3980    3.3664 H       1  UNL1        0.0377
    225 H          -1.2443   -3.0863    3.3856 H       1  UNL1        0.0377
    226 H          -2.4555   -0.5269    4.6106 H       1  UNL1        0.0270
    227 H          -3.2587   -2.1755    4.6725 H       1  UNL1        0.0270
    228 H          -1.3187   -2.9423    6.1366 H       1  UNL1        0.0265
    229 H          -0.5564   -1.3410    5.9692 H       1  UNL1        0.0265
    230 H          -3.3649   -2.1236    7.0292 H       1  UNL1        0.0265
    231 H          -2.8440   -0.4199    6.7586 H       1  UNL1        0.0265
    232 H          -0.9415   -0.8783    8.4590 H       1  UNL1        0.0265
    233 H          -1.5587   -2.5391    8.6309 H       1  UNL1        0.0265
    234 H          -2.3605   -0.9918   10.3550 H       1  UNL1        0.0265
    235 H          -2.9593    0.1467    9.1267 H       1  UNL1        0.0265
    236 H          -4.6853   -1.7634    8.3902 H       1  UNL1        0.0265
    237 H          -4.0519   -2.6654    9.7936 H       1  UNL1        0.0265
    238 H          -4.6182   -0.8485   11.3070 H       1  UNL1        0.0265
    239 H          -5.2016    0.2034    9.9762 H       1  UNL1        0.0265
    240 H          -6.3317   -2.4447   10.9935 H       1  UNL1        0.0265
    241 H          -7.0869   -0.7852   11.0686 H       1  UNL1        0.0265
    242 H          -7.3457   -0.7466    8.5834 H       1  UNL1        0.0265
    243 H          -6.5782   -2.4417    8.5235 H       1  UNL1        0.0265
    244 H          -8.3778   -3.3698    9.7562 H       1  UNL1        0.0265
    245 H          -9.1732   -1.7691    9.9487 H       1  UNL1        0.0265
    246 H          -8.3076   -3.3606    7.4710 H       1  UNL1        0.0265
    247 H         -10.0036   -3.2580    7.9661 H       1  UNL1        0.0265
    248 H          -9.3250   -1.9900    5.8694 H       1  UNL1        0.0265
    249 H          -8.1601   -1.0350    6.7588 H       1  UNL1        0.0265
    250 H         -11.2090   -0.9131    7.0518 H       1  UNL1        0.0265
    251 H         -10.1893    0.1705    6.0985 H       1  UNL1        0.0265
    252 H          -9.0706    0.9571    8.3161 H       1  UNL1        0.0265
    253 H         -10.3068   -0.0527    9.1856 H       1  UNL1        0.0265
    254 H         -11.0424    2.2213    9.0077 H       1  UNL1        0.0263
    255 H         -10.9190    2.2034    7.2171 H       1  UNL1        0.0263
    256 H         -12.5892    0.1408    8.7883 H       1  UNL1        0.0230
    257 H         -12.7464    0.6200    7.0276 H       1  UNL1        0.0230
    258 H         -13.2929    1.7461    8.2941 H       1  UNL1        0.0230
@<TRIPOS>BOND
     1     1     2    1
     2     2     3    1
     3     3     4    1
     4     4     5    1
     5     5     6    1
     6     6     7    1
     7     7     8    1
     8     8     9    1
     9     9    10    1
    10    10    11    1
    11    11    12    1
    12    12    13    1
    13    13    14    1
    14    14    15    1
    15    15    16    1
    16    16    17    1
    17    17    18    1
    18    18    19    2
    19    18    20    1
    20    20    21    1
    21    21    22    1
    22    22    23    1
    23    23    24    1
    24    25    24    1
    25    25    26    1
    26    25    27    2
    27    25    28    1
    28    28    29    1
    29    29    30    1
    30    30    31    1
    31    30    32    1
    32    32    33    1
    33    34    33    1
    34    34    35    1
    35    34    36    2
    36    34    37    1
    37    37    38    1
    38    38    39    1
    39    39    40    1
    40    40    41    1
    41    41    42    1
    42    42    43    2
    43    42    44    1
    44    44    45    1
    45    45    46    1
    46    46    47    1
    47    47    48    1
    48    48    49    1
    49    49    50    1
    50    50    51    1
    51    51    52    1
    52    52    53    1
    53    53    54    1
    54    54    55    1
    55    55    56    1
    56    56    57    1
    57    57    58    1
    58    58    59    1
    59    59    60    1
    60    39    61    1
    61    61    62    1
    62    62    63    2
    63    62    64    1
    64    64    65    1
    65    65    66    1
    66    66    67    1
    67    67    68    1
    68    68    69    1
    69    69    70    1
    70    70    71    1
    71    71    72    1
    72    72    73    1
    73    73    74    1
    74    74    75    1
    75    75    76    1
    76    76    77    1
    77    77    78    1
    78    78    79    1
    79    79    80    1
    80    22    81    1
    81    81    82    1
    82    82    83    2
    83    82    84    1
    84    84    85    1
    85    85    86    1
    86    86    87    1
    87    87    88    1
    88    88    89    1
    89    89    90    1
    90    90    91    1
    91    91    92    1
    92    92    93    1
    93    93    94    1
    94    94    95    1
    95    95    96    1
    96    96    97    1
    97    97    98    1
    98    98    99    1
    99    99   100    1
   100     1   101    1
   101     1   102    1
   102     1   103    1
   103     2   104    1
   104     2   105    1
   105     3   106    1
   106     3   107    1
   107     4   108    1
   108     4   109    1
   109     5   110    1
   110     5   111    1
   111     6   112    1
   112     6   113    1
   113     7   114    1
   114     7   115    1
   115     8   116    1
   116     8   117    1
   117     9   118    1
   118     9   119    1
   119    10   120    1
   120    10   121    1
   121    11   122    1
   122    11   123    1
   123    12   124    1
   124    12   125    1
   125    13   126    1
   126    13   127    1
   127    14   128    1
   128    14   129    1
   129    15   130    1
   130    15   131    1
   131    16   132    1
   132    16   133    1
   133    17   134    1
   134    17   135    1
   135    21   136    1
   136    21   137    1
   137    22   138    1
   138    23   139    1
   139    23   140    1
   140    26   141    1
   141    29   142    1
   142    29   143    1
   143    30   144    1
   144    31   145    1
   145    32   146    1
   146    32   147    1
   147    35   148    1
   148    38   149    1
   149    38   150    1
   150    39   151    1
   151    40   152    1
   152    40   153    1
   153    44   154    1
   154    44   155    1
   155    45   156    1
   156    45   157    1
   157    46   158    1
   158    46   159    1
   159    47   160    1
   160    47   161    1
   161    48   162    1
   162    48   163    1
   163    49   164    1
   164    49   165    1
   165    50   166    1
   166    50   167    1
   167    51   168    1
   168    51   169    1
   169    52   170    1
   170    52   171    1
   171    53   172    1
   172    53   173    1
   173    54   174    1
   174    54   175    1
   175    55   176    1
   176    55   177    1
   177    56   178    1
   178    56   179    1
   179    57   180    1
   180    57   181    1
   181    58   182    1
   182    58   183    1
   183    59   184    1
   184    59   185    1
   185    60   186    1
   186    60   187    1
   187    60   188    1
   188    64   189    1
   189    64   190    1
   190    65   191    1
   191    65   192    1
   192    66   193    1
   193    66   194    1
   194    67   195    1
   195    67   196    1
   196    68   197    1
   197    68   198    1
   198    69   199    1
   199    69   200    1
   200    70   201    1
   201    70   202    1
   202    71   203    1
   203    71   204    1
   204    72   205    1
   205    72   206    1
   206    73   207    1
   207    73   208    1
   208    74   209    1
   209    74   210    1
   210    75   211    1
   211    75   212    1
   212    76   213    1
   213    76   214    1
   214    77   215    1
   215    77   216    1
   216    78   217    1
   217    78   218    1
   218    79   219    1
   219    79   220    1
   220    80   221    1
   221    80   222    1
   222    80   223    1
   223    84   224    1
   224    84   225    1
   225    85   226    1
   226    85   227    1
   227    86   228    1
   228    86   229    1
   229    87   230    1
   230    87   231    1
   231    88   232    1
   232    88   233    1
   233    89   234    1
   234    89   235    1
   235    90   236    1
   236    90   237    1
   237    91   238    1
   238    91   239    1
   239    92   240    1
   240    92   241    1
   241    93   242    1
   242    93   243    1
   243    94   244    1
   244    94   245    1
   245    95   246    1
   246    95   247    1
   247    96   248    1
   248    96   249    1
   249    97   250    1
   250    97   251    1
   251    98   252    1
   252    98   253    1
   253    99   254    1
   254    99   255    1
   255   100   256    1
   256   100   257    1
   257   100   258    1
