@<TRIPOS>MOLECULE
*****
 66 66 0 0 0
SMALL
GASTEIGER

@<TRIPOS>ATOM
      1 C           5.9043   -2.9471   -1.9681 C.3     0  UNK0        0.0122
      2 C           5.1176   -1.9419   -1.1458 C.2     0  UNK0        0.2105
      3 O           5.7048   -1.1131   -0.4397 O.2     0  UNK0       -0.2761
      4 N           3.7058   -1.9491   -1.1904 N.am    1  PHE1       -0.3039
      5 CA          2.8549   -1.0482   -0.4904 C.3     1  PHE1        0.1033
      6 CB          2.2682    0.0032   -1.3940 C.3     1  PHE1       -0.0007
      7 CG          3.3267    0.8314   -2.0017 C.ar    1  PHE1       -0.0451
      8 CD1         3.8192    2.0155   -1.4335 C.ar    1  PHE1       -0.0585
      9 CE1         4.7986    2.7483   -1.9966 C.ar    1  PHE1       -0.0615
     10 CZ          5.3855    2.3672   -3.1876 C.ar    1  PHE1       -0.0617
     11 CE2         4.9183    1.1923   -3.7795 C.ar    1  PHE1       -0.0615
     12 CD2         3.9266    0.4758   -3.1819 C.ar    1  PHE1       -0.0585
     13 C           1.9547   -1.6068    0.5271 C.2     1  PHE1        0.2343
     14 O           2.0076   -2.8564    0.6818 O.2     1  PHE1       -0.2738
     15 N           1.0971   -0.7902    1.2798 N.am    2  VAL2       -0.3022
     16 CA          0.2147   -1.2436    2.2951 C.3     2  VAL2        0.1017
     17 C          -1.1958   -0.8393    2.0186 C.2     2  VAL2        0.2341
     18 O          -2.0065   -0.6339    2.9926 O.2     2  VAL2       -0.2738
     19 N          -1.7158   -0.6705    0.7416 N.am    3  ARG3       -0.3044
     20 CA         -3.0751   -0.2403    0.3874 C.3     3  ARG3        0.0786
     21 C          -4.0383   -1.0019    1.2691 C.2     3  ARG3        0.1404
     22 O          -5.2366   -0.7132    1.1225 O.2     3  ARG3       -0.2991
     23 CB         -3.2977   -0.6736   -1.0207 C.3     3  ARG3       -0.0249
     24 CG         -4.5982   -0.3500   -1.6472 C.3     3  ARG3       -0.0166
     25 CD         -4.9061    1.0968   -1.8425 C.3     3  ARG3        0.1048
     26 NE         -4.9180    1.8939   -0.6678 N.pl3   3  ARG3       -0.1138
     27 CZ         -5.8640    2.6050   -0.2127 C.cat   3  ARG3        0.3765
     28 NH1        -7.1416    2.7290   -0.8270 N.pl3   3  ARG3       -0.2893
     29 NH2        -5.6730    3.3547    0.9876 N.pl3   3  ARG3       -0.2893
     30 CB          0.6122   -0.8905    3.6937 C.3     2  VAL2       -0.0197
     31 CG1        -0.4033   -1.4627    4.6562 C.3     2  VAL2       -0.0605
     32 CG2         0.8632    0.5678    3.9258 C.3     2  VAL2       -0.0605
     33 H           5.2316   -3.7086   -2.3861 H       0  UNK0        0.0322
     34 H           6.4591   -2.3549   -2.7315 H       0  UNK0        0.0322
     35 H           6.6359   -3.3889   -1.2684 H       0  UNK0        0.0322
     36 H           3.2685   -2.7039   -1.8121 H       1  PHE1        0.1495
     37 HA          3.5941   -0.4169    0.1498 H       1  PHE1        0.0598
     38 HB1         1.5295    0.6555   -0.9374 H       1  PHE1        0.0336
     39 HB2         1.7499   -0.5073   -2.2426 H       1  PHE1        0.0336
     40 HD1         3.3441    2.2998   -0.4903 H       1  PHE1        0.0620
     41 HE1         5.1454    3.6652   -1.5228 H       1  PHE1        0.0618
     42 HZ          6.1603    2.9081   -3.6733 H       1  PHE1        0.0618
     43 HE2         5.3842    0.8892   -4.7163 H       1  PHE1        0.0618
     44 HD2         3.5725   -0.4391   -3.6668 H       1  PHE1        0.0620
     45 H           1.1162    0.2390    1.0645 H       2  VAL2        0.1495
     46 HA          0.2942   -2.3848    2.2655 H       2  VAL2        0.0597
     47 H          -1.0453   -0.8847   -0.0656 H       3  ARG3        0.1494
     48 HA         -3.2706    0.8038    0.6129 H       3  ARG3        0.0574
     49 H          -3.8016   -1.7407    1.9776 H       3  ARG3        0.1046
     50 HB1        -3.2132   -1.8067   -1.0488 H       3  ARG3        0.0288
     51 HB2        -2.5023   -0.2927   -1.7097 H       3  ARG3        0.0288
     52 HG1        -5.4621   -0.8990   -1.1791 H       3  ARG3        0.0298
     53 HG2        -4.5682   -0.7939   -2.6893 H       3  ARG3        0.0298
     54 HD1        -4.1684    1.5587   -2.5705 H       3  ARG3        0.0693
     55 HD2        -5.9372    1.2065   -2.3157 H       3  ARG3        0.0693
     56 HH11       -7.2768    2.7299   -1.8675 H       3  ARG3        0.2546
     57 HH12       -7.9990    2.8249   -0.2382 H       3  ARG3        0.2546
     58 HH21       -5.9855    4.3385    1.1112 H       3  ARG3        0.2546
     59 HH22       -5.1824    2.8506    1.7745 H       3  ARG3        0.2546
     60 HB          1.5812   -1.4092    3.9694 H       2  VAL2        0.0318
     61 HG11        0.1005   -1.9536    5.5351 H       2  VAL2        0.0233
     62 HG12       -0.9915   -2.3051    4.2163 H       2  VAL2        0.0233
     63 HG13       -1.0258   -0.6675    5.0964 H       2  VAL2        0.0233
     64 HG21        0.1866    1.2273    3.3520 H       2  VAL2        0.0233
     65 HG22        0.7383    0.7780    4.9948 H       2  VAL2        0.0233
     66 HG23        1.9278    0.7739    3.6663 H       2  VAL2        0.0233
@<TRIPOS>BOND
     1     1     2    1
     2     2     3    2
     3     2     4   am
     4     4     5    1
     5     5     6    1
     6     6     7    1
     7     7     8   ar
     8     8     9   ar
     9     9    10   ar
    10    10    11   ar
    11    11    12   ar
    12     5    13    1
    13    13    14    2
    14    13    15   am
    15    15    16    1
    16    16    17    1
    17    17    18    2
    18    17    19   am
    19    19    20    1
    20    20    21    1
    21    21    22    2
    22    20    23    1
    23    23    24    1
    24    24    25    1
    25    25    26    1
    26    26    27    2
    27    27    28    1
    28    27    29    1
    29    16    30    1
    30    30    31    1
    31    30    32    1
    32    12     7   ar
    33     1    33    1
    34     1    34    1
    35     1    35    1
    36     4    36    1
    37     5    37    1
    38     6    38    1
    39     6    39    1
    40     8    40    1
    41     9    41    1
    42    10    42    1
    43    11    43    1
    44    12    44    1
    45    15    45    1
    46    16    46    1
    47    19    47    1
    48    20    48    1
    49    21    49    1
    50    23    50    1
    51    23    51    1
    52    24    52    1
    53    24    53    1
    54    25    54    1
    55    25    55    1
    56    28    56    1
    57    28    57    1
    58    29    58    1
    59    29    59    1
    60    30    60    1
    61    31    61    1
    62    31    62    1
    63    31    63    1
    64    32    64    1
    65    32    65    1
    66    32    66    1
