
     RDKit          3D

 28 28  0  0  0  0  0  0  0  0999 V2000
   -2.3478    0.4059    1.2518 C   0  0  0  0  0  0  0  0  0  0  0  0
   -1.6185   -0.7688    0.6992 C   0  0  0  0  0  0  0  0  0  0  0  0
   -0.8085   -0.4607   -0.4636 N   0  0  0  0  0  4  0  0  0  0  0  0
   -0.6234   -1.7401   -1.1696 C   0  0  0  0  0  0  0  0  0  0  0  0
   -1.5328    0.3904   -1.3989 C   0  0  0  0  0  0  0  0  0  0  0  0
    0.4352    0.1067   -0.1141 C   0  0  0  0  0  0  0  0  0  0  0  0
    0.4822    1.4074    0.3406 C   0  0  0  0  0  0  0  0  0  0  0  0
    1.6822    2.0035    0.6945 C   0  0  0  0  0  0  0  0  0  0  0  0
    2.8484    1.2839    0.5901 C   0  0  0  0  0  0  0  0  0  0  0  0
    2.7944   -0.0172    0.1344 C   0  0  0  0  0  0  0  0  0  0  0  0
    3.9595   -0.7485    0.0259 O   0  0  0  0  0  0  0  0  0  0  0  0
    1.6001   -0.6275   -0.2237 C   0  0  0  0  0  0  0  0  0  0  0  0
   -3.3130    0.0343    1.7054 H   0  0  0  0  0  0  0  0  0  0  0  0
   -1.7784    0.8315    2.0936 H   0  0  0  0  0  0  0  0  0  0  0  0
   -2.6540    1.1570    0.5036 H   0  0  0  0  0  0  0  0  0  0  0  0
   -0.9473   -1.1733    1.4828 H   0  0  0  0  0  0  0  0  0  0  0  0
   -2.3095   -1.5916    0.4287 H   0  0  0  0  0  0  0  0  0  0  0  0
   -1.5640   -2.0797   -1.6256 H   0  0  0  0  0  0  0  0  0  0  0  0
    0.0952   -1.6100   -2.0226 H   0  0  0  0  0  0  0  0  0  0  0  0
   -0.2913   -2.5379   -0.4813 H   0  0  0  0  0  0  0  0  0  0  0  0
   -1.2917    0.0817   -2.4530 H   0  0  0  0  0  0  0  0  0  0  0  0
   -2.6300    0.1935   -1.2941 H   0  0  0  0  0  0  0  0  0  0  0  0
   -1.2807    1.4444   -1.3226 H   0  0  0  0  0  0  0  0  0  0  0  0
   -0.4061    1.9944    0.4338 H   0  0  0  0  0  0  0  0  0  0  0  0
    1.7277    3.0337    1.0556 H   0  0  0  0  0  0  0  0  0  0  0  0
    3.8296    1.6981    0.8541 H   0  0  0  0  0  0  0  0  0  0  0  0
    4.4091   -1.0785    0.8538 H   0  0  0  0  0  0  0  0  0  0  0  0
    1.5335   -1.6325   -0.5786 H   0  0  0  0  0  0  0  0  0  0  0  0
  1  2  1  0
  2  3  1  0
  3  4  1  0
  3  5  1  0
  3  6  1  0
  6  7  2  0
  7  8  1  0
  8  9  2  0
  9 10  1  0
 10 11  1  0
 10 12  2  0
 12  6  1  0
  1 13  1  0
  1 14  1  0
  1 15  1  0
  2 16  1  0
  2 17  1  0
  4 18  1  0
  4 19  1  0
  4 20  1  0
  5 21  1  0
  5 22  1  0
  5 23  1  0
  7 24  1  0
  8 25  1  0
  9 26  1  0
 11 27  1  0
 12 28  1  0
M  CHG  1   3   1
M  END
$$$$
