@<TRIPOS>MOLECULE
*****
 28 28 0 0 0
SMALL
GASTEIGER

@<TRIPOS>ATOM
      1 C          -2.3478    0.4059    1.2518 C.3     1  UNL1       -0.0108
      2 C          -1.6185   -0.7688    0.6992 C.3     1  UNL1        0.0889
      3 N          -0.8085   -0.4607   -0.4636 N.pl3   1  UNL1       -0.3809
      4 C          -0.6234   -1.7401   -1.1696 C.3     1  UNL1        0.0813
      5 C          -1.5328    0.3904   -1.3989 C.3     1  UNL1        0.0813
      6 C           0.4352    0.1067   -0.1141 C.ar    1  UNL1        0.1491
      7 C           0.4822    1.4074    0.3406 C.ar    1  UNL1        0.0039
      8 C           1.6822    2.0035    0.6945 C.ar    1  UNL1       -0.0523
      9 C           2.8484    1.2839    0.5901 C.ar    1  UNL1       -0.0198
     10 C           2.7944   -0.0172    0.1344 C.ar    1  UNL1        0.1229
     11 O           3.9595   -0.7485    0.0259 O.3     1  UNL1       -0.5066
     12 C           1.6001   -0.6275   -0.2237 C.ar    1  UNL1        0.0450
     13 H          -3.3130    0.0343    1.7054 H       1  UNL1        0.0289
     14 H          -1.7784    0.8315    2.0936 H       1  UNL1        0.0289
     15 H          -2.6540    1.1570    0.5036 H       1  UNL1        0.0289
     16 H          -0.9473   -1.1733    1.4828 H       1  UNL1        0.0965
     17 H          -2.3095   -1.5916    0.4287 H       1  UNL1        0.0965
     18 H          -1.5640   -2.0797   -1.6256 H       1  UNL1        0.0931
     19 H           0.0952   -1.6100   -2.0226 H       1  UNL1        0.0931
     20 H          -0.2913   -2.5379   -0.4813 H       1  UNL1        0.0931
     21 H          -1.2917    0.0817   -2.4530 H       1  UNL1        0.0931
     22 H          -2.6300    0.1935   -1.2941 H       1  UNL1        0.0931
     23 H          -1.2807    1.4444   -1.3226 H       1  UNL1        0.0931
     24 H          -0.4061    1.9944    0.4338 H       1  UNL1        0.0681
     25 H           1.7277    3.0337    1.0556 H       1  UNL1        0.0621
     26 H           3.8296    1.6981    0.8541 H       1  UNL1        0.0654
     27 H           4.4091   -1.0785    0.8538 H       1  UNL1        0.2921
     28 H           1.5335   -1.6325   -0.5786 H       1  UNL1        0.0718
@<TRIPOS>UNITY_ATOM_ATTR
3 1
charge 1
@<TRIPOS>BOND
     1     1     2    1
     2     2     3    1
     3     3     4    1
     4     3     5    1
     5     3     6    1
     6     6     7   ar
     7     7     8   ar
     8     8     9   ar
     9     9    10   ar
    10    10    11    1
    11    10    12   ar
    12    12     6   ar
    13     1    13    1
    14     1    14    1
    15     1    15    1
    16     2    16    1
    17     2    17    1
    18     4    18    1
    19     4    19    1
    20     4    20    1
    21     5    21    1
    22     5    22    1
    23     5    23    1
    24     7    24    1
    25     8    25    1
    26     9    26    1
    27    11    27    1
    28    12    28    1
