@<TRIPOS>MOLECULE
*****
 30 31 0 0 0
SMALL
GASTEIGER

@<TRIPOS>ATOM
      1 C           1.4580    2.1816   -2.0922 C.3     1  UNL1       -0.0598
      2 C           0.3957    1.4012   -1.3501 C.3     1  UNL1       -0.0124
      3 C           1.1140    0.4303   -0.4631 C.ar    1  UNL1        0.0556
      4 N           2.4568    0.3528   -0.4152 N.ar    1  UNL1       -0.2190
      5 C           3.0883   -0.5245    0.3867 C.ar    1  UNL1        0.2145
      6 N           4.5115   -0.5848    0.4172 N.pl3   1  UNL1       -0.3274
      7 N           2.3168   -1.3261    1.1435 N.ar    1  UNL1       -0.1995
      8 C           0.9718   -1.2811    1.1258 C.ar    1  UNL1        0.1293
      9 N           0.1652   -2.1380    1.9345 N.pl3   1  UNL1       -0.3425
     10 C           0.3108   -0.3863    0.3082 C.ar    1  UNL1        0.0431
     11 C          -1.1480   -0.3207    0.2735 C.ar    1  UNL1       -0.0114
     12 C          -1.9102   -1.0754   -0.5948 C.ar    1  UNL1       -0.0524
     13 C          -3.2873   -1.0228   -0.6377 C.ar    1  UNL1       -0.0414
     14 C          -3.9329   -0.1779    0.2260 C.ar    1  UNL1        0.0593
     15 CL         -5.6814   -0.1060    0.1770 Cl      1  UNL1       -0.0820
     16 C          -3.2010    0.6011    1.1182 C.ar    1  UNL1        0.0598
     17 CL         -3.9978    1.6749    2.2175 Cl      1  UNL1       -0.0820
     18 C          -1.8155    0.5259    1.1373 C.ar    1  UNL1       -0.0341
     19 H           2.0986    1.5538   -2.7247 H       1  UNL1        0.0233
     20 H           2.1176    2.6492   -1.3062 H       1  UNL1        0.0233
     21 H           0.9415    2.9947   -2.6433 H       1  UNL1        0.0233
     22 H          -0.1953    0.8573   -2.1036 H       1  UNL1        0.0326
     23 H          -0.1929    2.1295   -0.7636 H       1  UNL1        0.0326
     24 H           4.9904   -0.7986    1.3180 H       1  UNL1        0.1452
     25 H           5.1326   -0.4299   -0.4045 H       1  UNL1        0.1452
     26 H           0.5122   -2.3771    2.8830 H       1  UNL1        0.1437
     27 H          -0.7378   -2.5348    1.6399 H       1  UNL1        0.1437
     28 H          -1.4031   -1.7438   -1.2783 H       1  UNL1        0.0624
     29 H          -3.8657   -1.6385   -1.3429 H       1  UNL1        0.0633
     30 H          -1.2128    1.1137    1.8142 H       1  UNL1        0.0639
@<TRIPOS>BOND
     1     1     2    1
     2     2     3    1
     3     3     4   ar
     4     4     5   ar
     5     5     6    1
     6     5     7   ar
     7     7     8   ar
     8     8     9    1
     9     8    10   ar
    10    10    11    1
    11    11    12   ar
    12    12    13   ar
    13    13    14   ar
    14    14    15    1
    15    14    16   ar
    16    16    17    1
    17    16    18   ar
    18    10     3   ar
    19    18    11   ar
    20     1    19    1
    21     1    20    1
    22     1    21    1
    23     2    22    1
    24     2    23    1
    25     6    24    1
    26     6    25    1
    27     9    26    1
    28     9    27    1
    29    12    28    1
    30    13    29    1
    31    18    30    1
