@<TRIPOS>MOLECULE
*****
 61 64 0 0 0
SMALL
GASTEIGER

@<TRIPOS>ATOM
      1 C          -5.9692   -0.5159    2.8112 C.3     1  UNL1       -0.0444
      2 C          -5.5538   -0.3587    1.3631 C.3     1  UNL1        0.0306
      3 C          -6.0061   -1.5397    0.5285 C.3     1  UNL1       -0.0444
      4 N          -6.0647    0.8300    0.7638 N.ar    1  UNL1       -0.3240
      5 C          -7.3668    1.1246    0.9662 C.ar    1  UNL1        0.1072
      6 C          -8.5190    0.5241    1.6870 C.3     1  UNL1       -0.0063
      7 N          -7.6090    2.2928    0.3009 N.ar    1  UNL1       -0.2402
      8 C          -6.4717    2.6948   -0.2924 C.ar    1  UNL1        0.0552
      9 C          -5.4859    1.7593    0.0040 C.ar    1  UNL1        0.0875
     10 C          -4.0993    1.7957   -0.4356 C.ar    1  UNL1        0.0939
     11 N          -3.1775    0.9003   -0.1459 N.ar    1  UNL1       -0.2127
     12 C          -1.9100    0.9592   -0.5649 C.ar    1  UNL1        0.2200
     13 N          -1.0281   -0.0816   -0.1708 N.pl3   1  UNL1       -0.2836
     14 C           0.3435   -0.2567   -0.4767 C.ar    1  UNL1        0.0337
     15 C           1.0754   -1.3512   -0.0004 C.ar    1  UNL1       -0.0387
     16 C           2.4071   -1.5162   -0.3018 C.ar    1  UNL1       -0.0389
     17 C           3.0995   -0.6206   -1.0861 C.ar    1  UNL1        0.0299
     18 C           2.4188    0.4720   -1.5767 C.ar    1  UNL1       -0.0389
     19 C           1.0862    0.6037   -1.2537 C.ar    1  UNL1       -0.0387
     20 N           4.4783   -0.8836   -1.3422 N.pl3   1  UNL1       -0.3269
     21 C           5.0409   -2.0925   -0.7809 C.3     1  UNL1        0.0280
     22 C           6.5387   -2.1232   -0.9828 C.3     1  UNL1        0.0305
     23 N           7.0301   -0.8379   -0.5282 N.am    1  UNL1       -0.2966
     24 C           6.6678    0.2533   -1.3883 C.3     1  UNL1        0.0305
     25 C           5.3522   -0.0313   -2.1216 C.3     1  UNL1        0.0280
     26 C           7.7824   -0.8315    0.6742 C.2     1  UNL1        0.2412
     27 O           7.8122   -2.0533    1.0393 O.2     1  UNL1       -0.2731
     28 C           8.3803    0.3627    1.3207 C.3     1  UNL1        0.1204
     29 O           9.0262   -0.1180    2.4795 O.3     1  UNL1       -0.3858
     30 N          -1.5907    2.0107   -1.3273 N.ar    1  UNL1       -0.2226
     31 C          -2.4238    2.9882   -1.6957 C.ar    1  UNL1        0.0333
     32 C          -3.6984    2.8518   -1.2254 C.ar    1  UNL1       -0.0159
     33 H          -5.0831   -0.5487    3.5113 H       1  UNL1        0.0249
     34 H          -6.5778    0.3216    3.1845 H       1  UNL1        0.0249
     35 H          -6.4367   -1.5139    2.9244 H       1  UNL1        0.0249
     36 H          -4.4479   -0.3403    1.3705 H       1  UNL1        0.0523
     37 H          -6.4977   -1.2022   -0.4067 H       1  UNL1        0.0249
     38 H          -6.6978   -2.1591    1.1361 H       1  UNL1        0.0249
     39 H          -5.1372   -2.1639    0.2452 H       1  UNL1        0.0249
     40 H          -8.7824    1.0795    2.5935 H       1  UNL1        0.0307
     41 H          -9.4482    0.5528    1.0442 H       1  UNL1        0.0307
     42 H          -8.3596   -0.5709    1.8519 H       1  UNL1        0.0307
     43 H          -6.3843    3.5983   -0.8890 H       1  UNL1        0.0852
     44 H          -1.4200   -0.8569    0.4414 H       1  UNL1        0.1550
     45 H           0.5591   -2.0880    0.6288 H       1  UNL1        0.0637
     46 H           2.8749   -2.4086    0.1262 H       1  UNL1        0.0637
     47 H           2.9419    1.1868   -2.1938 H       1  UNL1        0.0637
     48 H           0.6355    1.4828   -1.6781 H       1  UNL1        0.0637
     49 H           4.5913   -3.0227   -1.1772 H       1  UNL1        0.0479
     50 H           4.9006   -2.0132    0.3316 H       1  UNL1        0.0479
     51 H           6.9746   -2.9774   -0.4373 H       1  UNL1        0.0480
     52 H           6.6944   -2.2226   -2.0948 H       1  UNL1        0.0480
     53 H           7.4391    0.4177   -2.1685 H       1  UNL1        0.0480
     54 H           6.5907    1.2006   -0.8150 H       1  UNL1        0.0480
     55 H           5.6329   -0.5907   -3.0543 H       1  UNL1        0.0479
     56 H           4.9325    0.9352   -2.3938 H       1  UNL1        0.0479
     57 H           7.6364    1.1357    1.5871 H       1  UNL1        0.0654
     58 H           9.1486    0.7690    0.6075 H       1  UNL1        0.0654
     59 H           8.6952    0.3133    3.2922 H       1  UNL1        0.2100
     60 H          -2.1057    3.8150   -2.3151 H       1  UNL1        0.0831
     61 H          -4.4348    3.6249   -1.4934 H       1  UNL1        0.0655
@<TRIPOS>BOND
     1     1     2    1
     2     2     3    1
     3     2     4    1
     4     4     5   ar
     5     5     6    1
     6     5     7   ar
     7     7     8   ar
     8     8     9   ar
     9     9    10    1
    10    10    11   ar
    11    11    12   ar
    12    12    13    1
    13    13    14    1
    14    14    15   ar
    15    15    16   ar
    16    16    17   ar
    17    17    18   ar
    18    18    19   ar
    19    17    20    1
    20    20    21    1
    21    21    22    1
    22    22    23    1
    23    23    24    1
    24    24    25    1
    25    23    26   am
    26    26    27    2
    27    26    28    1
    28    28    29    1
    29    12    30   ar
    30    30    31   ar
    31    31    32   ar
    32     9     4   ar
    33    32    10   ar
    34    19    14   ar
    35    25    20    1
    36     1    33    1
    37     1    34    1
    38     1    35    1
    39     2    36    1
    40     3    37    1
    41     3    38    1
    42     3    39    1
    43     6    40    1
    44     6    41    1
    45     6    42    1
    46     8    43    1
    47    13    44    1
    48    15    45    1
    49    16    46    1
    50    18    47    1
    51    19    48    1
    52    21    49    1
    53    21    50    1
    54    22    51    1
    55    22    52    1
    56    24    53    1
    57    24    54    1
    58    25    55    1
    59    25    56    1
    60    28    57    1
    61    28    58    1
    62    29    59    1
    63    31    60    1
    64    32    61    1
