@<TRIPOS>MOLECULE
*****
 42 44 0 0 0
SMALL
GASTEIGER

@<TRIPOS>ATOM
      1 N          -5.8570   -0.2864    2.0268 N.pl3   1  UNL1       -0.3289
      2 C          -5.4009   -0.5965    0.7103 C.ar    1  UNL1        0.1950
      3 N          -4.1607   -0.1251    0.3896 N.ar    1  UNL1       -0.1963
      4 C          -3.6830   -0.3913   -0.8443 C.ar    1  UNL1        0.1711
      5 C          -4.4436   -1.1230   -1.7449 C.ar    1  UNL1        0.1721
      6 N          -3.7113   -1.2222   -2.8704 N.ar    1  UNL1       -0.2286
      7 C          -2.5357   -0.5878   -2.7093 C.ar    1  UNL1        0.1004
      8 N          -2.5236   -0.0746   -1.4515 N.ar    1  UNL1       -0.2878
      9 C          -1.4159    0.6789   -0.9133 C.3     1  UNL1        0.1408
     10 C          -1.2900    0.5616    0.5728 C.3     1  UNL1        0.0213
     11 C           0.1309    1.0476    0.8033 C.3     1  UNL1        0.0877
     12 O           0.0333    2.3791    1.2275 O.3     1  UNL1       -0.3890
     13 C           0.6992    0.9930   -0.5957 C.3     1  UNL1        0.1108
     14 C           2.1168    0.4677   -0.6264 C.3     1  UNL1        0.0878
     15 O           2.9804    1.2708    0.1097 O.3     1  UNL1       -0.2837
     16 P           4.5649    0.6840    0.0754 P.3     1  UNL1        0.4834
     17 O           5.6593    1.9077    0.4818 O.3     1  UNL1       -0.3022
     18 O           4.9526    0.2331   -1.3348 O.2     1  UNL1       -0.2269
     19 O           4.7827   -0.6241    1.0994 O.3     1  UNL1       -0.1862
     20 P           6.4112   -1.0567    1.0716 P.3     1  UNL1        0.4808
     21 O           7.0832   -0.5285   -0.3819 O.3     1  UNL1       -0.3023
     22 O           6.6274   -2.7263    1.2645 O.3     1  UNL1       -0.3023
     23 O           7.1729   -0.3404    2.1861 O.2     1  UNL1       -0.2271
     24 O          -0.1784    0.1743   -1.3444 O.3     1  UNL1       -0.3484
     25 C          -5.6836   -1.5680   -1.3589 C.ar    1  UNL1        0.2803
     26 O          -6.3811   -2.2274   -2.1563 O.2     1  UNL1       -0.2654
     27 N          -6.1735   -1.3123   -0.1368 N.ar    1  UNL1       -0.2934
     28 H          -6.7233    0.3109    2.1189 H       1  UNL1        0.1451
     29 H          -5.4574   -0.5655    2.9510 H       1  UNL1        0.1451
     30 H          -1.8054   -0.5547   -3.5042 H       1  UNL1        0.1030
     31 H          -1.4402    1.7360   -1.2545 H       1  UNL1        0.0840
     32 H          -1.3279   -0.5048    0.8488 H       1  UNL1        0.0335
     33 H          -2.0297    1.1833    1.1145 H       1  UNL1        0.0335
     34 H           0.6789    0.4091    1.5169 H       1  UNL1        0.0621
     35 H           0.7732    2.6256    1.8317 H       1  UNL1        0.2099
     36 H           0.6244    1.9866   -1.0751 H       1  UNL1        0.0646
     37 H           2.1676   -0.6029   -0.3672 H       1  UNL1        0.0592
     38 H           2.4469    0.5643   -1.6950 H       1  UNL1        0.0592
     39 H           5.5093    2.2058    1.4227 H       1  UNL1        0.2220
     40 H           7.3789    0.4294   -0.3183 H       1  UNL1        0.2220
     41 H           6.5423   -3.1947    0.4059 H       1  UNL1        0.2220
     42 H          -7.1141   -1.6358    0.1910 H       1  UNL1        0.1716
@<TRIPOS>BOND
     1     1     2    1
     2     2     3   ar
     3     3     4   ar
     4     4     5   ar
     5     5     6   ar
     6     6     7   ar
     7     7     8   ar
     8     8     9    1
     9     9    10    1
    10    10    11    1
    11    11    12    1
    12    11    13    1
    13    13    14    1
    14    14    15    1
    15    15    16    1
    16    16    17    1
    17    16    18    2
    18    16    19    1
    19    19    20    1
    20    20    21    1
    21    20    22    1
    22    20    23    2
    23    13    24    1
    24     5    25   ar
    25    25    26    2
    26    25    27   ar
    27    27     2   ar
    28     8     4   ar
    29    24     9    1
    30     1    28    1
    31     1    29    1
    32     7    30    1
    33     9    31    1
    34    10    32    1
    35    10    33    1
    36    11    34    1
    37    12    35    1
    38    13    36    1
    39    14    37    1
    40    14    38    1
    41    17    39    1
    42    21    40    1
    43    22    41    1
    44    27    42    1
