@<TRIPOS>MOLECULE
*****
 53 57 0 0 0
SMALL
GASTEIGER

@<TRIPOS>ATOM
      1 C          -4.6780   -0.0451    1.0085 C.3     1  UNL1       -0.0274
      2 C          -3.6961    0.4528   -0.0733 C.3     1  UNL1        0.1037
      3 O          -2.4884   -0.0084   -0.0075 O.3     1  UNL1       -0.4725
      4 C          -1.2776   -0.4244    0.0638 C.ar    1  UNL1        0.2265
      5 N          -0.2279    0.4271    0.2682 N.ar    1  UNL1       -0.2121
      6 C           1.0459    0.0502    0.3502 C.ar    1  UNL1        0.0798
      7 C           2.1328    1.0294    0.5742 C.ar    1  UNL1        0.0380
      8 C           1.9794    2.3896    0.7207 C.ar    1  UNL1        0.0586
      9 N           3.2071    2.8978    0.9019 N.ar    1  UNL1       -0.1787
     10 N           4.0987    1.9263    0.8743 N.ar    1  UNL1       -0.2655
     11 C           5.5190    2.1765    1.0429 C.3     1  UNL1        0.0780
     12 C           6.0166    1.6498    2.3724 C.3     1  UNL1       -0.0048
     13 C           7.3839    1.1231    2.0204 C.3     1  UNL1        0.0498
     14 O           7.6033    1.4070    0.6915 O.3     1  UNL1       -0.3776
     15 C           6.3548    1.3732    0.0698 C.3     1  UNL1        0.0701
     16 C           3.4744    0.7647    0.6748 C.ar    1  UNL1        0.0351
     17 C           1.3518   -1.2841    0.2233 C.ar    1  UNL1       -0.0076
     18 C           0.3390   -2.1923    0.0159 C.ar    1  UNL1        0.0999
     19 N           0.3030   -3.5430   -0.1467 N.ar    1  UNL1       -0.1712
     20 N          -0.9280   -3.9492   -0.3165 N.ar    1  UNL1       -0.2732
     21 C          -1.4360   -5.3071   -0.5267 C.3     1  UNL1        0.0302
     22 C          -1.7706   -2.8928   -0.2757 C.ar    1  UNL1        0.0380
     23 C          -0.9661   -1.7795   -0.0649 C.ar    1  UNL1        0.0812
     24 C          -4.4586    0.2488   -1.3830 C.3     1  UNL1        0.0196
     25 C          -5.7163    1.0881   -1.2744 C.3     1  UNL1        0.0182
     26 N          -6.0694    1.2424   -2.6717 N.am    1  UNL1       -0.3149
     27 C          -4.8749    1.2507   -3.4430 C.2     1  UNL1        0.2135
     28 O          -4.7674    1.4835   -4.6668 O.2     1  UNL1       -0.2758
     29 C          -3.7437    0.9288   -2.5313 C.3     1  UNL1        0.0315
     30 H          -4.1202   -0.2721    1.9342 H       1  UNL1        0.0265
     31 H          -5.4678    0.6902    1.1946 H       1  UNL1        0.0265
     32 H          -5.1535   -0.9959    0.6714 H       1  UNL1        0.0265
     33 H          -3.7176    1.5876    0.0546 H       1  UNL1        0.0734
     34 H           1.0177    2.9257    0.6898 H       1  UNL1        0.0854
     35 H           5.7826    3.2271    0.9264 H       1  UNL1        0.0568
     36 H           5.3413    0.8157    2.6710 H       1  UNL1        0.0309
     37 H           6.0303    2.4221    3.1611 H       1  UNL1        0.0309
     38 H           7.3774    0.0152    2.1328 H       1  UNL1        0.0560
     39 H           8.1515    1.5503    2.6970 H       1  UNL1        0.0560
     40 H           6.0392    0.3110    0.0347 H       1  UNL1        0.0581
     41 H           6.4225    1.8417   -0.9305 H       1  UNL1        0.0581
     42 H           3.9238   -0.2141    0.6027 H       1  UNL1        0.0833
     43 H           2.3699   -1.6286    0.2837 H       1  UNL1        0.0661
     44 H          -1.9986   -5.6561    0.3707 H       1  UNL1        0.0473
     45 H          -0.6260   -5.9994   -0.7998 H       1  UNL1        0.0473
     46 H          -2.1796   -5.2763   -1.3584 H       1  UNL1        0.0473
     47 H          -2.8433   -2.8566   -0.3777 H       1  UNL1        0.0834
     48 H          -4.6632   -0.8025   -1.5780 H       1  UNL1        0.0356
     49 H          -5.5252    2.0359   -0.7624 H       1  UNL1        0.0466
     50 H          -6.5421    0.5189   -0.7743 H       1  UNL1        0.0466
     51 H          -7.0376    1.3315   -3.0421 H       1  UNL1        0.1487
     52 H          -3.1660    1.8037   -2.2220 H       1  UNL1        0.0363
     53 H          -3.1261    0.1411   -3.0355 H       1  UNL1        0.0363
@<TRIPOS>BOND
     1     1     2    1
     2     2     3    1
     3     3     4    1
     4     4     5   ar
     5     5     6   ar
     6     6     7    1
     7     7     8   ar
     8     8     9   ar
     9     9    10   ar
    10    10    11    1
    11    11    12    1
    12    12    13    1
    13    13    14    1
    14    14    15    1
    15    10    16   ar
    16     6    17   ar
    17    17    18   ar
    18    18    19   ar
    19    19    20   ar
    20    20    21    1
    21    20    22   ar
    22    22    23   ar
    23     2    24    1
    24    24    25    1
    25    25    26    1
    26    26    27   am
    27    27    28    2
    28    27    29    1
    29    23     4   ar
    30    29    24    1
    31    16     7   ar
    32    23    18   ar
    33    15    11    1
    34     1    30    1
    35     1    31    1
    36     1    32    1
    37     2    33    1
    38     8    34    1
    39    11    35    1
    40    12    36    1
    41    12    37    1
    42    13    38    1
    43    13    39    1
    44    15    40    1
    45    15    41    1
    46    16    42    1
    47    17    43    1
    48    21    44    1
    49    21    45    1
    50    21    46    1
    51    22    47    1
    52    24    48    1
    53    25    49    1
    54    25    50    1
    55    26    51    1
    56    29    52    1
    57    29    53    1
