
     RDKit          3D

 53 57  0  0  0  0  0  0  0  0999 V2000
   -4.6780   -0.0451    1.0085 C   0  0  0  0  0  0  0  0  0  0  0  0
   -3.6961    0.4528   -0.0733 C   0  0  1  0  0  0  0  0  0  0  0  0
   -2.4884   -0.0084   -0.0075 O   0  0  0  0  0  0  0  0  0  0  0  0
   -1.2776   -0.4244    0.0638 C   0  0  0  0  0  0  0  0  0  0  0  0
   -0.2279    0.4271    0.2682 N   0  0  0  0  0  0  0  0  0  0  0  0
    1.0459    0.0502    0.3502 C   0  0  0  0  0  0  0  0  0  0  0  0
    2.1328    1.0294    0.5742 C   0  0  0  0  0  0  0  0  0  0  0  0
    1.9794    2.3896    0.7207 C   0  0  0  0  0  0  0  0  0  0  0  0
    3.2071    2.8978    0.9019 N   0  0  0  0  0  0  0  0  0  0  0  0
    4.0987    1.9263    0.8743 N   0  0  0  0  0  0  0  0  0  0  0  0
    5.5190    2.1765    1.0429 C   0  0  1  0  0  0  0  0  0  0  0  0
    6.0166    1.6498    2.3724 C   0  0  0  0  0  0  0  0  0  0  0  0
    7.3839    1.1231    2.0204 C   0  0  0  0  0  0  0  0  0  0  0  0
    7.6033    1.4070    0.6915 O   0  0  0  0  0  0  0  0  0  0  0  0
    6.3548    1.3732    0.0698 C   0  0  0  0  0  0  0  0  0  0  0  0
    3.4744    0.7647    0.6748 C   0  0  0  0  0  0  0  0  0  0  0  0
    1.3518   -1.2841    0.2233 C   0  0  0  0  0  0  0  0  0  0  0  0
    0.3390   -2.1923    0.0159 C   0  0  0  0  0  0  0  0  0  0  0  0
    0.3030   -3.5430   -0.1467 N   0  0  0  0  0  0  0  0  0  0  0  0
   -0.9280   -3.9492   -0.3165 N   0  0  0  0  0  0  0  0  0  0  0  0
   -1.4360   -5.3071   -0.5267 C   0  0  0  0  0  0  0  0  0  0  0  0
   -1.7706   -2.8928   -0.2757 C   0  0  0  0  0  0  0  0  0  0  0  0
   -0.9661   -1.7795   -0.0649 C   0  0  0  0  0  0  0  0  0  0  0  0
   -4.4586    0.2488   -1.3830 C   0  0  1  0  0  0  0  0  0  0  0  0
   -5.7163    1.0881   -1.2744 C   0  0  0  0  0  0  0  0  0  0  0  0
   -6.0694    1.2424   -2.6717 N   0  0  0  0  0  0  0  0  0  0  0  0
   -4.8749    1.2507   -3.4430 C   0  0  0  0  0  0  0  0  0  0  0  0
   -4.7674    1.4835   -4.6668 O   0  0  0  0  0  0  0  0  0  0  0  0
   -3.7437    0.9288   -2.5313 C   0  0  0  0  0  0  0  0  0  0  0  0
   -4.1202   -0.2721    1.9342 H   0  0  0  0  0  0  0  0  0  0  0  0
   -5.4678    0.6902    1.1946 H   0  0  0  0  0  0  0  0  0  0  0  0
   -5.1535   -0.9959    0.6714 H   0  0  0  0  0  0  0  0  0  0  0  0
   -3.7176    1.5876    0.0546 H   0  0  0  0  0  0  0  0  0  0  0  0
    1.0177    2.9257    0.6898 H   0  0  0  0  0  0  0  0  0  0  0  0
    5.7826    3.2271    0.9264 H   0  0  0  0  0  0  0  0  0  0  0  0
    5.3413    0.8157    2.6710 H   0  0  0  0  0  0  0  0  0  0  0  0
    6.0303    2.4221    3.1611 H   0  0  0  0  0  0  0  0  0  0  0  0
    7.3774    0.0152    2.1328 H   0  0  0  0  0  0  0  0  0  0  0  0
    8.1515    1.5503    2.6970 H   0  0  0  0  0  0  0  0  0  0  0  0
    6.0392    0.3110    0.0347 H   0  0  0  0  0  0  0  0  0  0  0  0
    6.4225    1.8417   -0.9305 H   0  0  0  0  0  0  0  0  0  0  0  0
    3.9238   -0.2141    0.6027 H   0  0  0  0  0  0  0  0  0  0  0  0
    2.3699   -1.6286    0.2837 H   0  0  0  0  0  0  0  0  0  0  0  0
   -1.9986   -5.6561    0.3707 H   0  0  0  0  0  0  0  0  0  0  0  0
   -0.6260   -5.9994   -0.7998 H   0  0  0  0  0  0  0  0  0  0  0  0
   -2.1796   -5.2763   -1.3584 H   0  0  0  0  0  0  0  0  0  0  0  0
   -2.8433   -2.8566   -0.3777 H   0  0  0  0  0  0  0  0  0  0  0  0
   -4.6632   -0.8025   -1.5780 H   0  0  0  0  0  0  0  0  0  0  0  0
   -5.5252    2.0359   -0.7624 H   0  0  0  0  0  0  0  0  0  0  0  0
   -6.5421    0.5189   -0.7743 H   0  0  0  0  0  0  0  0  0  0  0  0
   -7.0376    1.3315   -3.0421 H   0  0  0  0  0  0  0  0  0  0  0  0
   -3.1660    1.8037   -2.2220 H   0  0  0  0  0  0  0  0  0  0  0  0
   -3.1261    0.1411   -3.0355 H   0  0  0  0  0  0  0  0  0  0  0  0
  1  2  1  0
  2  3  1  0
  3  4  1  0
  4  5  2  0
  5  6  1  0
  6  7  1  0
  7  8  1  0
  8  9  2  0
  9 10  1  0
 10 11  1  0
 11 12  1  0
 12 13  1  0
 13 14  1  0
 14 15  1  0
 10 16  1  0
  6 17  2  0
 17 18  1  0
 18 19  2  0
 19 20  1  0
 20 21  1  0
 20 22  1  0
 22 23  2  0
  2 24  1  0
 24 25  1  0
 25 26  1  0
 26 27  1  0
 27 28  2  0
 27 29  1  0
 23  4  1  0
 29 24  1  0
 16  7  2  0
 23 18  1  0
 15 11  1  0
  1 30  1  0
  1 31  1  0
  1 32  1  0
  2 33  1  1
  8 34  1  0
 11 35  1  1
 12 36  1  0
 12 37  1  0
 13 38  1  0
 13 39  1  0
 15 40  1  0
 15 41  1  0
 16 42  1  0
 17 43  1  0
 21 44  1  0
 21 45  1  0
 21 46  1  0
 22 47  1  0
 24 48  1  6
 25 49  1  0
 25 50  1  0
 26 51  1  0
 29 52  1  0
 29 53  1  0
M  END
$$$$
