@<TRIPOS>MOLECULE
*****
 58 60 0 0 0
SMALL
GASTEIGER

@<TRIPOS>ATOM
      1 C           5.9183   -3.4148   -1.0532 C.3     1  UNL1       -0.0638
      2 C           5.7587   -2.0145   -0.5034 C.3     1  UNL1       -0.0350
      3 C           4.2881   -1.6054   -0.4759 C.3     1  UNL1        0.0817
      4 S           4.1911    0.0433    0.1804 S.O2    1  UNL1        0.0318
      5 O           4.8969    0.0471    1.5041 O.2     1  UNL1       -0.1580
      6 O           5.0258    0.9242   -0.7383 O.2     1  UNL1       -0.1580
      7 N           2.6526    0.6529    0.2821 N.3     1  UNL1       -0.1811
      8 C           1.8989    0.8079   -0.9036 C.3     1  UNL1        0.0210
      9 C           0.4905    0.2630   -0.7296 C.3     1  UNL1       -0.0260
     10 C          -0.2628    0.9403    0.3955 C.3     1  UNL1        0.0308
     11 C          -1.1288   -0.0181    1.1326 C.3     1  UNL1        0.0230
     12 N          -2.1041   -0.7187    0.3644 N.am    1  UNL1       -0.3104
     13 C          -2.9937   -1.6294    1.0159 C.2     1  UNL1        0.2455
     14 O          -2.8651   -1.7658    2.2542 O.2     1  UNL1       -0.2702
     15 C          -4.0112   -2.3747    0.2868 C.ar    1  UNL1        0.0550
     16 C          -3.6473   -3.2766   -0.6918 C.ar    1  UNL1       -0.0482
     17 C          -4.5836   -4.0059   -1.4093 C.ar    1  UNL1       -0.0610
     18 C          -5.9213   -3.8198   -1.1319 C.ar    1  UNL1       -0.0603
     19 C          -6.3316   -2.9291   -0.1625 C.ar    1  UNL1       -0.0427
     20 C          -5.3634   -2.2237    0.5279 C.ar    1  UNL1        0.0531
     21 CL         -5.8308   -1.0830    1.7664 Cl      1  UNL1       -0.0828
     22 C          -0.9174    2.1713   -0.0632 C.ar    1  UNL1        0.0493
     23 C          -2.2450    2.3113   -0.3701 C.ar    1  UNL1       -0.0398
     24 C          -2.7910    3.5111   -0.8198 C.ar    1  UNL1       -0.0584
     25 C          -1.9259    4.5743   -0.9459 C.ar    1  UNL1       -0.0406
     26 C          -0.5968    4.4620   -0.6458 C.ar    1  UNL1        0.0385
     27 C           0.3001    5.6470   -0.7996 C.3     1  UNL1       -0.0224
     28 N          -0.1333    3.2828   -0.2190 N.ar    1  UNL1       -0.2562
     29 C           0.7627    1.4294    1.4624 C.3     1  UNL1       -0.0260
     30 C           1.9189    0.4515    1.4810 C.3     1  UNL1        0.0210
     31 H           5.8529   -3.4095   -2.1506 H       1  UNL1        0.0230
     32 H           5.1913   -4.1115   -0.5832 H       1  UNL1        0.0230
     33 H           6.9231   -3.7989   -0.7826 H       1  UNL1        0.0230
     34 H           6.1998   -1.9913    0.5079 H       1  UNL1        0.0279
     35 H           6.3338   -1.3176   -1.1472 H       1  UNL1        0.0279
     36 H           3.7676   -2.2740    0.2495 H       1  UNL1        0.0515
     37 H           3.8903   -1.6858   -1.4988 H       1  UNL1        0.0515
     38 H           1.8186    1.8759   -1.1708 H       1  UNL1        0.0444
     39 H           2.3566    0.2539   -1.7263 H       1  UNL1        0.0444
     40 H           0.4938   -0.8222   -0.5133 H       1  UNL1        0.0288
     41 H          -0.0602    0.4943   -1.6771 H       1  UNL1        0.0288
     42 H          -1.6011    0.4973    2.0195 H       1  UNL1        0.0471
     43 H          -0.4631   -0.7935    1.6124 H       1  UNL1        0.0471
     44 H          -2.2467   -0.6638   -0.6776 H       1  UNL1        0.1490
     45 H          -2.5849   -3.4354   -0.9238 H       1  UNL1        0.0625
     46 H          -4.2650   -4.7141   -2.1795 H       1  UNL1        0.0618
     47 H          -6.6887   -4.3596   -1.6584 H       1  UNL1        0.0618
     48 H          -7.4009   -2.7975    0.0412 H       1  UNL1        0.0632
     49 H          -2.9021    1.4630   -0.2479 H       1  UNL1        0.0636
     50 H          -3.8474    3.5895   -1.0553 H       1  UNL1        0.0619
     51 H          -2.3067    5.5275   -1.2926 H       1  UNL1        0.0635
     52 H           0.0097    6.2154   -1.7050 H       1  UNL1        0.0292
     53 H           1.3514    5.3385   -0.8869 H       1  UNL1        0.0292
     54 H           0.1903    6.3153    0.0591 H       1  UNL1        0.0292
     55 H           1.1756    2.3918    1.0974 H       1  UNL1        0.0288
     56 H           0.2451    1.4946    2.4198 H       1  UNL1        0.0288
     57 H           1.5791   -0.6050    1.5202 H       1  UNL1        0.0444
     58 H           2.5380    0.6830    2.3704 H       1  UNL1        0.0444
@<TRIPOS>BOND
     1     1     2    1
     2     2     3    1
     3     3     4    1
     4     4     5    2
     5     4     6    2
     6     4     7    1
     7     7     8    1
     8     8     9    1
     9     9    10    1
    10    10    11    1
    11    11    12    1
    12    12    13   am
    13    13    14    2
    14    13    15    1
    15    15    16   ar
    16    16    17   ar
    17    17    18   ar
    18    18    19   ar
    19    19    20   ar
    20    20    21    1
    21    10    22    1
    22    22    23   ar
    23    23    24   ar
    24    24    25   ar
    25    25    26   ar
    26    26    27    1
    27    26    28   ar
    28    10    29    1
    29    29    30    1
    30    30     7    1
    31    20    15   ar
    32    28    22   ar
    33     1    31    1
    34     1    32    1
    35     1    33    1
    36     2    34    1
    37     2    35    1
    38     3    36    1
    39     3    37    1
    40     8    38    1
    41     8    39    1
    42     9    40    1
    43     9    41    1
    44    11    42    1
    45    11    43    1
    46    12    44    1
    47    16    45    1
    48    17    46    1
    49    18    47    1
    50    19    48    1
    51    23    49    1
    52    24    50    1
    53    25    51    1
    54    27    52    1
    55    27    53    1
    56    27    54    1
    57    29    55    1
    58    29    56    1
    59    30    57    1
    60    30    58    1
