
     RDKit          3D

 58 60  0  0  0  0  0  0  0  0999 V2000
    5.9183   -3.4148   -1.0532 C   0  0  0  0  0  0  0  0  0  0  0  0
    5.7587   -2.0145   -0.5034 C   0  0  0  0  0  0  0  0  0  0  0  0
    4.2881   -1.6054   -0.4759 C   0  0  0  0  0  0  0  0  0  0  0  0
    4.1911    0.0433    0.1804 S   0  0  0  0  0  6  0  0  0  0  0  0
    4.8969    0.0471    1.5041 O   0  0  0  0  0  0  0  0  0  0  0  0
    5.0258    0.9242   -0.7383 O   0  0  0  0  0  0  0  0  0  0  0  0
    2.6526    0.6529    0.2821 N   0  0  0  0  0  0  0  0  0  0  0  0
    1.8989    0.8079   -0.9036 C   0  0  0  0  0  0  0  0  0  0  0  0
    0.4905    0.2630   -0.7296 C   0  0  0  0  0  0  0  0  0  0  0  0
   -0.2628    0.9403    0.3955 C   0  0  0  0  0  0  0  0  0  0  0  0
   -1.1288   -0.0181    1.1326 C   0  0  0  0  0  0  0  0  0  0  0  0
   -2.1041   -0.7187    0.3644 N   0  0  0  0  0  0  0  0  0  0  0  0
   -2.9937   -1.6294    1.0159 C   0  0  0  0  0  0  0  0  0  0  0  0
   -2.8651   -1.7658    2.2542 O   0  0  0  0  0  0  0  0  0  0  0  0
   -4.0112   -2.3747    0.2868 C   0  0  0  0  0  0  0  0  0  0  0  0
   -3.6473   -3.2766   -0.6918 C   0  0  0  0  0  0  0  0  0  0  0  0
   -4.5836   -4.0059   -1.4093 C   0  0  0  0  0  0  0  0  0  0  0  0
   -5.9213   -3.8198   -1.1319 C   0  0  0  0  0  0  0  0  0  0  0  0
   -6.3316   -2.9291   -0.1625 C   0  0  0  0  0  0  0  0  0  0  0  0
   -5.3634   -2.2237    0.5279 C   0  0  0  0  0  0  0  0  0  0  0  0
   -5.8308   -1.0830    1.7664 Cl  0  0  0  0  0  0  0  0  0  0  0  0
   -0.9174    2.1713   -0.0632 C   0  0  0  0  0  0  0  0  0  0  0  0
   -2.2450    2.3113   -0.3701 C   0  0  0  0  0  0  0  0  0  0  0  0
   -2.7910    3.5111   -0.8198 C   0  0  0  0  0  0  0  0  0  0  0  0
   -1.9259    4.5743   -0.9459 C   0  0  0  0  0  0  0  0  0  0  0  0
   -0.5968    4.4620   -0.6458 C   0  0  0  0  0  0  0  0  0  0  0  0
    0.3001    5.6470   -0.7996 C   0  0  0  0  0  0  0  0  0  0  0  0
   -0.1333    3.2828   -0.2190 N   0  0  0  0  0  0  0  0  0  0  0  0
    0.7627    1.4294    1.4624 C   0  0  0  0  0  0  0  0  0  0  0  0
    1.9189    0.4515    1.4810 C   0  0  0  0  0  0  0  0  0  0  0  0
    5.8529   -3.4095   -2.1506 H   0  0  0  0  0  0  0  0  0  0  0  0
    5.1913   -4.1115   -0.5832 H   0  0  0  0  0  0  0  0  0  0  0  0
    6.9231   -3.7989   -0.7826 H   0  0  0  0  0  0  0  0  0  0  0  0
    6.1998   -1.9913    0.5079 H   0  0  0  0  0  0  0  0  0  0  0  0
    6.3338   -1.3176   -1.1472 H   0  0  0  0  0  0  0  0  0  0  0  0
    3.7676   -2.2740    0.2495 H   0  0  0  0  0  0  0  0  0  0  0  0
    3.8903   -1.6858   -1.4988 H   0  0  0  0  0  0  0  0  0  0  0  0
    1.8186    1.8759   -1.1708 H   0  0  0  0  0  0  0  0  0  0  0  0
    2.3566    0.2539   -1.7263 H   0  0  0  0  0  0  0  0  0  0  0  0
    0.4938   -0.8222   -0.5133 H   0  0  0  0  0  0  0  0  0  0  0  0
   -0.0602    0.4943   -1.6771 H   0  0  0  0  0  0  0  0  0  0  0  0
   -1.6011    0.4973    2.0195 H   0  0  0  0  0  0  0  0  0  0  0  0
   -0.4631   -0.7935    1.6124 H   0  0  0  0  0  0  0  0  0  0  0  0
   -2.2467   -0.6638   -0.6776 H   0  0  0  0  0  0  0  0  0  0  0  0
   -2.5849   -3.4354   -0.9238 H   0  0  0  0  0  0  0  0  0  0  0  0
   -4.2650   -4.7141   -2.1795 H   0  0  0  0  0  0  0  0  0  0  0  0
   -6.6887   -4.3596   -1.6584 H   0  0  0  0  0  0  0  0  0  0  0  0
   -7.4009   -2.7975    0.0412 H   0  0  0  0  0  0  0  0  0  0  0  0
   -2.9021    1.4630   -0.2479 H   0  0  0  0  0  0  0  0  0  0  0  0
   -3.8474    3.5895   -1.0553 H   0  0  0  0  0  0  0  0  0  0  0  0
   -2.3067    5.5275   -1.2926 H   0  0  0  0  0  0  0  0  0  0  0  0
    0.0097    6.2154   -1.7050 H   0  0  0  0  0  0  0  0  0  0  0  0
    1.3514    5.3385   -0.8869 H   0  0  0  0  0  0  0  0  0  0  0  0
    0.1903    6.3153    0.0591 H   0  0  0  0  0  0  0  0  0  0  0  0
    1.1756    2.3918    1.0974 H   0  0  0  0  0  0  0  0  0  0  0  0
    0.2451    1.4946    2.4198 H   0  0  0  0  0  0  0  0  0  0  0  0
    1.5791   -0.6050    1.5202 H   0  0  0  0  0  0  0  0  0  0  0  0
    2.5380    0.6830    2.3704 H   0  0  0  0  0  0  0  0  0  0  0  0
  1  2  1  0
  2  3  1  0
  3  4  1  0
  4  5  2  0
  4  6  2  0
  4  7  1  0
  7  8  1  0
  8  9  1  0
  9 10  1  0
 10 11  1  0
 11 12  1  0
 12 13  1  0
 13 14  2  0
 13 15  1  0
 15 16  2  0
 16 17  1  0
 17 18  2  0
 18 19  1  0
 19 20  2  0
 20 21  1  0
 10 22  1  0
 22 23  2  0
 23 24  1  0
 24 25  2  0
 25 26  1  0
 26 27  1  0
 26 28  2  0
 10 29  1  0
 29 30  1  0
 30  7  1  0
 20 15  1  0
 28 22  1  0
  1 31  1  0
  1 32  1  0
  1 33  1  0
  2 34  1  0
  2 35  1  0
  3 36  1  0
  3 37  1  0
  8 38  1  0
  8 39  1  0
  9 40  1  0
  9 41  1  0
 11 42  1  0
 11 43  1  0
 12 44  1  0
 16 45  1  0
 17 46  1  0
 18 47  1  0
 19 48  1  0
 23 49  1  0
 24 50  1  0
 25 51  1  0
 27 52  1  0
 27 53  1  0
 27 54  1  0
 29 55  1  0
 29 56  1  0
 30 57  1  0
 30 58  1  0
M  END
$$$$
