@<TRIPOS>MOLECULE
*****
 63 66 0 0 0
SMALL
GASTEIGER

@<TRIPOS>ATOM
      1 C          -9.6135    3.5011   -1.2146 C.3     1  UNL1        0.0125
      2 C          -8.9003    2.3309   -0.6466 C.2     1  UNL1        0.2141
      3 O          -8.3166    2.4538    0.4575 O.2     1  UNL1       -0.2758
      4 N          -8.8580    1.0747   -1.3167 N.am    1  UNL1       -0.2857
      5 C          -8.1296    0.0232   -0.6734 C.ar    1  UNL1        0.0341
      6 C          -8.6964   -0.8457    0.2223 C.ar    1  UNL1       -0.0402
      7 C          -7.9430   -1.8424    0.8466 C.ar    1  UNL1       -0.0564
      8 C          -6.5840   -1.9729    0.5671 C.ar    1  UNL1       -0.0382
      9 C          -5.7652   -3.0294    1.2312 C.3     1  UNL1       -0.0390
     10 C          -6.0087   -1.1265   -0.3116 C.ar    1  UNL1        0.0417
     11 C          -4.5828   -1.0989   -0.6614 C.2     1  UNL1        0.2486
     12 O          -4.1778   -1.5944   -1.7195 O.2     1  UNL1       -0.2698
     13 N          -3.7252   -0.4472    0.2948 N.am    1  UNL1       -0.2790
     14 C          -2.3657   -0.2811    0.0152 C.ar    1  UNL1        0.0704
     15 C          -1.3093   -1.0652    0.3187 C.ar    1  UNL1        0.0539
     16 N          -0.0082   -0.7284   -0.0088 N.ar    1  UNL1       -0.2208
     17 C           0.2642    0.3940   -0.6455 C.ar    1  UNL1        0.2195
     18 N           1.5385    0.8527   -0.9663 N.pl3   1  UNL1       -0.2836
     19 C           2.7609    0.2965   -0.5949 C.ar    1  UNL1        0.0337
     20 C           3.8543    1.2019   -0.6359 C.ar    1  UNL1       -0.0387
     21 C           5.0955    0.8093   -0.3239 C.ar    1  UNL1       -0.0389
     22 C           5.4124   -0.5022    0.0617 C.ar    1  UNL1        0.0299
     23 N           6.7348   -0.7876    0.3855 N.pl3   1  UNL1       -0.3275
     24 C           7.6298   -1.4047   -0.5660 C.3     1  UNL1        0.0250
     25 C           8.6731   -0.3428   -0.9881 C.3     1  UNL1        0.0144
     26 N           8.7197    0.6028    0.0534 N.3     1  UNL1       -0.3024
     27 C           8.8106    1.9679   -0.2399 C.3     1  UNL1       -0.0126
     28 C           8.6817    0.1574    1.3863 C.3     1  UNL1        0.0144
     29 C           7.3289   -0.4672    1.6831 C.3     1  UNL1        0.0250
     30 C           4.3600   -1.3748    0.1018 C.ar    1  UNL1       -0.0389
     31 C           3.0525   -0.9804   -0.2222 C.ar    1  UNL1       -0.0387
     32 N          -0.8056    1.2081   -0.9676 N.ar    1  UNL1       -0.2208
     33 C          -2.0548    0.9208   -0.6720 C.ar    1  UNL1        0.0539
     34 C          -6.7890   -0.1383   -0.9228 C.ar    1  UNL1       -0.0281
     35 H          -9.7033    4.2681   -0.4180 H       1  UNL1        0.0323
     36 H         -10.5962    3.2237   -1.6423 H       1  UNL1        0.0323
     37 H          -8.9478    3.9184   -2.0235 H       1  UNL1        0.0323
     38 H          -9.3323    0.9645   -2.2236 H       1  UNL1        0.1548
     39 H          -9.7486   -0.7436    0.4407 H       1  UNL1        0.0636
     40 H          -8.3756   -2.5217    1.5481 H       1  UNL1        0.0621
     41 H          -6.3844   -3.9171    1.4973 H       1  UNL1        0.0278
     42 H          -5.2983   -2.5583    2.1219 H       1  UNL1        0.0278
     43 H          -4.9540   -3.3220    0.5423 H       1  UNL1        0.0278
     44 H          -4.1339   -0.0999    1.2136 H       1  UNL1        0.1552
     45 H          -1.4831   -1.9996    0.8418 H       1  UNL1        0.0850
     46 H           1.5383    1.7436   -1.5886 H       1  UNL1        0.1550
     47 H           3.6913    2.2428   -0.9223 H       1  UNL1        0.0637
     48 H           5.9157    1.5187   -0.3644 H       1  UNL1        0.0637
     49 H           8.1914   -2.2001    0.0024 H       1  UNL1        0.0476
     50 H           7.1240   -1.8540   -1.4178 H       1  UNL1        0.0476
     51 H           8.2864    0.1194   -1.9245 H       1  UNL1        0.0442
     52 H           9.6110   -0.8735   -1.2138 H       1  UNL1        0.0442
     53 H           8.1334    2.2205   -1.0979 H       1  UNL1        0.0391
     54 H           8.3787    2.5651    0.6103 H       1  UNL1        0.0391
     55 H           9.8248    2.3953   -0.3869 H       1  UNL1        0.0391
     56 H           8.9196    0.9746    2.0999 H       1  UNL1        0.0442
     57 H           9.4250   -0.6805    1.5317 H       1  UNL1        0.0442
     58 H           7.4234   -1.3807    2.2764 H       1  UNL1        0.0476
     59 H           6.6707    0.2506    2.2239 H       1  UNL1        0.0476
     60 H           4.5566   -2.4009    0.3932 H       1  UNL1        0.0637
     61 H           2.2160   -1.6874   -0.1915 H       1  UNL1        0.0637
     62 H          -2.9058    1.5470   -0.9180 H       1  UNL1        0.0850
     63 H          -6.3261    0.5222   -1.6165 H       1  UNL1        0.0644
@<TRIPOS>BOND
     1     1     2    1
     2     2     3    2
     3     2     4   am
     4     4     5    1
     5     5     6   ar
     6     6     7   ar
     7     7     8   ar
     8     8     9    1
     9     8    10   ar
    10    10    11    1
    11    11    12    2
    12    11    13   am
    13    13    14    1
    14    14    15   ar
    15    15    16   ar
    16    16    17   ar
    17    17    18    1
    18    18    19    1
    19    19    20   ar
    20    20    21   ar
    21    21    22   ar
    22    22    23    1
    23    23    24    1
    24    24    25    1
    25    25    26    1
    26    26    27    1
    27    26    28    1
    28    28    29    1
    29    22    30   ar
    30    30    31   ar
    31    17    32   ar
    32    32    33   ar
    33    10    34   ar
    34    34     5   ar
    35    33    14   ar
    36    31    19   ar
    37    29    23    1
    38     1    35    1
    39     1    36    1
    40     1    37    1
    41     4    38    1
    42     6    39    1
    43     7    40    1
    44     9    41    1
    45     9    42    1
    46     9    43    1
    47    13    44    1
    48    15    45    1
    49    18    46    1
    50    20    47    1
    51    21    48    1
    52    24    49    1
    53    24    50    1
    54    25    51    1
    55    25    52    1
    56    27    53    1
    57    27    54    1
    58    27    55    1
    59    28    56    1
    60    28    57    1
    61    29    58    1
    62    29    59    1
    63    30    60    1
    64    31    61    1
    65    33    62    1
    66    34    63    1
