
     RDKit          3D

 63 66  0  0  0  0  0  0  0  0999 V2000
   -9.6135    3.5011   -1.2146 C   0  0  0  0  0  0  0  0  0  0  0  0
   -8.9003    2.3309   -0.6466 C   0  0  0  0  0  0  0  0  0  0  0  0
   -8.3166    2.4538    0.4575 O   0  0  0  0  0  0  0  0  0  0  0  0
   -8.8580    1.0747   -1.3167 N   0  0  0  0  0  0  0  0  0  0  0  0
   -8.1296    0.0232   -0.6734 C   0  0  0  0  0  0  0  0  0  0  0  0
   -8.6964   -0.8457    0.2223 C   0  0  0  0  0  0  0  0  0  0  0  0
   -7.9430   -1.8424    0.8466 C   0  0  0  0  0  0  0  0  0  0  0  0
   -6.5840   -1.9729    0.5671 C   0  0  0  0  0  0  0  0  0  0  0  0
   -5.7652   -3.0294    1.2312 C   0  0  0  0  0  0  0  0  0  0  0  0
   -6.0087   -1.1265   -0.3116 C   0  0  0  0  0  0  0  0  0  0  0  0
   -4.5828   -1.0989   -0.6614 C   0  0  0  0  0  0  0  0  0  0  0  0
   -4.1778   -1.5944   -1.7195 O   0  0  0  0  0  0  0  0  0  0  0  0
   -3.7252   -0.4472    0.2948 N   0  0  0  0  0  0  0  0  0  0  0  0
   -2.3657   -0.2811    0.0152 C   0  0  0  0  0  0  0  0  0  0  0  0
   -1.3093   -1.0652    0.3187 C   0  0  0  0  0  0  0  0  0  0  0  0
   -0.0082   -0.7284   -0.0088 N   0  0  0  0  0  0  0  0  0  0  0  0
    0.2642    0.3940   -0.6455 C   0  0  0  0  0  0  0  0  0  0  0  0
    1.5385    0.8527   -0.9663 N   0  0  0  0  0  0  0  0  0  0  0  0
    2.7609    0.2965   -0.5949 C   0  0  0  0  0  0  0  0  0  0  0  0
    3.8543    1.2019   -0.6359 C   0  0  0  0  0  0  0  0  0  0  0  0
    5.0955    0.8093   -0.3239 C   0  0  0  0  0  0  0  0  0  0  0  0
    5.4124   -0.5022    0.0617 C   0  0  0  0  0  0  0  0  0  0  0  0
    6.7348   -0.7876    0.3855 N   0  0  0  0  0  0  0  0  0  0  0  0
    7.6298   -1.4047   -0.5660 C   0  0  0  0  0  0  0  0  0  0  0  0
    8.6731   -0.3428   -0.9881 C   0  0  0  0  0  0  0  0  0  0  0  0
    8.7197    0.6028    0.0534 N   0  0  0  0  0  0  0  0  0  0  0  0
    8.8106    1.9679   -0.2399 C   0  0  0  0  0  0  0  0  0  0  0  0
    8.6817    0.1574    1.3863 C   0  0  0  0  0  0  0  0  0  0  0  0
    7.3289   -0.4672    1.6831 C   0  0  0  0  0  0  0  0  0  0  0  0
    4.3600   -1.3748    0.1018 C   0  0  0  0  0  0  0  0  0  0  0  0
    3.0525   -0.9804   -0.2222 C   0  0  0  0  0  0  0  0  0  0  0  0
   -0.8056    1.2081   -0.9676 N   0  0  0  0  0  0  0  0  0  0  0  0
   -2.0548    0.9208   -0.6720 C   0  0  0  0  0  0  0  0  0  0  0  0
   -6.7890   -0.1383   -0.9228 C   0  0  0  0  0  0  0  0  0  0  0  0
   -9.7033    4.2681   -0.4180 H   0  0  0  0  0  0  0  0  0  0  0  0
  -10.5962    3.2237   -1.6423 H   0  0  0  0  0  0  0  0  0  0  0  0
   -8.9478    3.9184   -2.0235 H   0  0  0  0  0  0  0  0  0  0  0  0
   -9.3323    0.9645   -2.2236 H   0  0  0  0  0  0  0  0  0  0  0  0
   -9.7486   -0.7436    0.4407 H   0  0  0  0  0  0  0  0  0  0  0  0
   -8.3756   -2.5217    1.5481 H   0  0  0  0  0  0  0  0  0  0  0  0
   -6.3844   -3.9171    1.4973 H   0  0  0  0  0  0  0  0  0  0  0  0
   -5.2983   -2.5583    2.1219 H   0  0  0  0  0  0  0  0  0  0  0  0
   -4.9540   -3.3220    0.5423 H   0  0  0  0  0  0  0  0  0  0  0  0
   -4.1339   -0.0999    1.2136 H   0  0  0  0  0  0  0  0  0  0  0  0
   -1.4831   -1.9996    0.8418 H   0  0  0  0  0  0  0  0  0  0  0  0
    1.5383    1.7436   -1.5886 H   0  0  0  0  0  0  0  0  0  0  0  0
    3.6913    2.2428   -0.9223 H   0  0  0  0  0  0  0  0  0  0  0  0
    5.9157    1.5187   -0.3644 H   0  0  0  0  0  0  0  0  0  0  0  0
    8.1914   -2.2001    0.0024 H   0  0  0  0  0  0  0  0  0  0  0  0
    7.1240   -1.8540   -1.4178 H   0  0  0  0  0  0  0  0  0  0  0  0
    8.2864    0.1194   -1.9245 H   0  0  0  0  0  0  0  0  0  0  0  0
    9.6110   -0.8735   -1.2138 H   0  0  0  0  0  0  0  0  0  0  0  0
    8.1334    2.2205   -1.0979 H   0  0  0  0  0  0  0  0  0  0  0  0
    8.3787    2.5651    0.6103 H   0  0  0  0  0  0  0  0  0  0  0  0
    9.8248    2.3953   -0.3869 H   0  0  0  0  0  0  0  0  0  0  0  0
    8.9196    0.9746    2.0999 H   0  0  0  0  0  0  0  0  0  0  0  0
    9.4250   -0.6805    1.5317 H   0  0  0  0  0  0  0  0  0  0  0  0
    7.4234   -1.3807    2.2764 H   0  0  0  0  0  0  0  0  0  0  0  0
    6.6707    0.2506    2.2239 H   0  0  0  0  0  0  0  0  0  0  0  0
    4.5566   -2.4009    0.3932 H   0  0  0  0  0  0  0  0  0  0  0  0
    2.2160   -1.6874   -0.1915 H   0  0  0  0  0  0  0  0  0  0  0  0
   -2.9058    1.5470   -0.9180 H   0  0  0  0  0  0  0  0  0  0  0  0
   -6.3261    0.5222   -1.6165 H   0  0  0  0  0  0  0  0  0  0  0  0
  1  2  1  0
  2  3  2  0
  2  4  1  0
  4  5  1  0
  5  6  2  0
  6  7  1  0
  7  8  2  0
  8  9  1  0
  8 10  1  0
 10 11  1  0
 11 12  2  0
 11 13  1  0
 13 14  1  0
 14 15  2  0
 15 16  1  0
 16 17  2  0
 17 18  1  0
 18 19  1  0
 19 20  2  0
 20 21  1  0
 21 22  2  0
 22 23  1  0
 23 24  1  0
 24 25  1  0
 25 26  1  0
 26 27  1  0
 26 28  1  0
 28 29  1  0
 22 30  1  0
 30 31  2  0
 17 32  1  0
 32 33  2  0
 10 34  2  0
 34  5  1  0
 33 14  1  0
 31 19  1  0
 29 23  1  0
  1 35  1  0
  1 36  1  0
  1 37  1  0
  4 38  1  0
  6 39  1  0
  7 40  1  0
  9 41  1  0
  9 42  1  0
  9 43  1  0
 13 44  1  0
 15 45  1  0
 18 46  1  0
 20 47  1  0
 21 48  1  0
 24 49  1  0
 24 50  1  0
 25 51  1  0
 25 52  1  0
 27 53  1  0
 27 54  1  0
 27 55  1  0
 28 56  1  0
 28 57  1  0
 29 58  1  0
 29 59  1  0
 30 60  1  0
 31 61  1  0
 33 62  1  0
 34 63  1  0
M  END
$$$$
