@<TRIPOS>MOLECULE
*****
 65 69 0 0 0
SMALL
GASTEIGER

@<TRIPOS>ATOM
      1 C           1.0130   -2.4070    2.3392 C.3     1  UNL1       -0.0376
      2 C           1.6001   -1.3589    1.4649 C.ar    1  UNL1       -0.0227
      3 C           2.9535   -1.3260    1.1685 C.ar    1  UNL1       -0.0532
      4 C           3.4989   -0.3541    0.3572 C.ar    1  UNL1       -0.0419
      5 C           4.9131   -0.2409   -0.0120 C.3     1  UNL1       -0.0135
      6 C           5.1384   -0.2872   -1.5049 C.3     1  UNL1       -0.0333
      7 C           6.1027    0.7904   -1.9549 C.3     1  UNL1       -0.0009
      8 N           7.2245    0.9523   -1.0879 N.3     1  UNL1       -0.3053
      9 C           8.2404   -0.0474   -1.2572 C.3     1  UNL1       -0.0128
     10 C           6.9136    1.2647    0.2698 C.3     1  UNL1       -0.0009
     11 C           5.4258    1.1047    0.4766 C.3     1  UNL1       -0.0333
     12 C           2.6282    0.6077   -0.1614 C.ar    1  UNL1       -0.0328
     13 C           1.2766    0.5908    0.1230 C.ar    1  UNL1        0.0670
     14 N           0.2253    1.3983   -0.2483 N.ar    1  UNL1       -0.3377
     15 C          -0.9143    0.9472    0.3062 C.ar    1  UNL1        0.1463
     16 C          -2.2352    1.5485    0.1362 C.ar    1  UNL1        0.1022
     17 C          -3.3630    1.0346    0.7352 C.ar    1  UNL1        0.0446
     18 N          -3.3231   -0.0659    1.6144 N.pl3   1  UNL1       -0.3403
     19 C          -4.4837   -0.6822    2.2369 C.3     1  UNL1        0.0393
     20 C          -5.1276   -1.7471    1.4283 C.3     1  UNL1        0.0956
     21 O          -6.2351   -2.2417    2.1621 O.3     1  UNL1       -0.3856
     22 C          -5.5511   -1.4353    0.0759 C.ar    1  UNL1       -0.0163
     23 C          -6.7712   -0.8918   -0.2852 C.ar    1  UNL1       -0.0560
     24 C          -7.0837   -0.6279   -1.5973 C.ar    1  UNL1       -0.0600
     25 C          -6.1985   -0.8910   -2.6201 C.ar    1  UNL1       -0.0434
     26 C          -4.9873   -1.4274   -2.2932 C.ar    1  UNL1        0.0413
     27 CL         -3.8335   -1.7741   -3.5831 Cl      1  UNL1       -0.0835
     28 C          -4.6839   -1.6875   -0.9807 C.ar    1  UNL1       -0.0377
     29 C          -4.6264    1.6214    0.5438 C.ar    1  UNL1       -0.0239
     30 C          -4.7693    2.7296   -0.2517 C.ar    1  UNL1        0.0067
     31 N          -3.6760    3.2195   -0.8261 N.ar    1  UNL1       -0.3284
     32 C          -2.4393    2.6648   -0.6525 C.ar    1  UNL1        0.2612
     33 O          -1.4552    3.1864   -1.2285 O.2     1  UNL1       -0.2671
     34 N          -0.5579   -0.1432    1.0216 N.ar    1  UNL1       -0.2272
     35 C           0.7588   -0.3804    0.9280 C.ar    1  UNL1        0.0924
     36 H          -0.0028   -2.1123    2.6354 H       1  UNL1        0.0278
     37 H           0.9280   -3.3253    1.6991 H       1  UNL1        0.0278
     38 H           1.6728   -2.6730    3.1882 H       1  UNL1        0.0278
     39 H           3.6315   -2.0680    1.5675 H       1  UNL1        0.0624
     40 H           5.4911   -1.0405    0.4707 H       1  UNL1        0.0350
     41 H           4.2200   -0.1878   -2.0832 H       1  UNL1        0.0283
     42 H           5.5995   -1.2636   -1.7484 H       1  UNL1        0.0283
     43 H           6.5184    0.4133   -2.9367 H       1  UNL1        0.0427
     44 H           5.5786    1.7269   -2.2210 H       1  UNL1        0.0427
     45 H           8.0347   -0.5490   -2.2441 H       1  UNL1        0.0391
     46 H           9.2116    0.4633   -1.3857 H       1  UNL1        0.0391
     47 H           8.2445   -0.7678   -0.4238 H       1  UNL1        0.0391
     48 H           7.1231    2.3619    0.4131 H       1  UNL1        0.0427
     49 H           7.5004    0.6871    1.0129 H       1  UNL1        0.0427
     50 H           4.9324    1.9239   -0.0870 H       1  UNL1        0.0283
     51 H           5.1425    1.2586    1.5475 H       1  UNL1        0.0283
     52 H           2.9896    1.3979   -0.8048 H       1  UNL1        0.0642
     53 H           0.4047    2.2024   -0.8639 H       1  UNL1        0.1674
     54 H          -2.4207   -0.5008    1.8699 H       1  UNL1        0.1462
     55 H          -5.2182    0.0698    2.6043 H       1  UNL1        0.0490
     56 H          -4.1150   -1.1804    3.1813 H       1  UNL1        0.0490
     57 H          -4.4003   -2.6174    1.3484 H       1  UNL1        0.0659
     58 H          -5.9283   -2.6792    2.9944 H       1  UNL1        0.2103
     59 H          -7.4730   -0.6805    0.4980 H       1  UNL1        0.0621
     60 H          -8.0531   -0.2005   -1.8380 H       1  UNL1        0.0618
     61 H          -6.4718   -0.6722   -3.6483 H       1  UNL1        0.0632
     62 H          -3.6990   -2.1157   -0.7850 H       1  UNL1        0.0636
     63 H          -5.5123    1.2458    1.0229 H       1  UNL1        0.0651
     64 H          -5.7651    3.1799   -0.3942 H       1  UNL1        0.0808
     65 H          -3.7616    4.0595   -1.4325 H       1  UNL1        0.1683
@<TRIPOS>BOND
     1     1     2    1
     2     2     3   ar
     3     3     4   ar
     4     4     5    1
     5     5     6    1
     6     6     7    1
     7     7     8    1
     8     8     9    1
     9     8    10    1
    10    10    11    1
    11     4    12   ar
    12    12    13   ar
    13    13    14   ar
    14    14    15   ar
    15    15    16    1
    16    16    17   ar
    17    17    18    1
    18    18    19    1
    19    19    20    1
    20    20    21    1
    21    20    22    1
    22    22    23   ar
    23    23    24   ar
    24    24    25   ar
    25    25    26   ar
    26    26    27    1
    27    26    28   ar
    28    17    29   ar
    29    29    30   ar
    30    30    31   ar
    31    31    32   ar
    32    32    33    2
    33    15    34   ar
    34    34    35   ar
    35    35     2   ar
    36    11     5    1
    37    35    13   ar
    38    32    16   ar
    39    28    22   ar
    40     1    36    1
    41     1    37    1
    42     1    38    1
    43     3    39    1
    44     5    40    1
    45     6    41    1
    46     6    42    1
    47     7    43    1
    48     7    44    1
    49     9    45    1
    50     9    46    1
    51     9    47    1
    52    10    48    1
    53    10    49    1
    54    11    50    1
    55    11    51    1
    56    12    52    1
    57    14    53    1
    58    18    54    1
    59    19    55    1
    60    19    56    1
    61    20    57    1
    62    21    58    1
    63    23    59    1
    64    24    60    1
    65    25    61    1
    66    28    62    1
    67    29    63    1
    68    30    64    1
    69    31    65    1
