@<TRIPOS>MOLECULE
*****
 52 54 0 0 0
SMALL
GASTEIGER

@<TRIPOS>ATOM
      1 C           2.8994   -2.2571    0.2632 C.3     1  UNL1       -0.0494
      2 C           1.9625   -1.3164   -0.4959 C.3     1  UNL1        0.0088
      3 C           2.1759    0.0854   -0.0380 C.3     1  UNL1       -0.0125
      4 C           3.5800    0.5649   -0.3065 C.ar    1  UNL1       -0.0459
      5 C           4.5787    0.3494    0.6553 C.ar    1  UNL1       -0.0585
      6 C           5.8957    0.7272    0.5864 C.ar    1  UNL1       -0.0615
      7 C           6.2628    1.3982   -0.5772 C.ar    1  UNL1       -0.0617
      8 C           5.3225    1.6318   -1.5447 C.ar    1  UNL1       -0.0615
      9 C           4.0077    1.2334   -1.4319 C.ar    1  UNL1       -0.0585
     10 N           0.6611   -1.7612   -0.6162 N.3     1  UNL1       -0.3132
     11 C          -0.2498   -1.9549    0.4044 C.3     1  UNL1       -0.0030
     12 C          -0.8347   -0.6958    0.9887 C.3     1  UNL1       -0.0296
     13 C          -1.6048    0.0813   -0.0599 C.3     1  UNL1        0.0104
     14 C          -2.1498    1.3117    0.5565 C.ar    1  UNL1       -0.0399
     15 C          -2.4161    1.6392    1.8658 C.ar    1  UNL1       -0.0580
     16 C          -2.9388    2.8791    2.2125 C.ar    1  UNL1       -0.0615
     17 C          -3.2120    3.8325    1.2522 C.ar    1  UNL1       -0.0617
     18 C          -2.9515    3.5262   -0.0893 C.ar    1  UNL1       -0.0615
     19 C          -2.4338    2.2891   -0.3902 C.ar    1  UNL1       -0.0580
     20 C          -2.7338   -0.7639   -0.6002 C.ar    1  UNL1       -0.0399
     21 C          -3.1368   -0.7587   -1.9153 C.ar    1  UNL1       -0.0580
     22 C          -4.1825   -1.5517   -2.3834 C.ar    1  UNL1       -0.0615
     23 C          -4.8145   -2.3661   -1.4414 C.ar    1  UNL1       -0.0617
     24 C          -4.4518   -2.4112   -0.1118 C.ar    1  UNL1       -0.0615
     25 C          -3.3943   -1.5951    0.3106 C.ar    1  UNL1       -0.0580
     26 H           2.8060   -2.1471    1.3520 H       1  UNL1        0.0245
     27 H           3.9392   -1.9792   -0.0080 H       1  UNL1        0.0245
     28 H           2.7426   -3.2802   -0.1201 H       1  UNL1        0.0245
     29 H           2.4182   -1.3646   -1.5617 H       1  UNL1        0.0461
     30 H           2.1238    0.1137    1.1011 H       1  UNL1        0.0328
     31 H           1.4487    0.8178   -0.4038 H       1  UNL1        0.0328
     32 H           4.2627   -0.1822    1.5611 H       1  UNL1        0.0620
     33 H           6.5701    0.5047    1.3917 H       1  UNL1        0.0618
     34 H           7.2995    1.7026   -0.6394 H       1  UNL1        0.0618
     35 H           5.6211    2.1675   -2.4626 H       1  UNL1        0.0618
     36 H           3.2551    1.4151   -2.1988 H       1  UNL1        0.0620
     37 H           0.3120   -1.9000   -1.5972 H       1  UNL1        0.1222
     38 H           0.1345   -2.5278    1.2941 H       1  UNL1        0.0424
     39 H          -1.1296   -2.5557   -0.0112 H       1  UNL1        0.0424
     40 H          -0.0332   -0.0395    1.3279 H       1  UNL1        0.0286
     41 H          -1.4412   -0.9126    1.9009 H       1  UNL1        0.0286
     42 H          -0.9080    0.2999   -0.8674 H       1  UNL1        0.0398
     43 H          -2.1768    0.8400    2.5548 H       1  UNL1        0.0620
     44 H          -3.1040    3.0126    3.2834 H       1  UNL1        0.0618
     45 H          -3.6240    4.7931    1.5855 H       1  UNL1        0.0618
     46 H          -3.1850    4.3088   -0.7940 H       1  UNL1        0.0618
     47 H          -2.2830    2.1859   -1.4724 H       1  UNL1        0.0620
     48 H          -2.5875   -0.0876   -2.5947 H       1  UNL1        0.0620
     49 H          -4.4762   -1.5238   -3.4225 H       1  UNL1        0.0618
     50 H          -5.6405   -3.0051   -1.7766 H       1  UNL1        0.0618
     51 H          -4.9923   -3.0744    0.5691 H       1  UNL1        0.0618
     52 H          -3.1931   -1.6990    1.3489 H       1  UNL1        0.0620
@<TRIPOS>BOND
     1     1     2    1
     2     2     3    1
     3     3     4    1
     4     4     5   ar
     5     5     6   ar
     6     6     7   ar
     7     7     8   ar
     8     8     9   ar
     9     2    10    1
    10    10    11    1
    11    11    12    1
    12    12    13    1
    13    13    14    1
    14    14    15   ar
    15    15    16   ar
    16    16    17   ar
    17    17    18   ar
    18    18    19   ar
    19    13    20    1
    20    20    21   ar
    21    21    22   ar
    22    22    23   ar
    23    23    24   ar
    24    24    25   ar
    25     9     4   ar
    26    19    14   ar
    27    25    20   ar
    28     1    26    1
    29     1    27    1
    30     1    28    1
    31     2    29    1
    32     3    30    1
    33     3    31    1
    34     5    32    1
    35     6    33    1
    36     7    34    1
    37     8    35    1
    38     9    36    1
    39    10    37    1
    40    11    38    1
    41    11    39    1
    42    12    40    1
    43    12    41    1
    44    13    42    1
    45    15    43    1
    46    16    44    1
    47    17    45    1
    48    18    46    1
    49    19    47    1
    50    21    48    1
    51    22    49    1
    52    23    50    1
    53    24    51    1
    54    25    52    1
