@<TRIPOS>MOLECULE
*****
 32 34 0 0 0
SMALL
GASTEIGER

@<TRIPOS>ATOM
      1 O           2.0807   -2.8634    0.1847 O.2     1  UNL1       -0.2830
      2 C           1.5735   -1.7018    0.1924 C.ar    1  UNL1        0.2379
      3 C           0.1788   -1.5314    0.1064 C.ar    1  UNL1        0.2082
      4 O          -0.5627   -2.6840    0.0166 O.3     1  UNL1       -0.5007
      5 C          -0.2911   -0.2593    0.1205 C.ar    1  UNL1        0.1807
      6 C          -1.7240    0.0282    0.0361 C.ar    1  UNL1        0.0247
      7 C          -2.1321    1.3613    0.0565 C.ar    1  UNL1       -0.0473
      8 C          -3.4478    1.7427   -0.0168 C.ar    1  UNL1       -0.0159
      9 C          -4.4245    0.7644   -0.1160 C.ar    1  UNL1        0.1583
     10 O          -5.7345    1.1716   -0.1880 O.3     1  UNL1       -0.5033
     11 C          -4.0795   -0.5645   -0.1403 C.ar    1  UNL1        0.1589
     12 O          -5.0684   -1.5210   -0.2395 O.3     1  UNL1       -0.5033
     13 C          -2.7225   -0.8889   -0.0623 C.ar    1  UNL1       -0.0057
     14 O           0.5612    0.7680    0.2132 O.2     1  UNL1       -0.4507
     15 C           1.8468    0.6483    0.2938 C.ar    1  UNL1        0.1465
     16 C           2.6394    1.7823    0.3864 C.ar    1  UNL1        0.0231
     17 C           4.0208    1.6704    0.4736 C.ar    1  UNL1        0.1239
     18 O           4.7975    2.8108    0.5653 O.3     1  UNL1       -0.5065
     19 C           4.5995    0.4039    0.4669 C.ar    1  UNL1        0.0223
     20 C           3.7769   -0.6978    0.3735 C.ar    1  UNL1        0.1348
     21 O           4.3674   -1.9513    0.3680 O.3     1  UNL1       -0.5058
     22 C           2.4049   -0.6140    0.2859 C.ar    1  UNL1        0.1092
     23 H          -0.7420   -3.3117    0.8071 H       1  UNL1        0.2924
     24 H          -1.3543    2.1057    0.1342 H       1  UNL1        0.0626
     25 H          -3.6848    2.7906    0.0047 H       1  UNL1        0.0655
     26 H          -6.5075    0.6020   -0.4604 H       1  UNL1        0.2923
     27 H          -4.8807   -2.4916   -0.4822 H       1  UNL1        0.2923
     28 H          -2.4933   -1.9335   -0.0842 H       1  UNL1        0.0662
     29 H           2.2361    2.7847    0.3953 H       1  UNL1        0.0691
     30 H           4.4929    3.7033    0.2045 H       1  UNL1        0.2921
     31 H           5.6629    0.3243    0.5342 H       1  UNL1        0.0691
     32 H           4.6104   -2.4486   -0.4719 H       1  UNL1        0.2922
@<TRIPOS>BOND
     1     1     2    2
     2     2     3   ar
     3     3     4    1
     4     3     5   ar
     5     5     6    1
     6     6     7   ar
     7     7     8   ar
     8     8     9   ar
     9     9    10    1
    10     9    11   ar
    11    11    12    1
    12    11    13   ar
    13     5    14   ar
    14    14    15   ar
    15    15    16   ar
    16    16    17   ar
    17    17    18    1
    18    17    19   ar
    19    19    20   ar
    20    20    21    1
    21    20    22   ar
    22    22     2   ar
    23    13     6   ar
    24    22    15   ar
    25     4    23    1
    26     7    24    1
    27     8    25    1
    28    10    26    1
    29    12    27    1
    30    13    28    1
    31    16    29    1
    32    18    30    1
    33    19    31    1
    34    21    32    1
