@<TRIPOS>MOLECULE
*****
 67 71 0 0 0
SMALL
GASTEIGER

@<TRIPOS>ATOM
      1 C           5.5163   -4.7175    1.8011 C.3     1  UNL1        0.0788
      2 O           4.7078   -3.6252    1.3932 O.3     1  UNL1       -0.4944
      3 C           5.3224   -2.5752    0.7336 C.ar    1  UNL1        0.1316
      4 C           6.6809   -2.5666    0.4680 C.ar    1  UNL1       -0.0192
      5 C           7.3294   -1.5220   -0.1954 C.ar    1  UNL1       -0.0576
      6 C           6.5550   -0.4548   -0.5968 C.ar    1  UNL1       -0.0500
      7 C           5.2131   -0.4590   -0.3367 C.ar    1  UNL1        0.0367
      8 C           4.5597   -1.4923    0.3218 C.ar    1  UNL1        0.0748
      9 C           3.1135   -1.4321    0.5688 C.2     1  UNL1        0.2016
     10 O           2.5472   -2.3897    1.1715 O.2     1  UNL1       -0.2864
     11 C           2.3735   -0.2616    0.1075 C.ar    1  UNL1        0.0784
     12 C           1.0181   -0.2388    0.3563 C.ar    1  UNL1        0.1345
     13 O           0.2956   -1.2284    1.0061 O.3     1  UNL1       -0.5057
     14 C           0.2463    0.8286   -0.0459 C.ar    1  UNL1        0.0302
     15 C           0.8641    1.8761   -0.7046 C.ar    1  UNL1        0.0070
     16 C           0.0737    3.0521   -1.1542 C.3     1  UNL1        0.0122
     17 C          -0.8500    3.5545   -0.0712 C.3     1  UNL1        0.1300
     18 O          -0.1496    4.3998    0.7875 O.3     1  UNL1       -0.3806
     19 C          -1.4868    2.4336    0.7069 C.3     1  UNL1        0.0140
     20 C          -1.2063    1.0771    0.1037 C.3     1  UNL1        0.0934
     21 O          -1.8734    0.1153    0.8439 O.3     1  UNL1       -0.3432
     22 C          -2.8183   -0.4962    0.0742 C.3     1  UNL1        0.1618
     23 C          -2.6428   -1.9876   -0.1050 C.3     1  UNL1        0.0161
     24 C          -3.7722   -2.4457   -1.0073 C.3     1  UNL1        0.0382
     25 N          -3.8202   -1.4728   -2.0901 N.3     1  UNL1       -0.3249
     26 C          -5.0256   -2.4202   -0.1583 C.3     1  UNL1        0.0963
     27 O          -6.1096   -1.8888   -0.8509 O.3     1  UNL1       -0.3877
     28 C          -4.7382   -1.4523    0.9830 C.3     1  UNL1        0.0861
     29 C          -6.0910   -1.0071    1.5408 C.3     1  UNL1       -0.0361
     30 O          -4.1186   -0.3126    0.5394 O.3     1  UNL1       -0.3457
     31 C          -1.8850    4.3793   -0.7545 C.2     1  UNL1        0.1620
     32 C          -2.2016    5.8176   -0.6287 C.3     1  UNL1       -0.0032
     33 O          -2.5457    3.6806   -1.5366 O.2     1  UNL1       -0.2946
     34 C           2.2406    1.8228   -0.9417 C.ar    1  UNL1        0.1322
     35 O           2.9062    2.8652   -1.6070 O.3     1  UNL1       -0.5057
     36 C           3.0277    0.7616   -0.5459 C.ar    1  UNL1        0.0782
     37 C           4.4638    0.7064   -0.7936 C.2     1  UNL1        0.1982
     38 O           5.0061    1.6782   -1.3989 O.2     1  UNL1       -0.2865
     39 H           6.2838   -4.3351    2.5058 H       1  UNL1        0.0660
     40 H           5.9968   -5.2092    0.9234 H       1  UNL1        0.0660
     41 H           4.8826   -5.4617    2.3187 H       1  UNL1        0.0660
     42 H           7.2476   -3.4414    0.8102 H       1  UNL1        0.0654
     43 H           8.3968   -1.5603   -0.3809 H       1  UNL1        0.0619
     44 H           7.0313    0.3615   -1.1094 H       1  UNL1        0.0625
     45 H           0.5367   -1.4438    1.9776 H       1  UNL1        0.2922
     46 H           0.7941    3.8754   -1.3382 H       1  UNL1        0.0347
     47 H          -0.4316    2.8326   -2.1071 H       1  UNL1        0.0347
     48 H          -0.6585    4.5501    1.6206 H       1  UNL1        0.2108
     49 H          -1.0909    2.4243    1.7437 H       1  UNL1        0.0326
     50 H          -2.5836    2.5900    0.6769 H       1  UNL1        0.0326
     51 H          -1.6242    1.0678   -0.9232 H       1  UNL1        0.0649
     52 H          -2.8042   -0.0665   -0.9450 H       1  UNL1        0.0910
     53 H          -2.5554   -2.5554    0.8202 H       1  UNL1        0.0330
     54 H          -1.6845   -2.1741   -0.6720 H       1  UNL1        0.0330
     55 H          -3.5818   -3.4610   -1.4172 H       1  UNL1        0.0486
     56 H          -4.5830   -0.7929   -2.0209 H       1  UNL1        0.1186
     57 H          -3.6261   -1.8687   -3.0214 H       1  UNL1        0.1186
     58 H          -5.2576   -3.3862    0.2902 H       1  UNL1        0.0635
     59 H          -6.2534   -2.2461   -1.7409 H       1  UNL1        0.2100
     60 H          -4.2081   -1.9030    1.8218 H       1  UNL1        0.0620
     61 H          -6.5962   -0.4514    0.7127 H       1  UNL1        0.0255
     62 H          -6.7010   -1.8453    1.8782 H       1  UNL1        0.0255
     63 H          -5.9123   -0.2378    2.3365 H       1  UNL1        0.0255
     64 H          -3.2776    5.9554   -0.8237 H       1  UNL1        0.0307
     65 H          -2.0646    6.0764    0.4505 H       1  UNL1        0.0307
     66 H          -1.6043    6.4222   -1.3164 H       1  UNL1        0.0307
     67 H           3.2036    3.6822   -1.0550 H       1  UNL1        0.2922
@<TRIPOS>BOND
     1     1     2    1
     2     2     3    1
     3     3     4   ar
     4     4     5   ar
     5     5     6   ar
     6     6     7   ar
     7     7     8   ar
     8     8     9    1
     9     9    10    2
    10     9    11    1
    11    11    12   ar
    12    12    13    1
    13    12    14   ar
    14    14    15   ar
    15    15    16    1
    16    16    17    1
    17    17    18    1
    18    17    19    1
    19    19    20    1
    20    20    21    1
    21    21    22    1
    22    22    23    1
    23    23    24    1
    24    24    25    1
    25    24    26    1
    26    26    27    1
    27    26    28    1
    28    28    29    1
    29    28    30    1
    30    17    31    1
    31    31    32    1
    32    31    33    2
    33    15    34   ar
    34    34    35    1
    35    34    36   ar
    36    36    37    1
    37    37    38    2
    38     8     3   ar
    39    36    11   ar
    40    37     7    1
    41    20    14    1
    42    30    22    1
    43     1    39    1
    44     1    40    1
    45     1    41    1
    46     4    42    1
    47     5    43    1
    48     6    44    1
    49    13    45    1
    50    16    46    1
    51    16    47    1
    52    18    48    1
    53    19    49    1
    54    19    50    1
    55    20    51    1
    56    22    52    1
    57    23    53    1
    58    23    54    1
    59    24    55    1
    60    25    56    1
    61    25    57    1
    62    26    58    1
    63    27    59    1
    64    28    60    1
    65    29    61    1
    66    29    62    1
    67    29    63    1
    68    32    64    1
    69    32    65    1
    70    32    66    1
    71    35    67    1
