@<TRIPOS>MOLECULE
*****
 51 55 0 0 0
SMALL
GASTEIGER

@<TRIPOS>ATOM
      1 C          -8.0313   -0.3934   -0.7357 C.3     1  UNL1       -0.0223
      2 C          -6.9094   -0.3379    0.2501 C.ar    1  UNL1        0.0390
      3 C          -7.1442    0.1694    1.5252 C.ar    1  UNL1       -0.0406
      4 C          -6.1207    0.2293    2.4417 C.ar    1  UNL1       -0.0580
      5 C          -4.8815   -0.2263    2.0460 C.ar    1  UNL1       -0.0326
      6 C          -4.6243   -0.7376    0.7745 C.ar    1  UNL1        0.1083
      7 C          -3.2906   -1.1929    0.4431 C.ar    1  UNL1        0.1827
      8 N          -2.8654   -2.4598    0.4602 N.ar    1  UNL1       -0.1275
      9 N          -1.5752   -2.5090    0.0960 N.ar    1  UNL1       -0.1320
     10 C          -1.1751   -1.2397   -0.1582 C.ar    1  UNL1        0.1542
     11 N          -2.2389   -0.4552    0.0605 N.ar    1  UNL1       -0.3067
     12 C          -2.1624    1.0011   -0.1249 C.3     1  UNL1        0.0423
     13 C          -1.2884    1.1832   -1.3749 C.3     1  UNL1        0.0338
     14 N           0.0206    0.6846   -0.9750 N.am    1  UNL1       -0.2860
     15 C           1.1060    1.5675   -0.9733 C.2     1  UNL1        0.2472
     16 O           0.9185    2.7765   -1.3203 O.2     1  UNL1       -0.2700
     17 C           2.4239    1.1590   -0.5939 C.ar    1  UNL1        0.0370
     18 C           2.7654    0.7992    0.6815 C.ar    1  UNL1       -0.0490
     19 C           4.0636    0.4259    1.0099 C.ar    1  UNL1       -0.0528
     20 C           5.0528    0.4057    0.0612 C.ar    1  UNL1       -0.0113
     21 C           6.4428    0.0307    0.3823 C.ar    1  UNL1        0.0193
     22 C           7.5303    0.0692   -0.4014 C.ar    1  UNL1       -0.0469
     23 C           8.7254   -0.2783    0.0803 C.ar    1  UNL1       -0.0541
     24 C           8.8087   -0.6766    1.3991 C.ar    1  UNL1       -0.0237
     25 S           7.0578   -0.5238    1.9163 S.2     1  UNL1       -0.0967
     26 C           4.7077    0.7667   -1.2208 C.ar    1  UNL1       -0.0528
     27 C           3.4240    1.1387   -1.5600 C.ar    1  UNL1       -0.0490
     28 C           0.1364   -0.6973   -0.5981 C.3     1  UNL1        0.0834
     29 C           0.6895   -1.4979   -1.7613 C.3     1  UNL1       -0.0393
     30 N          -5.6752   -0.7619   -0.0616 N.ar    1  UNL1       -0.2488
     31 H          -7.6070   -0.7883   -1.6892 H       1  UNL1        0.0292
     32 H          -8.4844    0.6107   -0.8531 H       1  UNL1        0.0292
     33 H          -8.7970   -1.1379   -0.3686 H       1  UNL1        0.0292
     34 H          -8.1433    0.5225    1.8111 H       1  UNL1        0.0635
     35 H          -6.2704    0.6199    3.4478 H       1  UNL1        0.0619
     36 H          -4.0594   -0.1903    2.7470 H       1  UNL1        0.0640
     37 H          -3.1480    1.4479   -0.2479 H       1  UNL1        0.0508
     38 H          -1.5781    1.3845    0.7264 H       1  UNL1        0.0508
     39 H          -1.7482    0.5509   -2.1520 H       1  UNL1        0.0482
     40 H          -1.2202    2.2553   -1.6542 H       1  UNL1        0.0482
     41 H           1.9971    0.8087    1.4705 H       1  UNL1        0.0625
     42 H           4.3402    0.1400    2.0219 H       1  UNL1        0.0624
     43 H           7.4204    0.4030   -1.4729 H       1  UNL1        0.0629
     44 H           9.6812   -0.2709   -0.5231 H       1  UNL1        0.0623
     45 H           9.6308   -1.0063    2.0456 H       1  UNL1        0.0693
     46 H           5.4483    0.7600   -1.9831 H       1  UNL1        0.0624
     47 H           3.2161    1.4156   -2.6058 H       1  UNL1        0.0625
     48 H           0.8397   -0.8799    0.2533 H       1  UNL1        0.0579
     49 H           1.0867   -2.4753   -1.4298 H       1  UNL1        0.0252
     50 H          -0.0532   -1.6422   -2.5624 H       1  UNL1        0.0252
     51 H           1.5579   -0.9471   -2.1680 H       1  UNL1        0.0252
@<TRIPOS>BOND
     1     1     2    1
     2     2     3   ar
     3     3     4   ar
     4     4     5   ar
     5     5     6   ar
     6     6     7    1
     7     7     8   ar
     8     8     9   ar
     9     9    10   ar
    10    10    11   ar
    11    11    12    1
    12    12    13    1
    13    13    14    1
    14    14    15   am
    15    15    16    2
    16    15    17    1
    17    17    18   ar
    18    18    19   ar
    19    19    20   ar
    20    20    21    1
    21    21    22   ar
    22    22    23   ar
    23    23    24   ar
    24    24    25   ar
    25    20    26   ar
    26    26    27   ar
    27    14    28    1
    28    28    29    1
    29     6    30   ar
    30    30     2   ar
    31    11     7   ar
    32    27    17   ar
    33    28    10    1
    34    25    21   ar
    35     1    31    1
    36     1    32    1
    37     1    33    1
    38     3    34    1
    39     4    35    1
    40     5    36    1
    41    12    37    1
    42    12    38    1
    43    13    39    1
    44    13    40    1
    45    18    41    1
    46    19    42    1
    47    22    43    1
    48    23    44    1
    49    24    45    1
    50    26    46    1
    51    27    47    1
    52    28    48    1
    53    29    49    1
    54    29    50    1
    55    29    51    1
