
     RDKit          3D

 51 55  0  0  0  0  0  0  0  0999 V2000
   -8.0313   -0.3934   -0.7357 C   0  0  0  0  0  0  0  0  0  0  0  0
   -6.9094   -0.3379    0.2501 C   0  0  0  0  0  0  0  0  0  0  0  0
   -7.1442    0.1694    1.5252 C   0  0  0  0  0  0  0  0  0  0  0  0
   -6.1207    0.2293    2.4417 C   0  0  0  0  0  0  0  0  0  0  0  0
   -4.8815   -0.2263    2.0460 C   0  0  0  0  0  0  0  0  0  0  0  0
   -4.6243   -0.7376    0.7745 C   0  0  0  0  0  0  0  0  0  0  0  0
   -3.2906   -1.1929    0.4431 C   0  0  0  0  0  0  0  0  0  0  0  0
   -2.8654   -2.4598    0.4602 N   0  0  0  0  0  0  0  0  0  0  0  0
   -1.5752   -2.5090    0.0960 N   0  0  0  0  0  0  0  0  0  0  0  0
   -1.1751   -1.2397   -0.1582 C   0  0  0  0  0  0  0  0  0  0  0  0
   -2.2389   -0.4552    0.0605 N   0  0  0  0  0  0  0  0  0  0  0  0
   -2.1624    1.0011   -0.1249 C   0  0  0  0  0  0  0  0  0  0  0  0
   -1.2884    1.1832   -1.3749 C   0  0  0  0  0  0  0  0  0  0  0  0
    0.0206    0.6846   -0.9750 N   0  0  0  0  0  0  0  0  0  0  0  0
    1.1060    1.5675   -0.9733 C   0  0  0  0  0  0  0  0  0  0  0  0
    0.9185    2.7765   -1.3203 O   0  0  0  0  0  0  0  0  0  0  0  0
    2.4239    1.1590   -0.5939 C   0  0  0  0  0  0  0  0  0  0  0  0
    2.7654    0.7992    0.6815 C   0  0  0  0  0  0  0  0  0  0  0  0
    4.0636    0.4259    1.0099 C   0  0  0  0  0  0  0  0  0  0  0  0
    5.0528    0.4057    0.0612 C   0  0  0  0  0  0  0  0  0  0  0  0
    6.4428    0.0307    0.3823 C   0  0  0  0  0  0  0  0  0  0  0  0
    7.5303    0.0692   -0.4014 C   0  0  0  0  0  0  0  0  0  0  0  0
    8.7254   -0.2783    0.0803 C   0  0  0  0  0  0  0  0  0  0  0  0
    8.8087   -0.6766    1.3991 C   0  0  0  0  0  0  0  0  0  0  0  0
    7.0578   -0.5238    1.9163 S   0  0  0  0  0  0  0  0  0  0  0  0
    4.7077    0.7667   -1.2208 C   0  0  0  0  0  0  0  0  0  0  0  0
    3.4240    1.1387   -1.5600 C   0  0  0  0  0  0  0  0  0  0  0  0
    0.1364   -0.6973   -0.5981 C   0  0  2  0  0  0  0  0  0  0  0  0
    0.6895   -1.4979   -1.7613 C   0  0  0  0  0  0  0  0  0  0  0  0
   -5.6752   -0.7619   -0.0616 N   0  0  0  0  0  0  0  0  0  0  0  0
   -7.6070   -0.7883   -1.6892 H   0  0  0  0  0  0  0  0  0  0  0  0
   -8.4844    0.6107   -0.8531 H   0  0  0  0  0  0  0  0  0  0  0  0
   -8.7970   -1.1379   -0.3686 H   0  0  0  0  0  0  0  0  0  0  0  0
   -8.1433    0.5225    1.8111 H   0  0  0  0  0  0  0  0  0  0  0  0
   -6.2704    0.6199    3.4478 H   0  0  0  0  0  0  0  0  0  0  0  0
   -4.0594   -0.1903    2.7470 H   0  0  0  0  0  0  0  0  0  0  0  0
   -3.1480    1.4479   -0.2479 H   0  0  0  0  0  0  0  0  0  0  0  0
   -1.5781    1.3845    0.7264 H   0  0  0  0  0  0  0  0  0  0  0  0
   -1.7482    0.5509   -2.1520 H   0  0  0  0  0  0  0  0  0  0  0  0
   -1.2202    2.2553   -1.6542 H   0  0  0  0  0  0  0  0  0  0  0  0
    1.9971    0.8087    1.4705 H   0  0  0  0  0  0  0  0  0  0  0  0
    4.3402    0.1400    2.0219 H   0  0  0  0  0  0  0  0  0  0  0  0
    7.4204    0.4030   -1.4729 H   0  0  0  0  0  0  0  0  0  0  0  0
    9.6812   -0.2709   -0.5231 H   0  0  0  0  0  0  0  0  0  0  0  0
    9.6308   -1.0063    2.0456 H   0  0  0  0  0  0  0  0  0  0  0  0
    5.4483    0.7600   -1.9831 H   0  0  0  0  0  0  0  0  0  0  0  0
    3.2161    1.4156   -2.6058 H   0  0  0  0  0  0  0  0  0  0  0  0
    0.8397   -0.8799    0.2533 H   0  0  0  0  0  0  0  0  0  0  0  0
    1.0867   -2.4753   -1.4298 H   0  0  0  0  0  0  0  0  0  0  0  0
   -0.0532   -1.6422   -2.5624 H   0  0  0  0  0  0  0  0  0  0  0  0
    1.5579   -0.9471   -2.1680 H   0  0  0  0  0  0  0  0  0  0  0  0
  1  2  1  0
  2  3  2  0
  3  4  1  0
  4  5  2  0
  5  6  1  0
  6  7  1  0
  7  8  2  0
  8  9  1  0
  9 10  2  0
 10 11  1  0
 11 12  1  0
 12 13  1  0
 13 14  1  0
 14 15  1  0
 15 16  2  0
 15 17  1  0
 17 18  2  0
 18 19  1  0
 19 20  2  0
 20 21  1  0
 21 22  2  0
 22 23  1  0
 23 24  2  0
 24 25  1  0
 20 26  1  0
 26 27  2  0
 14 28  1  0
 28 29  1  0
  6 30  2  0
 30  2  1  0
 11  7  1  0
 27 17  1  0
 28 10  1  0
 25 21  1  0
  1 31  1  0
  1 32  1  0
  1 33  1  0
  3 34  1  0
  4 35  1  0
  5 36  1  0
 12 37  1  0
 12 38  1  0
 13 39  1  0
 13 40  1  0
 18 41  1  0
 19 42  1  0
 22 43  1  0
 23 44  1  0
 24 45  1  0
 26 46  1  0
 27 47  1  0
 28 48  1  1
 29 49  1  0
 29 50  1  0
 29 51  1  0
M  END
$$$$
