@<TRIPOS>MOLECULE
*****
 41 44 0 0 0
SMALL
GASTEIGER

@<TRIPOS>ATOM
      1 C          -6.1415   -1.7043   -0.9393 C.3     1  UNL1        0.0790
      2 O          -6.2004   -0.4577   -0.2721 O.3     1  UNL1       -0.4914
      3 C          -5.0900    0.2515    0.1664 C.ar    1  UNL1        0.1618
      4 C          -3.7957   -0.1692    0.0061 C.ar    1  UNL1       -0.0086
      5 C          -2.7488    0.5993    0.4726 C.ar    1  UNL1       -0.0141
      6 C          -3.0398    1.8127    1.1100 C.ar    1  UNL1       -0.0503
      7 C          -4.3536    2.2423    1.2740 C.ar    1  UNL1       -0.0159
      8 C          -5.4026    1.4575    0.7986 C.ar    1  UNL1        0.1585
      9 O          -6.7062    1.8994    0.9695 O.3     1  UNL1       -0.5033
     10 C          -1.3472    0.2152    0.3410 C.ar    1  UNL1       -0.0160
     11 C          -0.4136    1.2404    0.2115 C.ar    1  UNL1       -0.0322
     12 C           0.9374    1.0531    0.0778 C.ar    1  UNL1        0.0421
     13 C           1.3373   -0.2678    0.0785 C.ar    1  UNL1        0.0084
     14 C           0.4891   -1.3425    0.2005 C.ar    1  UNL1       -0.0515
     15 C          -0.8716   -1.0672    0.3328 C.ar    1  UNL1       -0.0533
     16 C           2.7866   -0.2415   -0.0724 C.2     1  UNL1        0.0479
     17 C           3.6991   -1.1852   -0.1703 C.2     1  UNL1       -0.0256
     18 C           5.1450   -1.1402   -0.3155 C.ar    1  UNL1        0.0400
     19 C           6.0176   -1.7641   -1.1946 C.ar    1  UNL1       -0.0370
     20 C           7.3018   -1.4000   -0.8537 C.ar    1  UNL1       -0.0438
     21 C           7.1969   -0.5545    0.2338 C.ar    1  UNL1        0.0022
     22 N           5.8904   -0.4115    0.5424 N.ar    1  UNL1       -0.3611
     23 C           3.2130    1.1478   -0.1612 C.2     1  UNL1        0.2490
     24 O           4.3351    1.6523   -0.2956 O.2     1  UNL1       -0.2698
     25 N           2.0325    1.9357   -0.0637 N.am    1  UNL1       -0.2809
     26 H          -7.2066   -2.0799   -0.9709 H       1  UNL1        0.0660
     27 H          -5.4700   -2.3690   -0.3709 H       1  UNL1        0.0660
     28 H          -5.7935   -1.4959   -1.9791 H       1  UNL1        0.0660
     29 H          -3.5956   -1.1027   -0.4844 H       1  UNL1        0.0661
     30 H          -2.2991    2.4902    1.5154 H       1  UNL1        0.0625
     31 H          -4.5731    3.1943    1.7747 H       1  UNL1        0.0655
     32 H          -6.9017    2.9083    0.9746 H       1  UNL1        0.2923
     33 H          -0.7561    2.2820    0.2129 H       1  UNL1        0.0642
     34 H           0.8718   -2.3492    0.1947 H       1  UNL1        0.0624
     35 H          -1.5959   -1.8748    0.4341 H       1  UNL1        0.0624
     36 H           3.3301   -2.2249   -0.1399 H       1  UNL1        0.0646
     37 H           5.6549   -2.4055   -1.9768 H       1  UNL1        0.0638
     38 H           8.1496   -1.7868   -1.4290 H       1  UNL1        0.0633
     39 H           8.1571   -0.1877    0.6077 H       1  UNL1        0.0807
     40 H           5.7868    0.2216    1.3809 H       1  UNL1        0.1653
     41 H           1.9707    2.9784   -0.0906 H       1  UNL1        0.1552
@<TRIPOS>BOND
     1     1     2    1
     2     2     3    1
     3     3     4   ar
     4     4     5   ar
     5     5     6   ar
     6     6     7   ar
     7     7     8   ar
     8     8     9    1
     9     5    10    1
    10    10    11   ar
    11    11    12   ar
    12    12    13   ar
    13    13    14   ar
    14    14    15   ar
    15    13    16    1
    16    16    17    2
    17    17    18    1
    18    18    19   ar
    19    19    20   ar
    20    20    21   ar
    21    21    22   ar
    22    16    23    1
    23    23    24    2
    24    23    25   am
    25     8     3   ar
    26    15    10   ar
    27    22    18   ar
    28    25    12    1
    29     1    26    1
    30     1    27    1
    31     1    28    1
    32     4    29    1
    33     6    30    1
    34     7    31    1
    35     9    32    1
    36    11    33    1
    37    14    34    1
    38    15    35    1
    39    17    36    1
    40    19    37    1
    41    20    38    1
    42    21    39    1
    43    22    40    1
    44    25    41    1
