
     RDKit          3D

 56 60  0  0  0  0  0  0  0  0999 V2000
   -3.4456    5.5093   -0.3224 C   0  0  0  0  0  0  0  0  0  0  0  0
   -3.1677    4.4818    0.5919 O   0  0  0  0  0  0  0  0  0  0  0  0
   -2.5994    3.2792    0.2621 C   0  0  0  0  0  0  0  0  0  0  0  0
   -2.3503    2.3079    1.2044 C   0  0  0  0  0  0  0  0  0  0  0  0
   -1.7685    1.0887    0.8380 C   0  0  0  0  0  0  0  0  0  0  0  0
   -1.4298    0.8271   -0.4726 C   0  0  0  0  0  0  0  0  0  0  0  0
   -0.8175   -0.4351   -0.8923 C   0  0  1  0  0  0  0  0  0  0  0  0
    0.6069   -0.4985   -0.4518 C   0  0  0  0  0  0  0  0  0  0  0  0
    0.7821   -1.6418    0.2944 C   0  0  0  0  0  0  0  0  0  0  0  0
    2.1104   -1.6671    0.6871 C   0  0  0  0  0  0  0  0  0  0  0  0
    2.6651   -2.6761    1.4594 O   0  0  0  0  0  0  0  0  0  0  0  0
    2.7475   -0.5848    0.2086 N   0  0  0  0  0  0  0  0  0  0  0  0
    4.1407   -0.2964    0.4285 C   0  0  0  0  0  0  0  0  0  0  0  0
    4.5874    0.2283    1.6181 C   0  0  0  0  0  0  0  0  0  0  0  0
    5.9221    0.5042    1.8276 C   0  0  0  0  0  0  0  0  0  0  0  0
    6.8636    0.2593    0.8373 C   0  0  0  0  0  0  0  0  0  0  0  0
    8.2766    0.5386    1.0258 C   0  0  0  0  0  0  0  0  0  0  0  0
    9.0665    0.2910    0.0856 O   0  0  0  0  0  0  0  0  0  0  0  0
    8.7967    1.0662    2.1952 O   0  0  0  0  0  0  0  0  0  0  0  0
    6.4014   -0.2651   -0.3460 C   0  0  0  0  0  0  0  0  0  0  0  0
    5.0681   -0.5426   -0.5601 C   0  0  0  0  0  0  0  0  0  0  0  0
    1.8411    0.1260   -0.4819 C   0  0  0  0  0  0  0  0  0  0  0  0
    2.1385    1.3192   -1.1244 O   0  0  0  0  0  0  0  0  0  0  0  0
   -0.4335   -2.2940    0.3461 O   0  0  0  0  0  0  0  0  0  0  0  0
   -1.3946   -1.6124   -0.3428 N   0  0  0  0  0  0  0  0  0  0  0  0
   -2.7404   -2.1035   -0.4298 C   0  0  0  0  0  0  0  0  0  0  0  0
   -3.6918   -1.4154   -1.1496 C   0  0  0  0  0  0  0  0  0  0  0  0
   -4.9930   -1.8571   -1.2536 C   0  0  0  0  0  0  0  0  0  0  0  0
   -5.3996   -3.0165   -0.6359 C   0  0  0  0  0  0  0  0  0  0  0  0
   -6.7823   -3.5086   -0.7320 C   0  0  0  0  0  0  0  0  0  0  0  0
   -4.4635   -3.7191    0.0885 C   0  0  0  0  0  0  0  0  0  0  0  0
   -3.1474   -3.2629    0.1878 C   0  0  0  0  0  0  0  0  0  0  0  0
   -1.6903    1.8173   -1.3954 C   0  0  0  0  0  0  0  0  0  0  0  0
   -2.2639    3.0236   -1.0442 C   0  0  0  0  0  0  0  0  0  0  0  0
   -2.5565    6.1309   -0.5557 H   0  0  0  0  0  0  0  0  0  0  0  0
   -4.1602    6.2091    0.2019 H   0  0  0  0  0  0  0  0  0  0  0  0
   -3.9633    5.1502   -1.2334 H   0  0  0  0  0  0  0  0  0  0  0  0
   -2.6103    2.4907    2.2547 H   0  0  0  0  0  0  0  0  0  0  0  0
   -1.5838    0.3427    1.6000 H   0  0  0  0  0  0  0  0  0  0  0  0
   -0.8390   -0.5263   -1.9990 H   0  0  0  0  0  0  0  0  0  0  0  0
    3.6490   -2.7609    1.6388 H   0  0  0  0  0  0  0  0  0  0  0  0
    3.8811    0.4316    2.4120 H   0  0  0  0  0  0  0  0  0  0  0  0
    6.2990    0.9162    2.7521 H   0  0  0  0  0  0  0  0  0  0  0  0
    9.7600    1.3295    2.3128 H   0  0  0  0  0  0  0  0  0  0  0  0
    7.0946   -0.4809   -1.1670 H   0  0  0  0  0  0  0  0  0  0  0  0
    4.6865   -0.9555   -1.4851 H   0  0  0  0  0  0  0  0  0  0  0  0
    2.6173    2.0525   -0.6270 H   0  0  0  0  0  0  0  0  0  0  0  0
   -3.4182   -0.4845   -1.6621 H   0  0  0  0  0  0  0  0  0  0  0  0
   -5.7104   -1.2985   -1.8216 H   0  0  0  0  0  0  0  0  0  0  0  0
   -6.9229   -4.2879   -1.5128 H   0  0  0  0  0  0  0  0  0  0  0  0
   -7.4344   -2.6503   -1.0058 H   0  0  0  0  0  0  0  0  0  0  0  0
   -7.0837   -3.9011    0.2636 H   0  0  0  0  0  0  0  0  0  0  0  0
   -4.7937   -4.6286    0.5697 H   0  0  0  0  0  0  0  0  0  0  0  0
   -2.4353   -3.8271    0.7578 H   0  0  0  0  0  0  0  0  0  0  0  0
   -1.4511    1.6815   -2.4409 H   0  0  0  0  0  0  0  0  0  0  0  0
   -2.4602    3.7961   -1.8047 H   0  0  0  0  0  0  0  0  0  0  0  0
  1  2  1  0
  2  3  1  0
  3  4  2  0
  4  5  1  0
  5  6  2  0
  6  7  1  0
  7  8  1  0
  8  9  1  0
  9 10  2  0
 10 11  1  0
 10 12  1  0
 12 13  1  0
 13 14  2  0
 14 15  1  0
 15 16  2  0
 16 17  1  0
 17 18  2  0
 17 19  1  0
 16 20  1  0
 20 21  2  0
 12 22  1  0
 22 23  1  0
  9 24  1  0
 24 25  1  0
 25 26  1  0
 26 27  2  0
 27 28  1  0
 28 29  2  0
 29 30  1  0
 29 31  1  0
 31 32  2  0
  6 33  1  0
 33 34  2  0
 34  3  1  0
 25  7  1  0
 32 26  1  0
 22  8  2  0
 21 13  1  0
  1 35  1  0
  1 36  1  0
  1 37  1  0
  4 38  1  0
  5 39  1  0
  7 40  1  6
 11 41  1  0
 14 42  1  0
 15 43  1  0
 19 44  1  0
 20 45  1  0
 21 46  1  0
 23 47  1  0
 27 48  1  0
 28 49  1  0
 30 50  1  0
 30 51  1  0
 30 52  1  0
 31 53  1  0
 32 54  1  0
 33 55  1  0
 34 56  1  0
M  END
$$$$
