@<TRIPOS>MOLECULE
*****
 56 60 0 0 0
SMALL
GASTEIGER

@<TRIPOS>ATOM
      1 C          -3.4456    5.5093   -0.3224 C.3     1  UNL1        0.0788
      2 O          -3.1677    4.4818    0.5919 O.3     1  UNL1       -0.4951
      3 C          -2.5994    3.2792    0.2621 C.ar    1  UNL1        0.1201
      4 C          -2.3503    2.3079    1.2044 C.ar    1  UNL1       -0.0196
      5 C          -1.7685    1.0887    0.8380 C.ar    1  UNL1       -0.0527
      6 C          -1.4298    0.8271   -0.4726 C.ar    1  UNL1       -0.0169
      7 C          -0.8175   -0.4351   -0.8923 C.3     1  UNL1        0.1262
      8 C           0.6069   -0.4985   -0.4518 C.ar    1  UNL1        0.0926
      9 C           0.7821   -1.6418    0.2944 C.ar    1  UNL1        0.2264
     10 C           2.1104   -1.6671    0.6871 C.ar    1  UNL1        0.2470
     11 O           2.6651   -2.6761    1.4594 O.3     1  UNL1       -0.4907
     12 N           2.7475   -0.5848    0.2086 N.ar    1  UNL1       -0.2482
     13 C           4.1407   -0.2964    0.4285 C.ar    1  UNL1        0.0528
     14 C           4.5874    0.2283    1.6181 C.ar    1  UNL1       -0.0369
     15 C           5.9221    0.5042    1.8276 C.ar    1  UNL1       -0.0458
     16 C           6.8636    0.2593    0.8373 C.ar    1  UNL1        0.0590
     17 C           8.2766    0.5386    1.0258 C.2     1  UNL1        0.3368
     18 O           9.0665    0.2910    0.0856 O.2     1  UNL1       -0.2451
     19 O           8.7967    1.0662    2.1952 O.3     1  UNL1       -0.4771
     20 C           6.4014   -0.2651   -0.3460 C.ar    1  UNL1       -0.0458
     21 C           5.0681   -0.5426   -0.5601 C.ar    1  UNL1       -0.0369
     22 C           1.8411    0.1260   -0.4819 C.ar    1  UNL1        0.2096
     23 O           2.1385    1.3192   -1.1244 O.3     1  UNL1       -0.4929
     24 O          -0.4335   -2.2940    0.3461 O.3     1  UNL1       -0.3707
     25 N          -1.3946   -1.6124   -0.3428 N.3     1  UNL1       -0.1961
     26 C          -2.7404   -2.1035   -0.4298 C.ar    1  UNL1        0.0767
     27 C          -3.6918   -1.4154   -1.1496 C.ar    1  UNL1       -0.0351
     28 C          -4.9930   -1.8571   -1.2536 C.ar    1  UNL1       -0.0568
     29 C          -5.3996   -3.0165   -0.6359 C.ar    1  UNL1       -0.0503
     30 C          -6.7823   -3.5086   -0.7320 C.3     1  UNL1       -0.0397
     31 C          -4.4635   -3.7191    0.0885 C.ar    1  UNL1       -0.0568
     32 C          -3.1474   -3.2629    0.1878 C.ar    1  UNL1       -0.0351
     33 C          -1.6903    1.8173   -1.3954 C.ar    1  UNL1       -0.0527
     34 C          -2.2639    3.0236   -1.0442 C.ar    1  UNL1       -0.0196
     35 H          -2.5565    6.1309   -0.5557 H       1  UNL1        0.0660
     36 H          -4.1602    6.2091    0.2019 H       1  UNL1        0.0660
     37 H          -3.9633    5.1502   -1.2334 H       1  UNL1        0.0660
     38 H          -2.6103    2.4907    2.2547 H       1  UNL1        0.0654
     39 H          -1.5838    0.3427    1.6000 H       1  UNL1        0.0622
     40 H          -0.8390   -0.5263   -1.9990 H       1  UNL1        0.0662
     41 H           3.6490   -2.7609    1.6388 H       1  UNL1        0.2938
     42 H           3.8811    0.4316    2.4120 H       1  UNL1        0.0638
     43 H           6.2990    0.9162    2.7521 H       1  UNL1        0.0626
     44 H           9.7600    1.3295    2.3128 H       1  UNL1        0.2954
     45 H           7.0946   -0.4809   -1.1670 H       1  UNL1        0.0626
     46 H           4.6865   -0.9555   -1.4851 H       1  UNL1        0.0638
     47 H           2.6173    2.0525   -0.6270 H       1  UNL1        0.2937
     48 H          -3.4182   -0.4845   -1.6621 H       1  UNL1        0.0639
     49 H          -5.7104   -1.2985   -1.8216 H       1  UNL1        0.0621
     50 H          -6.9229   -4.2879   -1.5128 H       1  UNL1        0.0278
     51 H          -7.4344   -2.6503   -1.0058 H       1  UNL1        0.0278
     52 H          -7.0837   -3.9011    0.2636 H       1  UNL1        0.0278
     53 H          -4.7937   -4.6286    0.5697 H       1  UNL1        0.0621
     54 H          -2.4353   -3.8271    0.7578 H       1  UNL1        0.0639
     55 H          -1.4511    1.6815   -2.4409 H       1  UNL1        0.0622
     56 H          -2.4602    3.7961   -1.8047 H       1  UNL1        0.0654
@<TRIPOS>BOND
     1     1     2    1
     2     2     3    1
     3     3     4   ar
     4     4     5   ar
     5     5     6   ar
     6     6     7    1
     7     7     8    1
     8     8     9   ar
     9     9    10   ar
    10    10    11    1
    11    10    12   ar
    12    12    13    1
    13    13    14   ar
    14    14    15   ar
    15    15    16   ar
    16    16    17    1
    17    17    18    2
    18    17    19    1
    19    16    20   ar
    20    20    21   ar
    21    12    22   ar
    22    22    23    1
    23     9    24    1
    24    24    25    1
    25    25    26    1
    26    26    27   ar
    27    27    28   ar
    28    28    29   ar
    29    29    30    1
    30    29    31   ar
    31    31    32   ar
    32     6    33   ar
    33    33    34   ar
    34    34     3   ar
    35    25     7    1
    36    32    26   ar
    37    22     8   ar
    38    21    13   ar
    39     1    35    1
    40     1    36    1
    41     1    37    1
    42     4    38    1
    43     5    39    1
    44     7    40    1
    45    11    41    1
    46    14    42    1
    47    15    43    1
    48    19    44    1
    49    20    45    1
    50    21    46    1
    51    23    47    1
    52    27    48    1
    53    28    49    1
    54    30    50    1
    55    30    51    1
    56    30    52    1
    57    31    53    1
    58    32    54    1
    59    33    55    1
    60    34    56    1
