@<TRIPOS>MOLECULE
*****
 51 54 0 0 0
SMALL
GASTEIGER

@<TRIPOS>ATOM
      1 O           3.0844    2.3741    0.4443 O.2     1  UNL1       -0.2524
      2 C           2.7742    1.2048    0.0595 C.2     1  UNL1        0.3049
      3 N           3.6256    0.1492    0.4484 N.am    1  UNL1       -0.2855
      4 C           4.7896    0.4247    1.2530 C.3     1  UNL1        0.0161
      5 C           6.0053   -0.3609    0.8758 C.3     1  UNL1       -0.0371
      6 C           5.7257   -1.2873   -0.3035 C.3     1  UNL1       -0.0502
      7 C           4.5158   -2.1211    0.1394 C.3     1  UNL1       -0.0371
      8 C           3.3286   -1.1891    0.0427 C.3     1  UNL1        0.0161
      9 N           1.6077    0.9972   -0.7322 N.am    1  UNL1       -0.2804
     10 C           0.8968   -0.0723   -1.3587 C.3     1  UNL1        0.0440
     11 C          -0.3547    0.7798   -1.3402 C.3     1  UNL1        0.0913
     12 O          -1.1385    0.5667   -0.2087 O.3     1  UNL1       -0.3609
     13 C          -2.4428    0.4092   -0.6031 C.3     1  UNL1        0.1119
     14 C          -3.0388   -0.8711   -0.1072 C.ar    1  UNL1       -0.0143
     15 C          -2.3701   -2.0743   -0.1838 C.ar    1  UNL1       -0.0544
     16 C          -2.9746   -3.2361    0.2947 C.ar    1  UNL1       -0.0430
     17 C          -4.2359   -3.2418    0.8530 C.ar    1  UNL1        0.0410
     18 CL         -4.9761   -4.7197    1.4489 Cl      1  UNL1       -0.0835
     19 C          -4.8954   -2.0313    0.9241 C.ar    1  UNL1       -0.0430
     20 C          -4.2994   -0.8844    0.4522 C.ar    1  UNL1       -0.0544
     21 C          -3.2240    1.5160    0.0192 C.ar    1  UNL1        0.0223
     22 C          -4.0433    2.2569   -0.7929 C.ar    1  UNL1       -0.0515
     23 C          -4.7763    3.2817   -0.2421 C.ar    1  UNL1       -0.0431
     24 C          -4.6806    3.5504    1.1065 C.ar    1  UNL1        0.0293
     25 N          -3.8667    2.8010    1.8662 N.ar    1  UNL1       -0.2432
     26 C          -3.1455    1.8014    1.3546 C.ar    1  UNL1        0.1351
     27 CL         -2.0775    0.8250    2.3749 Cl      1  UNL1       -0.0616
     28 C           0.6092    1.9148   -1.2468 C.3     1  UNL1        0.0440
     29 H           4.4937    0.1736    2.3166 H       1  UNL1        0.0465
     30 H           4.9845    1.5239    1.1920 H       1  UNL1        0.0465
     31 H           6.3035   -1.0057    1.7127 H       1  UNL1        0.0280
     32 H           6.8138    0.3632    0.6071 H       1  UNL1        0.0280
     33 H           6.5888   -1.9352   -0.4851 H       1  UNL1        0.0266
     34 H           5.3850   -0.7191   -1.1846 H       1  UNL1        0.0266
     35 H           4.3604   -2.9595   -0.5592 H       1  UNL1        0.0280
     36 H           4.6049   -2.4330    1.1969 H       1  UNL1        0.0280
     37 H           3.0880   -1.1453   -1.0574 H       1  UNL1        0.0465
     38 H           2.5228   -1.6503    0.6428 H       1  UNL1        0.0465
     39 H           0.7192   -0.9754   -0.7753 H       1  UNL1        0.0491
     40 H           1.2585   -0.2540   -2.4133 H       1  UNL1        0.0491
     41 H          -0.9272    0.7748   -2.2927 H       1  UNL1        0.0628
     42 H          -2.5228    0.4873   -1.6906 H       1  UNL1        0.0698
     43 H          -1.3918   -2.0838   -0.6151 H       1  UNL1        0.0622
     44 H          -2.4486   -4.1759    0.2333 H       1  UNL1        0.0632
     45 H          -5.8842   -2.0451    1.3636 H       1  UNL1        0.0632
     46 H          -4.8342    0.0480    0.5189 H       1  UNL1        0.0622
     47 H          -4.1088    2.0285   -1.8726 H       1  UNL1        0.0623
     48 H          -5.4199    3.8588   -0.8963 H       1  UNL1        0.0633
     49 H          -5.2781    4.3751    1.5178 H       1  UNL1        0.0830
     50 H           0.3565    2.7392   -0.5523 H       1  UNL1        0.0491
     51 H           0.9133    2.2463   -2.2705 H       1  UNL1        0.0491
@<TRIPOS>BOND
     1     1     2    2
     2     2     3   am
     3     3     4    1
     4     4     5    1
     5     5     6    1
     6     6     7    1
     7     7     8    1
     8     2     9   am
     9     9    10    1
    10    10    11    1
    11    11    12    1
    12    12    13    1
    13    13    14    1
    14    14    15   ar
    15    15    16   ar
    16    16    17   ar
    17    17    18    1
    18    17    19   ar
    19    19    20   ar
    20    13    21    1
    21    21    22   ar
    22    22    23   ar
    23    23    24   ar
    24    24    25   ar
    25    25    26   ar
    26    26    27    1
    27    11    28    1
    28     8     3    1
    29    28     9    1
    30    20    14   ar
    31    26    21   ar
    32     4    29    1
    33     4    30    1
    34     5    31    1
    35     5    32    1
    36     6    33    1
    37     6    34    1
    38     7    35    1
    39     7    36    1
    40     8    37    1
    41     8    38    1
    42    10    39    1
    43    10    40    1
    44    11    41    1
    45    13    42    1
    46    15    43    1
    47    16    44    1
    48    19    45    1
    49    20    46    1
    50    22    47    1
    51    23    48    1
    52    24    49    1
    53    28    50    1
    54    28    51    1
