
     RDKit          3D

 51 54  0  0  0  0  0  0  0  0999 V2000
    3.0844    2.3741    0.4443 O   0  0  0  0  0  0  0  0  0  0  0  0
    2.7742    1.2048    0.0595 C   0  0  0  0  0  0  0  0  0  0  0  0
    3.6256    0.1492    0.4484 N   0  0  0  0  0  0  0  0  0  0  0  0
    4.7896    0.4247    1.2530 C   0  0  0  0  0  0  0  0  0  0  0  0
    6.0053   -0.3609    0.8758 C   0  0  0  0  0  0  0  0  0  0  0  0
    5.7257   -1.2873   -0.3035 C   0  0  0  0  0  0  0  0  0  0  0  0
    4.5158   -2.1211    0.1394 C   0  0  0  0  0  0  0  0  0  0  0  0
    3.3286   -1.1891    0.0427 C   0  0  0  0  0  0  0  0  0  0  0  0
    1.6077    0.9972   -0.7322 N   0  0  0  0  0  0  0  0  0  0  0  0
    0.8968   -0.0723   -1.3587 C   0  0  0  0  0  0  0  0  0  0  0  0
   -0.3547    0.7798   -1.3402 C   0  0  0  0  0  0  0  0  0  0  0  0
   -1.1385    0.5667   -0.2087 O   0  0  0  0  0  0  0  0  0  0  0  0
   -2.4428    0.4092   -0.6031 C   0  0  1  0  0  0  0  0  0  0  0  0
   -3.0388   -0.8711   -0.1072 C   0  0  0  0  0  0  0  0  0  0  0  0
   -2.3701   -2.0743   -0.1838 C   0  0  0  0  0  0  0  0  0  0  0  0
   -2.9746   -3.2361    0.2947 C   0  0  0  0  0  0  0  0  0  0  0  0
   -4.2359   -3.2418    0.8530 C   0  0  0  0  0  0  0  0  0  0  0  0
   -4.9761   -4.7197    1.4489 Cl  0  0  0  0  0  0  0  0  0  0  0  0
   -4.8954   -2.0313    0.9241 C   0  0  0  0  0  0  0  0  0  0  0  0
   -4.2994   -0.8844    0.4522 C   0  0  0  0  0  0  0  0  0  0  0  0
   -3.2240    1.5160    0.0192 C   0  0  0  0  0  0  0  0  0  0  0  0
   -4.0433    2.2569   -0.7929 C   0  0  0  0  0  0  0  0  0  0  0  0
   -4.7763    3.2817   -0.2421 C   0  0  0  0  0  0  0  0  0  0  0  0
   -4.6806    3.5504    1.1065 C   0  0  0  0  0  0  0  0  0  0  0  0
   -3.8667    2.8010    1.8662 N   0  0  0  0  0  0  0  0  0  0  0  0
   -3.1455    1.8014    1.3546 C   0  0  0  0  0  0  0  0  0  0  0  0
   -2.0775    0.8250    2.3749 Cl  0  0  0  0  0  0  0  0  0  0  0  0
    0.6092    1.9148   -1.2468 C   0  0  0  0  0  0  0  0  0  0  0  0
    4.4937    0.1736    2.3166 H   0  0  0  0  0  0  0  0  0  0  0  0
    4.9845    1.5239    1.1920 H   0  0  0  0  0  0  0  0  0  0  0  0
    6.3035   -1.0057    1.7127 H   0  0  0  0  0  0  0  0  0  0  0  0
    6.8138    0.3632    0.6071 H   0  0  0  0  0  0  0  0  0  0  0  0
    6.5888   -1.9352   -0.4851 H   0  0  0  0  0  0  0  0  0  0  0  0
    5.3850   -0.7191   -1.1846 H   0  0  0  0  0  0  0  0  0  0  0  0
    4.3604   -2.9595   -0.5592 H   0  0  0  0  0  0  0  0  0  0  0  0
    4.6049   -2.4330    1.1969 H   0  0  0  0  0  0  0  0  0  0  0  0
    3.0880   -1.1453   -1.0574 H   0  0  0  0  0  0  0  0  0  0  0  0
    2.5228   -1.6503    0.6428 H   0  0  0  0  0  0  0  0  0  0  0  0
    0.7192   -0.9754   -0.7753 H   0  0  0  0  0  0  0  0  0  0  0  0
    1.2585   -0.2540   -2.4133 H   0  0  0  0  0  0  0  0  0  0  0  0
   -0.9272    0.7748   -2.2927 H   0  0  0  0  0  0  0  0  0  0  0  0
   -2.5228    0.4873   -1.6906 H   0  0  0  0  0  0  0  0  0  0  0  0
   -1.3918   -2.0838   -0.6151 H   0  0  0  0  0  0  0  0  0  0  0  0
   -2.4486   -4.1759    0.2333 H   0  0  0  0  0  0  0  0  0  0  0  0
   -5.8842   -2.0451    1.3636 H   0  0  0  0  0  0  0  0  0  0  0  0
   -4.8342    0.0480    0.5189 H   0  0  0  0  0  0  0  0  0  0  0  0
   -4.1088    2.0285   -1.8726 H   0  0  0  0  0  0  0  0  0  0  0  0
   -5.4199    3.8588   -0.8963 H   0  0  0  0  0  0  0  0  0  0  0  0
   -5.2781    4.3751    1.5178 H   0  0  0  0  0  0  0  0  0  0  0  0
    0.3565    2.7392   -0.5523 H   0  0  0  0  0  0  0  0  0  0  0  0
    0.9133    2.2463   -2.2705 H   0  0  0  0  0  0  0  0  0  0  0  0
  1  2  2  0
  2  3  1  0
  3  4  1  0
  4  5  1  0
  5  6  1  0
  6  7  1  0
  7  8  1  0
  2  9  1  0
  9 10  1  0
 10 11  1  0
 11 12  1  0
 12 13  1  0
 13 14  1  0
 14 15  2  0
 15 16  1  0
 16 17  2  0
 17 18  1  0
 17 19  1  0
 19 20  2  0
 13 21  1  0
 21 22  2  0
 22 23  1  0
 23 24  2  0
 24 25  1  0
 25 26  2  0
 26 27  1  0
 11 28  1  0
  8  3  1  0
 28  9  1  0
 20 14  1  0
 26 21  1  0
  4 29  1  0
  4 30  1  0
  5 31  1  0
  5 32  1  0
  6 33  1  0
  6 34  1  0
  7 35  1  0
  7 36  1  0
  8 37  1  0
  8 38  1  0
 10 39  1  0
 10 40  1  0
 11 41  1  0
 13 42  1  6
 15 43  1  0
 16 44  1  0
 19 45  1  0
 20 46  1  0
 22 47  1  0
 23 48  1  0
 24 49  1  0
 28 50  1  0
 28 51  1  0
M  END
$$$$
