
     RDKit          3D

 58 62  0  0  0  0  0  0  0  0999 V2000
    7.0068   -0.8664   -1.0041 C   0  0  0  0  0  0  0  0  0  0  0  0
    6.0959    0.1514   -0.4758 N   0  0  0  0  0  0  0  0  0  0  0  0
    6.1079    0.6709    0.7603 C   0  0  0  0  0  0  0  0  0  0  0  0
    5.1287    1.5695    0.8782 N   0  0  0  0  0  0  0  0  0  0  0  0
    4.4549    1.6579   -0.2777 C   0  0  0  0  0  0  0  0  0  0  0  0
    3.0921    2.7066   -0.5506 S   0  0  0  0  0  6  0  0  0  0  0  0
    3.4804    4.1650   -0.3669 O   0  0  0  0  0  0  0  0  0  0  0  0
    2.7149    2.5823   -2.0193 O   0  0  0  0  0  0  0  0  0  0  0  0
    1.7485    2.3579    0.4243 N   0  0  0  0  0  0  0  0  0  0  0  0
    0.6521    1.8812   -0.4107 C   0  0  0  0  0  0  0  0  0  0  0  0
    0.7663    0.4181   -0.5684 C   0  0  1  0  0  0  0  0  0  0  0  0
    1.5947    0.0107    0.6467 C   0  0  1  0  0  0  0  0  0  0  0  0
    1.9020    1.2780    1.3456 C   0  0  0  0  0  0  0  0  0  0  0  0
    0.2285   -0.5654    0.4808 C   0  0  1  0  0  0  0  0  0  0  0  0
   -0.9404    0.0182    1.2022 C   0  0  0  0  0  0  0  0  0  0  0  0
   -2.0779    0.4356    0.4618 N   0  0  0  0  0  0  0  0  0  0  0  0
   -2.9325   -0.2451   -0.4009 C   0  0  0  0  0  0  0  0  0  0  0  0
   -2.7183   -1.4502   -0.6386 O   0  0  0  0  0  0  0  0  0  0  0  0
   -4.0960    0.4022   -1.0527 C   0  0  0  0  0  0  0  0  0  0  0  0
   -4.0064    0.8441   -2.3395 C   0  0  0  0  0  0  0  0  0  0  0  0
   -5.1539    1.4302   -2.8746 C   0  0  0  0  0  0  0  0  0  0  0  0
   -6.3210    1.5635   -2.1535 C   0  0  0  0  0  0  0  0  0  0  0  0
   -6.3316    1.0904   -0.8527 C   0  0  0  0  0  0  0  0  0  0  0  0
   -5.2235    0.5012   -0.2764 C   0  0  0  0  0  0  0  0  0  0  0  0
   -5.2977    0.0141    1.0973 C   0  0  0  0  0  0  0  0  0  0  0  0
   -4.4177    0.6081    1.9498 F   0  0  0  0  0  0  0  0  0  0  0  0
   -5.1289   -1.3590    1.1909 F   0  0  0  0  0  0  0  0  0  0  0  0
   -6.5743    0.2567    1.6191 F   0  0  0  0  0  0  0  0  0  0  0  0
    0.2539   -1.9973    0.0108 C   0  0  0  0  0  0  0  0  0  0  0  0
   -0.1274   -3.0794    0.9100 C   0  0  0  0  0  0  0  0  0  0  0  0
   -1.4002   -3.3141    1.6259 C   0  0  0  0  0  0  0  0  0  0  0  0
   -0.1395   -3.0748    2.3747 C   0  0  0  0  0  0  0  0  0  0  0  0
    5.0762    0.7604   -1.1165 C   0  0  0  0  0  0  0  0  0  0  0  0
    7.9899   -0.8079   -0.5318 H   0  0  0  0  0  0  0  0  0  0  0  0
    7.0650   -0.7104   -2.1048 H   0  0  0  0  0  0  0  0  0  0  0  0
    6.5795   -1.8876   -0.8498 H   0  0  0  0  0  0  0  0  0  0  0  0
    6.8131    0.3913    1.5320 H   0  0  0  0  0  0  0  0  0  0  0  0
    0.8469    2.3302   -1.4395 H   0  0  0  0  0  0  0  0  0  0  0  0
   -0.3051    2.2957   -0.1169 H   0  0  0  0  0  0  0  0  0  0  0  0
    1.1682   -0.0045   -1.5194 H   0  0  0  0  0  0  0  0  0  0  0  0
    2.4730   -0.6654    0.4852 H   0  0  0  0  0  0  0  0  0  0  0  0
    1.3266    1.4189    2.2814 H   0  0  0  0  0  0  0  0  0  0  0  0
    2.9714    1.2915    1.6903 H   0  0  0  0  0  0  0  0  0  0  0  0
   -1.3136   -0.5774    2.0647 H   0  0  0  0  0  0  0  0  0  0  0  0
   -0.4948    0.9255    1.7591 H   0  0  0  0  0  0  0  0  0  0  0  0
   -2.3447    1.4789    0.5825 H   0  0  0  0  0  0  0  0  0  0  0  0
   -3.1080    0.7552   -2.9312 H   0  0  0  0  0  0  0  0  0  0  0  0
   -5.1368    1.7959   -3.9035 H   0  0  0  0  0  0  0  0  0  0  0  0
   -7.2231    2.0304   -2.5862 H   0  0  0  0  0  0  0  0  0  0  0  0
   -7.2340    1.1782   -0.2565 H   0  0  0  0  0  0  0  0  0  0  0  0
    1.3542   -2.2269   -0.2933 H   0  0  0  0  0  0  0  0  0  0  0  0
   -0.2164   -2.0939   -1.0297 H   0  0  0  0  0  0  0  0  0  0  0  0
    0.2899   -4.1243    0.5285 H   0  0  0  0  0  0  0  0  0  0  0  0
   -1.8166   -4.3799    1.6820 H   0  0  0  0  0  0  0  0  0  0  0  0
   -2.2051   -2.6045    1.5954 H   0  0  0  0  0  0  0  0  0  0  0  0
    0.0854   -2.1692    2.9477 H   0  0  0  0  0  0  0  0  0  0  0  0
    0.2384   -3.9813    2.9432 H   0  0  0  0  0  0  0  0  0  0  0  0
    4.7797    0.5838   -2.1291 H   0  0  0  0  0  0  0  0  0  0  0  0
  1  2  1  0
  2  3  1  0
  3  4  2  0
  4  5  1  0
  5  6  1  0
  6  7  2  0
  6  8  2  0
  6  9  1  0
  9 10  1  0
 10 11  1  0
 11 12  1  0
 12 13  1  0
 12 14  1  0
 14 15  1  1
 15 16  1  0
 16 17  1  0
 17 18  2  0
 17 19  1  0
 19 20  2  0
 20 21  1  0
 21 22  2  0
 22 23  1  0
 23 24  2  0
 24 25  1  0
 25 26  1  0
 25 27  1  0
 25 28  1  0
 14 29  1  0
 29 30  1  0
 30 31  1  0
 31 32  1  0
  5 33  2  0
 33  2  1  0
 13  9  1  0
 24 19  1  0
 32 30  1  0
 14 11  1  0
  1 34  1  0
  1 35  1  0
  1 36  1  0
  3 37  1  0
 10 38  1  0
 10 39  1  0
 11 40  1  6
 12 41  1  6
 13 42  1  0
 13 43  1  0
 15 44  1  0
 15 45  1  0
 16 46  1  0
 20 47  1  0
 21 48  1  0
 22 49  1  0
 23 50  1  0
 29 51  1  0
 29 52  1  0
 30 53  1  0
 31 54  1  0
 31 55  1  0
 32 56  1  0
 32 57  1  0
 33 58  1  0
M  END
$$$$
