@<TRIPOS>MOLECULE
*****
 58 62 0 0 0
SMALL
GASTEIGER

@<TRIPOS>ATOM
      1 C           7.0068   -0.8664   -1.0041 C.3     1  UNL1        0.0128
      2 N           6.0959    0.1514   -0.4758 N.ar    1  UNL1       -0.3379
      3 C           6.1079    0.6709    0.7603 C.ar    1  UNL1        0.0980
      4 N           5.1287    1.5695    0.8782 N.ar    1  UNL1       -0.2163
      5 C           4.4549    1.6579   -0.2777 C.ar    1  UNL1        0.2114
      6 S           3.0921    2.7066   -0.5506 S.O2    1  UNL1        0.0795
      7 O           3.4804    4.1650   -0.3669 O.2     1  UNL1       -0.1513
      8 O           2.7149    2.5823   -2.0193 O.2     1  UNL1       -0.1513
      9 N           1.7485    2.3579    0.4243 N.3     1  UNL1       -0.1745
     10 C           0.6521    1.8812   -0.4107 C.3     1  UNL1        0.0243
     11 C           0.7663    0.4181   -0.5684 C.3     1  UNL1       -0.0146
     12 C           1.5947    0.0107    0.6467 C.3     1  UNL1       -0.0146
     13 C           1.9020    1.2780    1.3456 C.3     1  UNL1        0.0243
     14 C           0.2285   -0.5654    0.4808 C.3     1  UNL1       -0.0048
     15 C          -0.9404    0.0182    1.2022 C.3     1  UNL1        0.0182
     16 N          -2.0779    0.4356    0.4618 N.am    1  UNL1       -0.3108
     17 C          -2.9325   -0.2451   -0.4009 C.2     1  UNL1        0.2446
     18 O          -2.7183   -1.4502   -0.6386 O.2     1  UNL1       -0.2702
     19 C          -4.0960    0.4022   -1.0527 C.ar    1  UNL1        0.0483
     20 C          -4.0064    0.8441   -2.3395 C.ar    1  UNL1       -0.0491
     21 C          -5.1539    1.4302   -2.8746 C.ar    1  UNL1       -0.0610
     22 C          -6.3210    1.5635   -2.1535 C.ar    1  UNL1       -0.0612
     23 C          -6.3316    1.0904   -0.8527 C.ar    1  UNL1       -0.0494
     24 C          -5.2235    0.5012   -0.2764 C.ar    1  UNL1        0.0669
     25 C          -5.2977    0.0141    1.0973 C.3     1  UNL1        0.4181
     26 F          -4.4177    0.6081    1.9498 F       1  UNL1       -0.1659
     27 F          -5.1289   -1.3590    1.1909 F       1  UNL1       -0.1659
     28 F          -6.5743    0.2567    1.6191 F       1  UNL1       -0.1659
     29 C           0.2539   -1.9973    0.0108 C.3     1  UNL1       -0.0425
     30 C          -0.1274   -3.0794    0.9100 C.3     1  UNL1       -0.0405
     31 C          -1.4002   -3.3141    1.6259 C.3     1  UNL1       -0.0499
     32 C          -0.1395   -3.0748    2.3747 C.3     1  UNL1       -0.0499
     33 C           5.0762    0.7604   -1.1165 C.ar    1  UNL1        0.0507
     34 H           7.9899   -0.8079   -0.5318 H       1  UNL1        0.0456
     35 H           7.0650   -0.7104   -2.1048 H       1  UNL1        0.0456
     36 H           6.5795   -1.8876   -0.8498 H       1  UNL1        0.0456
     37 H           6.8131    0.3913    1.5320 H       1  UNL1        0.1029
     38 H           0.8469    2.3302   -1.4395 H       1  UNL1        0.0447
     39 H          -0.3051    2.2957   -0.1169 H       1  UNL1        0.0447
     40 H           1.1682   -0.0045   -1.5194 H       1  UNL1        0.0323
     41 H           2.4730   -0.6654    0.4852 H       1  UNL1        0.0323
     42 H           1.3266    1.4189    2.2814 H       1  UNL1        0.0447
     43 H           2.9714    1.2915    1.6903 H       1  UNL1        0.0447
     44 H          -1.3136   -0.5774    2.0647 H       1  UNL1        0.0468
     45 H          -0.4948    0.9255    1.7591 H       1  UNL1        0.0468
     46 H          -2.3447    1.4789    0.5825 H       1  UNL1        0.1490
     47 H          -3.1080    0.7552   -2.9312 H       1  UNL1        0.0625
     48 H          -5.1368    1.7959   -3.9035 H       1  UNL1        0.0618
     49 H          -7.2231    2.0304   -2.5862 H       1  UNL1        0.0618
     50 H          -7.2340    1.1782   -0.2565 H       1  UNL1        0.0623
     51 H           1.3542   -2.2269   -0.2933 H       1  UNL1        0.0274
     52 H          -0.2164   -2.0939   -1.0297 H       1  UNL1        0.0274
     53 H           0.2899   -4.1243    0.5285 H       1  UNL1        0.0301
     54 H          -1.8166   -4.3799    1.6820 H       1  UNL1        0.0268
     55 H          -2.2051   -2.6045    1.5954 H       1  UNL1        0.0268
     56 H           0.0854   -2.1692    2.9477 H       1  UNL1        0.0268
     57 H           0.2384   -3.9813    2.9432 H       1  UNL1        0.0268
     58 H           4.7797    0.5838   -2.1291 H       1  UNL1        0.0845
@<TRIPOS>BOND
     1     1     2    1
     2     2     3   ar
     3     3     4   ar
     4     4     5   ar
     5     5     6    1
     6     6     7    2
     7     6     8    2
     8     6     9    1
     9     9    10    1
    10    10    11    1
    11    11    12    1
    12    12    13    1
    13    12    14    1
    14    14    15    1
    15    15    16    1
    16    16    17   am
    17    17    18    2
    18    17    19    1
    19    19    20   ar
    20    20    21   ar
    21    21    22   ar
    22    22    23   ar
    23    23    24   ar
    24    24    25    1
    25    25    26    1
    26    25    27    1
    27    25    28    1
    28    14    29    1
    29    29    30    1
    30    30    31    1
    31    31    32    1
    32     5    33   ar
    33    33     2   ar
    34    13     9    1
    35    24    19   ar
    36    32    30    1
    37    14    11    1
    38     1    34    1
    39     1    35    1
    40     1    36    1
    41     3    37    1
    42    10    38    1
    43    10    39    1
    44    11    40    1
    45    12    41    1
    46    13    42    1
    47    13    43    1
    48    15    44    1
    49    15    45    1
    50    16    46    1
    51    20    47    1
    52    21    48    1
    53    22    49    1
    54    23    50    1
    55    29    51    1
    56    29    52    1
    57    30    53    1
    58    31    54    1
    59    31    55    1
    60    32    56    1
    61    32    57    1
    62    33    58    1
