@<TRIPOS>MOLECULE
*****
 88 88 0 0 0
SMALL
GASTEIGER

@<TRIPOS>ATOM
      1 C           8.5454    1.9441    0.0529 C.3     1  UNL1       -0.0653
      2 C           7.6002    1.0793   -0.7421 C.3     1  UNL1       -0.0559
      3 C           6.8109    0.2082    0.2393 C.3     1  UNL1       -0.0533
      4 C           5.8600   -0.6650   -0.5246 C.3     1  UNL1       -0.0531
      5 C           5.0410   -1.5601    0.4034 C.3     1  UNL1       -0.0531
      6 C           4.2552   -0.7225    1.3572 C.3     1  UNL1       -0.0531
      7 C           3.3214    0.2076    0.6269 C.3     1  UNL1       -0.0531
      8 C           2.3199   -0.5528   -0.1998 C.3     1  UNL1       -0.0531
      9 C           1.3878    0.3654   -0.9462 C.3     1  UNL1       -0.0529
     10 C           0.6118    1.2380   -0.0154 C.3     1  UNL1       -0.0497
     11 C          -0.2198    0.4302    0.9150 C.3     1  UNL1       -0.0155
     12 C          -1.2524   -0.4499    0.2532 C.3     1  UNL1        0.1065
     13 C          -2.2000    0.3822   -0.5737 C.3     1  UNL1        0.0223
     14 C          -2.9107    1.3529    0.3237 C.3     1  UNL1        0.1193
     15 O          -3.6765    0.6563    1.2813 O.3     1  UNL1       -0.4601
     16 C          -4.6623    0.5353    0.2727 C.2     1  UNL1        0.3141
     17 O          -4.4540   -0.3583    1.0952 O.2     1  UNL1       -0.2504
     18 C          -4.2320    1.8962   -0.1515 C.3     1  UNL1        0.0934
     19 C          -4.7725    2.9106    0.7919 C.3     1  UNL1       -0.0366
     20 C          -6.0834    3.4369    0.2875 C.3     1  UNL1       -0.0522
     21 C          -5.9552    4.0953   -1.0521 C.3     1  UNL1       -0.0530
     22 C          -4.9696    5.2193   -0.9661 C.3     1  UNL1       -0.0533
     23 C          -5.4387    6.2323    0.0464 C.3     1  UNL1       -0.0559
     24 C          -4.3747    7.3305    0.0601 C.3     1  UNL1       -0.0653
     25 O          -0.7705   -1.5951   -0.3594 O.3     1  UNL1       -0.4599
     26 C          -1.1092   -2.8714    0.1217 C.2     1  UNL1        0.3279
     27 O          -1.8632   -2.9273    1.1207 O.2     1  UNL1       -0.2487
     28 C          -0.5635   -4.0538   -0.5703 C.3     1  UNL1        0.1204
     29 C           0.2168   -4.9037    0.3788 C.3     1  UNL1       -0.0218
     30 C          -0.5421   -5.4524    1.5347 C.3     1  UNL1       -0.0445
     31 C          -1.7041   -6.3260    1.1058 C.3     1  UNL1       -0.0626
     32 C           0.4465   -6.2770    2.3635 C.3     1  UNL1       -0.0626
     33 N           0.2488   -3.6159   -1.6907 N.am    1  UNL1       -0.3050
     34 C          -0.3320   -4.1079   -2.8842 C.2     1  UNL1        0.2006
     35 O          -0.9573   -4.6064   -3.8154 O.2     1  UNL1       -0.2795
     36 H           9.5992    1.8274   -0.2924 H       1  UNL1        0.0230
     37 H           8.2444    3.0285    0.0077 H       1  UNL1        0.0230
     38 H           8.5695    1.6739    1.1306 H       1  UNL1        0.0230
     39 H           6.8843    1.7108   -1.3358 H       1  UNL1        0.0263
     40 H           8.1100    0.4461   -1.4671 H       1  UNL1        0.0263
     41 H           6.2667    0.8733    0.9363 H       1  UNL1        0.0265
     42 H           7.5307   -0.4666    0.7531 H       1  UNL1        0.0265
     43 H           6.4409   -1.3511   -1.1911 H       1  UNL1        0.0265
     44 H           5.2447   -0.0363   -1.1839 H       1  UNL1        0.0265
     45 H           4.3951   -2.2125   -0.1731 H       1  UNL1        0.0265
     46 H           5.8205   -2.1721    0.9419 H       1  UNL1        0.0265
     47 H           4.9273   -0.1487    2.0553 H       1  UNL1        0.0265
     48 H           3.6853   -1.4092    2.0431 H       1  UNL1        0.0265
     49 H           2.8035    0.8844    1.3679 H       1  UNL1        0.0265
     50 H           3.8802    0.9008   -0.0349 H       1  UNL1        0.0265
     51 H           2.8686   -1.2215   -0.9051 H       1  UNL1        0.0265
     52 H           1.7809   -1.2406    0.4836 H       1  UNL1        0.0265
     53 H           1.9966    1.0011   -1.6652 H       1  UNL1        0.0265
     54 H           0.6429   -0.2290   -1.5451 H       1  UNL1        0.0265
     55 H          -0.0485    1.9540   -0.5770 H       1  UNL1        0.0266
     56 H           1.3320    1.8893    0.5382 H       1  UNL1        0.0266
     57 H           0.3895   -0.2405    1.5727 H       1  UNL1        0.0301
     58 H          -0.7649    1.0929    1.6273 H       1  UNL1        0.0301
     59 H          -1.8811   -0.8036    1.1338 H       1  UNL1        0.0735
     60 H          -2.9222   -0.2720   -1.1081 H       1  UNL1        0.0337
     61 H          -1.6107    0.9146   -1.3722 H       1  UNL1        0.0337
     62 H          -2.2375    2.1355    0.7665 H       1  UNL1        0.0743
     63 H          -4.3042    2.0825   -1.2372 H       1  UNL1        0.0450
     64 H          -4.0538    3.7153    1.0509 H       1  UNL1        0.0274
     65 H          -5.0099    2.4050    1.7685 H       1  UNL1        0.0274
     66 H          -6.7497    2.5287    0.1681 H       1  UNL1        0.0266
     67 H          -6.6172    4.0888    1.0108 H       1  UNL1        0.0266
     68 H          -5.7220    3.3587   -1.8251 H       1  UNL1        0.0265
     69 H          -6.9672    4.5181   -1.3290 H       1  UNL1        0.0265
     70 H          -3.9598    4.8674   -0.6202 H       1  UNL1        0.0265
     71 H          -4.7785    5.6832   -1.9622 H       1  UNL1        0.0265
     72 H          -5.4743    5.7325    1.0412 H       1  UNL1        0.0263
     73 H          -6.4226    6.5933   -0.2727 H       1  UNL1        0.0263
     74 H          -4.4817    7.9989    0.9413 H       1  UNL1        0.0230
     75 H          -4.4744    7.9202   -0.8520 H       1  UNL1        0.0230
     76 H          -3.3914    6.7974    0.1311 H       1  UNL1        0.0230
     77 H          -1.4741   -4.6269   -0.9212 H       1  UNL1        0.0614
     78 H           1.0925   -4.3255    0.7970 H       1  UNL1        0.0291
     79 H           0.6945   -5.7064   -0.2199 H       1  UNL1        0.0291
     80 H          -0.9238   -4.6875    2.2315 H       1  UNL1        0.0296
     81 H          -2.6652   -5.7877    1.3159 H       1  UNL1        0.0232
     82 H          -1.6789   -7.2469    1.7208 H       1  UNL1        0.0232
     83 H          -1.6398   -6.6237    0.0517 H       1  UNL1        0.0232
     84 H           0.6021   -7.2425    1.8454 H       1  UNL1        0.0232
     85 H           1.4261   -5.7614    2.4208 H       1  UNL1        0.0232
     86 H           0.0799   -6.4088    3.3964 H       1  UNL1        0.0232
     87 H           1.1049   -3.0543   -1.6987 H       1  UNL1        0.1492
     88 H           0.2189   -3.8226   -3.8132 H       1  UNL1        0.1251
@<TRIPOS>BOND
     1     1     2    1
     2     2     3    1
     3     3     4    1
     4     4     5    1
     5     5     6    1
     6     6     7    1
     7     7     8    1
     8     8     9    1
     9     9    10    1
    10    10    11    1
    11    11    12    1
    12    12    13    1
    13    13    14    1
    14    14    15    1
    15    15    16    1
    16    16    17    2
    17    16    18    1
    18    18    19    1
    19    19    20    1
    20    20    21    1
    21    21    22    1
    22    22    23    1
    23    23    24    1
    24    12    25    1
    25    25    26    1
    26    26    27    2
    27    26    28    1
    28    28    29    1
    29    29    30    1
    30    30    31    1
    31    30    32    1
    32    28    33    1
    33    33    34   am
    34    34    35    2
    35    18    14    1
    36     1    36    1
    37     1    37    1
    38     1    38    1
    39     2    39    1
    40     2    40    1
    41     3    41    1
    42     3    42    1
    43     4    43    1
    44     4    44    1
    45     5    45    1
    46     5    46    1
    47     6    47    1
    48     6    48    1
    49     7    49    1
    50     7    50    1
    51     8    51    1
    52     8    52    1
    53     9    53    1
    54     9    54    1
    55    10    55    1
    56    10    56    1
    57    11    57    1
    58    11    58    1
    59    12    59    1
    60    13    60    1
    61    13    61    1
    62    14    62    1
    63    18    63    1
    64    19    64    1
    65    19    65    1
    66    20    66    1
    67    20    67    1
    68    21    68    1
    69    21    69    1
    70    22    70    1
    71    22    71    1
    72    23    72    1
    73    23    73    1
    74    24    74    1
    75    24    75    1
    76    24    76    1
    77    28    77    1
    78    29    78    1
    79    29    79    1
    80    30    80    1
    81    31    81    1
    82    31    82    1
    83    31    83    1
    84    32    84    1
    85    32    85    1
    86    32    86    1
    87    33    87    1
    88    34    88    1
