
     RDKit          3D

 33 35  0  0  0  0  0  0  0  0999 V2000
   -5.1907    1.0825    0.6954 C   0  0  0  0  0  0  0  0  0  0  0  0
   -3.9454    1.6837    0.8646 O   0  0  0  0  0  0  0  0  0  0  0  0
   -2.7267    1.0913    0.6466 C   0  0  0  0  0  0  0  0  0  0  0  0
   -2.6627   -0.2112    0.2222 C   0  0  0  0  0  0  0  0  0  0  0  0
   -1.4459   -0.8440   -0.0071 C   0  0  0  0  0  0  0  0  0  0  0  0
   -0.2592   -0.1473    0.1933 C   0  0  0  0  0  0  0  0  0  0  0  0
   -0.3510    1.1812    0.6247 C   0  0  0  0  0  0  0  0  0  0  0  0
   -1.5631    1.7674    0.8418 C   0  0  0  0  0  0  0  0  0  0  0  0
   -1.6951    3.4435    1.3902 Cl  0  0  0  0  0  0  0  0  0  0  0  0
    1.0039   -0.7001   -0.2174 C   0  0  0  0  0  0  0  0  0  0  0  0
    2.2956   -0.0812   -0.0527 C   0  0  0  0  0  0  0  0  0  0  0  0
    2.6980    0.9380    0.7396 C   0  0  0  0  0  0  0  0  0  0  0  0
    3.9765    1.5216    0.6749 C   0  0  0  0  0  0  0  0  0  0  0  0
    4.9183    1.0778   -0.2157 C   0  0  0  0  0  0  0  0  0  0  0  0
    6.5221    1.7947   -0.3119 Cl  0  0  0  0  0  0  0  0  0  0  0  0
    4.5454    0.0383   -1.0352 C   0  0  0  0  0  0  0  0  0  0  0  0
    5.7622   -0.5254   -2.1720 Cl  0  0  0  0  0  0  0  0  0  0  0  0
    3.3111   -0.5120   -0.9631 C   0  0  0  0  0  0  0  0  0  0  0  0
    0.9357   -1.8696   -0.8121 N   0  0  0  0  0  0  0  0  0  0  0  0
   -0.1837   -2.6444   -1.1027 C   0  0  0  0  0  0  0  0  0  0  0  0
   -1.4222   -2.2583   -0.3867 C   0  0  0  0  0  0  0  0  0  0  0  0
   -5.4655    0.3805    1.5075 H   0  0  0  0  0  0  0  0  0  0  0  0
   -5.9956    1.8309    0.5417 H   0  0  0  0  0  0  0  0  0  0  0  0
   -5.1310    0.4468   -0.2365 H   0  0  0  0  0  0  0  0  0  0  0  0
   -3.5546   -0.8161    0.0431 H   0  0  0  0  0  0  0  0  0  0  0  0
    0.4992    1.8022    0.7337 H   0  0  0  0  0  0  0  0  0  0  0  0
    2.0326    1.2613    1.5297 H   0  0  0  0  0  0  0  0  0  0  0  0
    4.1950    2.3313    1.3489 H   0  0  0  0  0  0  0  0  0  0  0  0
    3.0617   -1.3245   -1.6250 H   0  0  0  0  0  0  0  0  0  0  0  0
   -0.4127   -2.5472   -2.2065 H   0  0  0  0  0  0  0  0  0  0  0  0
    0.0391   -3.7396   -0.8881 H   0  0  0  0  0  0  0  0  0  0  0  0
   -1.4354   -2.8868    0.5641 H   0  0  0  0  0  0  0  0  0  0  0  0
   -2.3559   -2.5654   -0.9296 H   0  0  0  0  0  0  0  0  0  0  0  0
  1  2  1  0
  2  3  1  0
  3  4  2  0
  4  5  1  0
  5  6  2  0
  6  7  1  0
  7  8  2  0
  8  9  1  0
  6 10  1  0
 10 11  1  0
 11 12  2  0
 12 13  1  0
 13 14  2  0
 14 15  1  0
 14 16  1  0
 16 17  1  0
 16 18  2  0
 10 19  2  0
 19 20  1  0
 20 21  1  0
  8  3  1  0
 18 11  1  0
 21  5  1  0
  1 22  1  0
  1 23  1  0
  1 24  1  0
  4 25  1  0
  7 26  1  0
 12 27  1  0
 13 28  1  0
 18 29  1  0
 20 30  1  0
 20 31  1  0
 21 32  1  0
 21 33  1  0
M  END
$$$$
