@<TRIPOS>MOLECULE
*****
 33 35 0 0 0
SMALL
GASTEIGER

@<TRIPOS>ATOM
      1 C          -5.1907    1.0825    0.6954 C.3     1  UNL1        0.0789
      2 O          -3.9454    1.6837    0.8646 O.3     1  UNL1       -0.4936
      3 C          -2.7267    1.0913    0.6466 C.ar    1  UNL1        0.1386
      4 C          -2.6627   -0.2112    0.2222 C.ar    1  UNL1       -0.0146
      5 C          -1.4459   -0.8440   -0.0071 C.ar    1  UNL1       -0.0329
      6 C          -0.2592   -0.1473    0.1933 C.ar    1  UNL1        0.0053
      7 C          -0.3510    1.1812    0.6247 C.ar    1  UNL1       -0.0304
      8 C          -1.5631    1.7674    0.8418 C.ar    1  UNL1        0.0831
      9 CL         -1.6951    3.4435    1.3902 Cl      1  UNL1       -0.0797
     10 C           1.0039   -0.7001   -0.2174 C.2     1  UNL1        0.0730
     11 C           2.2956   -0.0812   -0.0527 C.ar    1  UNL1        0.0020
     12 C           2.6980    0.9380    0.7396 C.ar    1  UNL1       -0.0511
     13 C           3.9765    1.5216    0.6749 C.ar    1  UNL1       -0.0413
     14 C           4.9183    1.0778   -0.2157 C.ar    1  UNL1        0.0593
     15 CL          6.5221    1.7947   -0.3119 Cl      1  UNL1       -0.0820
     16 C           4.5454    0.0383   -1.0352 C.ar    1  UNL1        0.0599
     17 CL          5.7622   -0.5254   -2.1720 Cl      1  UNL1       -0.0820
     18 C           3.3111   -0.5120   -0.9631 C.ar    1  UNL1       -0.0328
     19 N           0.9357   -1.8696   -0.8121 N.2     1  UNL1       -0.2824
     20 C          -0.1837   -2.6444   -1.1027 C.3     1  UNL1        0.0444
     21 C          -1.4222   -2.2583   -0.3867 C.3     1  UNL1       -0.0073
     22 H          -5.4655    0.3805    1.5075 H       1  UNL1        0.0660
     23 H          -5.9956    1.8309    0.5417 H       1  UNL1        0.0660
     24 H          -5.1310    0.4468   -0.2365 H       1  UNL1        0.0660
     25 H          -3.5546   -0.8161    0.0431 H       1  UNL1        0.0657
     26 H           0.4992    1.8022    0.7337 H       1  UNL1        0.0640
     27 H           2.0326    1.2613    1.5297 H       1  UNL1        0.0625
     28 H           4.1950    2.3313    1.3489 H       1  UNL1        0.0633
     29 H           3.0617   -1.3245   -1.6250 H       1  UNL1        0.0639
     30 H          -0.4127   -2.5472   -2.2065 H       1  UNL1        0.0511
     31 H           0.0391   -3.7396   -0.8881 H       1  UNL1        0.0511
     32 H          -1.4354   -2.8868    0.5641 H       1  UNL1        0.0331
     33 H          -2.3559   -2.5654   -0.9296 H       1  UNL1        0.0331
@<TRIPOS>BOND
     1     1     2    1
     2     2     3    1
     3     3     4   ar
     4     4     5   ar
     5     5     6   ar
     6     6     7   ar
     7     7     8   ar
     8     8     9    1
     9     6    10    1
    10    10    11    1
    11    11    12   ar
    12    12    13   ar
    13    13    14   ar
    14    14    15    1
    15    14    16   ar
    16    16    17    1
    17    16    18   ar
    18    10    19    2
    19    19    20    1
    20    20    21    1
    21     8     3   ar
    22    18    11   ar
    23    21     5    1
    24     1    22    1
    25     1    23    1
    26     1    24    1
    27     4    25    1
    28     7    26    1
    29    12    27    1
    30    13    28    1
    31    18    29    1
    32    20    30    1
    33    20    31    1
    34    21    32    1
    35    21    33    1
