@<TRIPOS>MOLECULE
*****
 37 40 0 0 0
SMALL
GASTEIGER

@<TRIPOS>ATOM
      1 O          -2.9631    2.8757    1.6335 O.2     1  UNL1       -0.2651
      2 C          -1.9733    2.1843    1.2871 C.ar    1  UNL1        0.2815
      3 N          -0.7262    2.5168    1.6656 N.ar    1  UNL1       -0.1970
      4 C           0.3654    1.8170    1.3261 C.ar    1  UNL1        0.1220
      5 N           0.2025    0.7109    0.5570 N.ar    1  UNL1       -0.2198
      6 N           1.2713    0.0065    0.2115 N.ar    1  UNL1       -0.1584
      7 C           1.1735   -1.0908   -0.5435 C.ar    1  UNL1        0.1225
      8 S           2.6303   -2.0365   -1.0048 S.3     1  UNL1       -0.0653
      9 C           4.0808   -1.2820   -0.3154 C.ar    1  UNL1        0.0495
     10 C           4.7619   -0.3272   -1.0284 C.ar    1  UNL1       -0.0425
     11 C           5.8982    0.2649   -0.4901 C.ar    1  UNL1       -0.0252
     12 C           6.3581   -0.0905    0.7551 C.ar    1  UNL1        0.1262
     13 F           7.4742    0.4721    1.3165 F       1  UNL1       -0.2054
     14 C           5.6748   -1.0462    1.4663 C.ar    1  UNL1        0.0099
     15 C           4.5417   -1.6349    0.9266 C.ar    1  UNL1        0.1398
     16 F           3.9211   -2.5751    1.6975 F       1  UNL1       -0.2042
     17 C          -0.0695   -1.4925   -0.9685 C.ar    1  UNL1       -0.0257
     18 C          -1.1858   -0.7651   -0.6132 C.ar    1  UNL1       -0.0329
     19 C          -1.0206    0.3487    0.1613 C.ar    1  UNL1        0.0802
     20 C          -2.1668    1.0650    0.5053 C.ar    1  UNL1        0.0765
     21 C          -3.4880    0.6401    0.0551 C.ar    1  UNL1        0.0260
     22 C          -4.0362    1.0769   -1.1337 C.ar    1  UNL1        0.0503
     23 CL         -3.0835    2.1806   -2.1120 Cl      1  UNL1       -0.0829
     24 C          -5.2885    0.6554   -1.5298 C.ar    1  UNL1       -0.0427
     25 C          -6.0457   -0.2136   -0.7656 C.ar    1  UNL1       -0.0590
     26 C          -5.5020   -0.6523    0.4223 C.ar    1  UNL1       -0.0427
     27 C          -4.2539   -0.2315    0.8158 C.ar    1  UNL1        0.0503
     28 CL         -3.6124   -0.8142    2.3239 Cl      1  UNL1       -0.0829
     29 H           1.3675    2.1095    1.6474 H       1  UNL1        0.1049
     30 H           4.4384   -0.0148   -2.0118 H       1  UNL1        0.0630
     31 H           6.4040    0.9971   -1.0595 H       1  UNL1        0.0646
     32 H           6.0309   -1.3378    2.4589 H       1  UNL1        0.0675
     33 H          -0.1350   -2.3712   -1.5716 H       1  UNL1        0.0645
     34 H          -2.1874   -1.0571   -0.9342 H       1  UNL1        0.0640
     35 H          -5.7156    0.9944   -2.4538 H       1  UNL1        0.0632
     36 H          -7.0316   -0.5487   -1.0722 H       1  UNL1        0.0618
     37 H          -6.1095   -1.3337    1.0095 H       1  UNL1        0.0632
@<TRIPOS>BOND
     1     1     2    2
     2     2     3   ar
     3     3     4   ar
     4     4     5   ar
     5     5     6   ar
     6     6     7   ar
     7     7     8    1
     8     8     9    1
     9     9    10   ar
    10    10    11   ar
    11    11    12   ar
    12    12    13    1
    13    12    14   ar
    14    14    15   ar
    15    15    16    1
    16     7    17   ar
    17    17    18   ar
    18    18    19   ar
    19    19    20   ar
    20    20    21    1
    21    21    22   ar
    22    22    23    1
    23    22    24   ar
    24    24    25   ar
    25    25    26   ar
    26    26    27   ar
    27    27    28    1
    28    20     2   ar
    29    27    21   ar
    30    19     5   ar
    31    15     9   ar
    32     4    29    1
    33    10    30    1
    34    11    31    1
    35    14    32    1
    36    17    33    1
    37    18    34    1
    38    24    35    1
    39    25    36    1
    40    26    37    1
