@<TRIPOS>MOLECULE
*****
 48 52 0 0 0
SMALL
GASTEIGER

@<TRIPOS>ATOM
      1 O           0.8077   -1.6274    1.3644 O.2     1  UNL1       -0.2685
      2 C           1.9204   -1.0877    1.5023 C.2     1  UNL1        0.2642
      3 N           2.9541   -1.7957    2.1455 N.am    1  UNL1       -0.3072
      4 C           2.8161   -3.1519    2.6767 C.3     1  UNL1        0.0236
      5 C           3.6546   -3.4388    3.9084 C.3     1  UNL1       -0.0328
      6 C           4.0673   -3.9621    2.5473 C.3     1  UNL1       -0.0328
      7 C           2.1180    0.2653    0.9923 C.ar    1  UNL1        0.1472
      8 C           3.3195    0.9570    1.0847 C.ar    1  UNL1        0.0605
      9 N           3.0908    2.1470    0.5099 N.ar    1  UNL1       -0.2339
     10 C           1.8159    2.1815    0.0873 C.ar    1  UNL1        0.1549
     11 C           1.0444    3.1490   -0.5675 C.ar    1  UNL1       -0.0153
     12 C          -0.2754    2.9060   -0.8871 C.ar    1  UNL1       -0.0290
     13 C          -0.8670    1.6802   -0.5600 C.ar    1  UNL1        0.1103
     14 C          -2.2647    1.4453   -0.9088 C.ar    1  UNL1        0.0968
     15 C          -2.7118    0.4688   -1.7965 C.ar    1  UNL1        0.0982
     16 C          -1.8474   -0.4752   -2.4948 C.ar    1  UNL1        0.0027
     17 C          -1.1655   -1.4782   -1.8372 C.ar    1  UNL1       -0.0498
     18 C          -0.3421   -2.3742   -2.4862 C.ar    1  UNL1       -0.0258
     19 C          -0.1733   -2.2879   -3.8516 C.ar    1  UNL1        0.1234
     20 F           0.6503   -3.1878   -4.4830 F       1  UNL1       -0.2055
     21 C          -0.8390   -1.3006   -4.5338 C.ar    1  UNL1       -0.0258
     22 C          -1.6722   -0.3973   -3.8602 C.ar    1  UNL1       -0.0498
     23 N          -4.0630    0.5760   -1.8560 N.ar    1  UNL1       -0.2351
     24 C          -4.4245    1.5796   -1.0351 C.ar    1  UNL1        0.0973
     25 N          -3.3315    2.1177   -0.4506 N.ar    1  UNL1       -0.3229
     26 C          -3.2672    3.2064    0.4914 C.3     1  UNL1        0.0852
     27 C          -3.3660    2.5918    1.8901 C.3     1  UNL1        0.2569
     28 F          -3.3127    3.5607    2.8724 F       1  UNL1       -0.2073
     29 F          -2.3432    1.7011    2.1293 F       1  UNL1       -0.2073
     30 N          -0.0824    0.7924    0.0656 N.ar    1  UNL1       -0.1628
     31 N           1.1870    1.0296    0.3720 N.ar    1  UNL1       -0.2076
     32 H           3.8725   -1.3008    2.2416 H       1  UNL1        0.1493
     33 H           1.8460   -3.6442    2.5735 H       1  UNL1        0.0498
     34 H           3.2637   -4.1305    4.6652 H       1  UNL1        0.0284
     35 H           4.2372   -2.5847    4.3387 H       1  UNL1        0.0284
     36 H           4.9800   -3.5079    2.1304 H       1  UNL1        0.0284
     37 H           4.0182   -5.0523    2.4302 H       1  UNL1        0.0284
     38 H           4.2401    0.5810    1.5368 H       1  UNL1        0.0854
     39 H           1.5429    4.0767   -0.7986 H       1  UNL1        0.0655
     40 H          -0.8192    3.6929   -1.3922 H       1  UNL1        0.0641
     41 H          -1.2860   -1.5653   -0.7685 H       1  UNL1        0.0625
     42 H           0.1996   -3.1685   -1.9663 H       1  UNL1        0.0646
     43 H          -0.7082   -1.2326   -5.5947 H       1  UNL1        0.0646
     44 H          -2.1866    0.3755   -4.4347 H       1  UNL1        0.0625
     45 H          -5.4475    1.9243   -0.8537 H       1  UNL1        0.1029
     46 H          -4.1641    3.8851    0.4234 H       1  UNL1        0.0548
     47 H          -2.3267    3.7577    0.4686 H       1  UNL1        0.0548
     48 H          -4.3590    2.1030    1.9692 H       1  UNL1        0.1037
@<TRIPOS>BOND
     1     1     2    2
     2     2     3   am
     3     3     4    1
     4     4     5    1
     5     5     6    1
     6     2     7    1
     7     7     8   ar
     8     8     9   ar
     9     9    10   ar
    10    10    11   ar
    11    11    12   ar
    12    12    13   ar
    13    13    14    1
    14    14    15   ar
    15    15    16    1
    16    16    17   ar
    17    17    18   ar
    18    18    19   ar
    19    19    20    1
    20    19    21   ar
    21    21    22   ar
    22    15    23   ar
    23    23    24   ar
    24    24    25   ar
    25    25    26    1
    26    26    27    1
    27    27    28    1
    28    27    29    1
    29    13    30   ar
    30    30    31   ar
    31     6     4    1
    32    31     7   ar
    33    31    10   ar
    34    25    14   ar
    35    22    16   ar
    36     3    32    1
    37     4    33    1
    38     5    34    1
    39     5    35    1
    40     6    36    1
    41     6    37    1
    42     8    38    1
    43    11    39    1
    44    12    40    1
    45    17    41    1
    46    18    42    1
    47    21    43    1
    48    22    44    1
    49    24    45    1
    50    26    46    1
    51    26    47    1
    52    27    48    1
