
     RDKit          3D

 48 52  0  0  0  0  0  0  0  0999 V2000
    0.8077   -1.6274    1.3644 O   0  0  0  0  0  0  0  0  0  0  0  0
    1.9204   -1.0877    1.5023 C   0  0  0  0  0  0  0  0  0  0  0  0
    2.9541   -1.7957    2.1455 N   0  0  0  0  0  0  0  0  0  0  0  0
    2.8161   -3.1519    2.6767 C   0  0  0  0  0  0  0  0  0  0  0  0
    3.6546   -3.4388    3.9084 C   0  0  0  0  0  0  0  0  0  0  0  0
    4.0673   -3.9621    2.5473 C   0  0  0  0  0  0  0  0  0  0  0  0
    2.1180    0.2653    0.9923 C   0  0  0  0  0  0  0  0  0  0  0  0
    3.3195    0.9570    1.0847 C   0  0  0  0  0  0  0  0  0  0  0  0
    3.0908    2.1470    0.5099 N   0  0  0  0  0  0  0  0  0  0  0  0
    1.8159    2.1815    0.0873 C   0  0  0  0  0  0  0  0  0  0  0  0
    1.0444    3.1490   -0.5675 C   0  0  0  0  0  0  0  0  0  0  0  0
   -0.2754    2.9060   -0.8871 C   0  0  0  0  0  0  0  0  0  0  0  0
   -0.8670    1.6802   -0.5600 C   0  0  0  0  0  0  0  0  0  0  0  0
   -2.2647    1.4453   -0.9088 C   0  0  0  0  0  0  0  0  0  0  0  0
   -2.7118    0.4688   -1.7965 C   0  0  0  0  0  0  0  0  0  0  0  0
   -1.8474   -0.4752   -2.4948 C   0  0  0  0  0  0  0  0  0  0  0  0
   -1.1655   -1.4782   -1.8372 C   0  0  0  0  0  0  0  0  0  0  0  0
   -0.3421   -2.3742   -2.4862 C   0  0  0  0  0  0  0  0  0  0  0  0
   -0.1733   -2.2879   -3.8516 C   0  0  0  0  0  0  0  0  0  0  0  0
    0.6503   -3.1878   -4.4830 F   0  0  0  0  0  0  0  0  0  0  0  0
   -0.8390   -1.3006   -4.5338 C   0  0  0  0  0  0  0  0  0  0  0  0
   -1.6722   -0.3973   -3.8602 C   0  0  0  0  0  0  0  0  0  0  0  0
   -4.0630    0.5760   -1.8560 N   0  0  0  0  0  0  0  0  0  0  0  0
   -4.4245    1.5796   -1.0351 C   0  0  0  0  0  0  0  0  0  0  0  0
   -3.3315    2.1177   -0.4506 N   0  0  0  0  0  0  0  0  0  0  0  0
   -3.2672    3.2064    0.4914 C   0  0  0  0  0  0  0  0  0  0  0  0
   -3.3660    2.5918    1.8901 C   0  0  0  0  0  0  0  0  0  0  0  0
   -3.3127    3.5607    2.8724 F   0  0  0  0  0  0  0  0  0  0  0  0
   -2.3432    1.7011    2.1293 F   0  0  0  0  0  0  0  0  0  0  0  0
   -0.0824    0.7924    0.0656 N   0  0  0  0  0  0  0  0  0  0  0  0
    1.1870    1.0296    0.3720 N   0  0  0  0  0  0  0  0  0  0  0  0
    3.8725   -1.3008    2.2416 H   0  0  0  0  0  0  0  0  0  0  0  0
    1.8460   -3.6442    2.5735 H   0  0  0  0  0  0  0  0  0  0  0  0
    3.2637   -4.1305    4.6652 H   0  0  0  0  0  0  0  0  0  0  0  0
    4.2372   -2.5847    4.3387 H   0  0  0  0  0  0  0  0  0  0  0  0
    4.9800   -3.5079    2.1304 H   0  0  0  0  0  0  0  0  0  0  0  0
    4.0182   -5.0523    2.4302 H   0  0  0  0  0  0  0  0  0  0  0  0
    4.2401    0.5810    1.5368 H   0  0  0  0  0  0  0  0  0  0  0  0
    1.5429    4.0767   -0.7986 H   0  0  0  0  0  0  0  0  0  0  0  0
   -0.8192    3.6929   -1.3922 H   0  0  0  0  0  0  0  0  0  0  0  0
   -1.2860   -1.5653   -0.7685 H   0  0  0  0  0  0  0  0  0  0  0  0
    0.1996   -3.1685   -1.9663 H   0  0  0  0  0  0  0  0  0  0  0  0
   -0.7082   -1.2326   -5.5947 H   0  0  0  0  0  0  0  0  0  0  0  0
   -2.1866    0.3755   -4.4347 H   0  0  0  0  0  0  0  0  0  0  0  0
   -5.4475    1.9243   -0.8537 H   0  0  0  0  0  0  0  0  0  0  0  0
   -4.1641    3.8851    0.4234 H   0  0  0  0  0  0  0  0  0  0  0  0
   -2.3267    3.7577    0.4686 H   0  0  0  0  0  0  0  0  0  0  0  0
   -4.3590    2.1030    1.9692 H   0  0  0  0  0  0  0  0  0  0  0  0
  1  2  2  0
  2  3  1  0
  3  4  1  0
  4  5  1  0
  5  6  1  0
  2  7  1  0
  7  8  2  0
  8  9  1  0
  9 10  2  0
 10 11  1  0
 11 12  2  0
 12 13  1  0
 13 14  1  0
 14 15  2  0
 15 16  1  0
 16 17  2  0
 17 18  1  0
 18 19  2  0
 19 20  1  0
 19 21  1  0
 21 22  2  0
 15 23  1  0
 23 24  2  0
 24 25  1  0
 25 26  1  0
 26 27  1  0
 27 28  1  0
 27 29  1  0
 13 30  2  0
 30 31  1  0
  6  4  1  0
 31  7  1  0
 31 10  1  0
 25 14  1  0
 22 16  1  0
  3 32  1  0
  4 33  1  0
  5 34  1  0
  5 35  1  0
  6 36  1  0
  6 37  1  0
  8 38  1  0
 11 39  1  0
 12 40  1  0
 17 41  1  0
 18 42  1  0
 21 43  1  0
 22 44  1  0
 24 45  1  0
 26 46  1  0
 26 47  1  0
 27 48  1  0
M  END
$$$$
