@<TRIPOS>MOLECULE
*****
 45 48 0 0 0
SMALL
GASTEIGER

@<TRIPOS>ATOM
      1 C           8.4670    1.2524    0.9248 C.3     1  UNL1        0.0805
      2 O           7.6235    0.1575    1.2462 O.3     1  UNL1       -0.4786
      3 C           6.3118    0.1117    0.7768 C.ar    1  UNL1        0.2332
      4 C           5.5073   -0.9407    1.0881 C.ar    1  UNL1        0.0899
      5 N           4.2370   -0.9949    0.6392 N.ar    1  UNL1       -0.2435
      6 C           3.7927    0.0057   -0.1142 C.ar    1  UNL1        0.1439
      7 C           2.4223   -0.0281   -0.6129 C.2     1  UNL1        0.2681
      8 O           1.9521    0.8989   -1.3330 O.2     1  UNL1       -0.2681
      9 N           1.5446   -1.1126   -0.3105 N.am    1  UNL1       -0.2802
     10 C           0.2212   -1.1142   -0.8103 C.ar    1  UNL1        0.0342
     11 C          -0.0788   -1.6753   -2.0185 C.ar    1  UNL1       -0.0377
     12 C          -1.3698   -1.6765   -2.5055 C.ar    1  UNL1       -0.0243
     13 C          -2.3970   -1.1067   -1.7788 C.ar    1  UNL1        0.1290
     14 F          -3.6678   -1.0948   -2.2452 F       1  UNL1       -0.2051
     15 C          -2.1112   -0.5414   -0.5672 C.ar    1  UNL1        0.0171
     16 C          -3.1895    0.0732    0.2431 C.3     1  UNL1        0.0977
     17 C          -2.5953    0.7208    1.4829 C.3     1  UNL1       -0.0350
     18 N          -3.7773    1.1355   -0.5448 N.2     1  UNL1       -0.2254
     19 C          -4.9337    1.5778   -0.1878 C.2     1  UNL1        0.2762
     20 N          -5.5308    2.6220   -0.9469 N.pl3   1  UNL1       -0.3134
     21 O          -5.5085    0.9887    0.9251 O.2     1  UNL1       -0.4622
     22 C          -5.5360   -0.4215    1.0398 C.3     1  UNL1        0.1089
     23 C          -4.6869   -1.1674    1.9629 C.3     1  UNL1       -0.0066
     24 C          -4.2008   -0.9680    0.5740 C.3     1  UNL1        0.0288
     25 C          -0.8096   -0.5467   -0.0890 C.ar    1  UNL1       -0.0323
     26 C           4.5919    1.0685   -0.4336 C.ar    1  UNL1        0.0619
     27 N           5.8530    1.1063    0.0214 N.ar    1  UNL1       -0.2178
     28 H           8.8116    1.0870   -0.1217 H       1  UNL1        0.0660
     29 H           7.8922    2.2076    0.9325 H       1  UNL1        0.0660
     30 H           9.3033    1.2864    1.6370 H       1  UNL1        0.0660
     31 H           5.9109   -1.7324    1.7039 H       1  UNL1        0.0884
     32 H           1.8618   -1.9142    0.2783 H       1  UNL1        0.1552
     33 H           0.6817   -2.1292   -2.6192 H       1  UNL1        0.0637
     34 H          -1.5892   -2.1230   -3.4598 H       1  UNL1        0.0647
     35 H          -1.8322    1.4451    1.1328 H       1  UNL1        0.0256
     36 H          -3.3571    1.3193    2.0218 H       1  UNL1        0.0256
     37 H          -2.1120    0.0111    2.1591 H       1  UNL1        0.0256
     38 H          -6.1676    3.3109   -0.5374 H       1  UNL1        0.1466
     39 H          -5.3090    2.6863   -1.9627 H       1  UNL1        0.1466
     40 H          -6.4678   -0.8725    0.6357 H       1  UNL1        0.0737
     41 H          -5.0140   -2.1961    2.2150 H       1  UNL1        0.0306
     42 H          -4.1263   -0.6871    2.7883 H       1  UNL1        0.0306
     43 H          -4.2871   -1.7917   -0.1757 H       1  UNL1        0.0364
     44 H          -0.5469   -0.1099    0.8630 H       1  UNL1        0.0640
     45 H           4.2161    1.8722   -1.0459 H       1  UNL1        0.0854
@<TRIPOS>BOND
     1     1     2    1
     2     2     3    1
     3     3     4   ar
     4     4     5   ar
     5     5     6   ar
     6     6     7    1
     7     7     8    2
     8     7     9   am
     9     9    10    1
    10    10    11   ar
    11    11    12   ar
    12    12    13   ar
    13    13    14    1
    14    13    15   ar
    15    15    16    1
    16    16    17    1
    17    16    18    1
    18    18    19    2
    19    19    20    1
    20    19    21    1
    21    21    22    1
    22    22    23    1
    23    23    24    1
    24    15    25   ar
    25     6    26   ar
    26    26    27   ar
    27    27     3   ar
    28    25    10   ar
    29    24    16    1
    30    24    22    1
    31     1    28    1
    32     1    29    1
    33     1    30    1
    34     4    31    1
    35     9    32    1
    36    11    33    1
    37    12    34    1
    38    17    35    1
    39    17    36    1
    40    17    37    1
    41    20    38    1
    42    20    39    1
    43    22    40    1
    44    23    41    1
    45    23    42    1
    46    24    43    1
    47    25    44    1
    48    26    45    1
