
     RDKit          3D

 45 48  0  0  0  0  0  0  0  0999 V2000
    8.4670    1.2524    0.9248 C   0  0  0  0  0  0  0  0  0  0  0  0
    7.6235    0.1575    1.2462 O   0  0  0  0  0  0  0  0  0  0  0  0
    6.3118    0.1117    0.7768 C   0  0  0  0  0  0  0  0  0  0  0  0
    5.5073   -0.9407    1.0881 C   0  0  0  0  0  0  0  0  0  0  0  0
    4.2370   -0.9949    0.6392 N   0  0  0  0  0  0  0  0  0  0  0  0
    3.7927    0.0057   -0.1142 C   0  0  0  0  0  0  0  0  0  0  0  0
    2.4223   -0.0281   -0.6129 C   0  0  0  0  0  0  0  0  0  0  0  0
    1.9521    0.8989   -1.3330 O   0  0  0  0  0  0  0  0  0  0  0  0
    1.5446   -1.1126   -0.3105 N   0  0  0  0  0  0  0  0  0  0  0  0
    0.2212   -1.1142   -0.8103 C   0  0  0  0  0  0  0  0  0  0  0  0
   -0.0788   -1.6753   -2.0185 C   0  0  0  0  0  0  0  0  0  0  0  0
   -1.3698   -1.6765   -2.5055 C   0  0  0  0  0  0  0  0  0  0  0  0
   -2.3970   -1.1067   -1.7788 C   0  0  0  0  0  0  0  0  0  0  0  0
   -3.6678   -1.0948   -2.2452 F   0  0  0  0  0  0  0  0  0  0  0  0
   -2.1112   -0.5414   -0.5672 C   0  0  0  0  0  0  0  0  0  0  0  0
   -3.1895    0.0732    0.2431 C   0  0  1  0  0  0  0  0  0  0  0  0
   -2.5953    0.7208    1.4829 C   0  0  0  0  0  0  0  0  0  0  0  0
   -3.7773    1.1355   -0.5448 N   0  0  0  0  0  0  0  0  0  0  0  0
   -4.9337    1.5778   -0.1878 C   0  0  0  0  0  0  0  0  0  0  0  0
   -5.5308    2.6220   -0.9469 N   0  0  0  0  0  0  0  0  0  0  0  0
   -5.5085    0.9887    0.9251 O   0  0  0  0  0  0  0  0  0  0  0  0
   -5.5360   -0.4215    1.0398 C   0  0  2  0  0  0  0  0  0  0  0  0
   -4.6869   -1.1674    1.9629 C   0  0  0  0  0  0  0  0  0  0  0  0
   -4.2008   -0.9680    0.5740 C   0  0  2  0  0  0  0  0  0  0  0  0
   -0.8096   -0.5467   -0.0890 C   0  0  0  0  0  0  0  0  0  0  0  0
    4.5919    1.0685   -0.4336 C   0  0  0  0  0  0  0  0  0  0  0  0
    5.8530    1.1063    0.0214 N   0  0  0  0  0  0  0  0  0  0  0  0
    8.8116    1.0870   -0.1217 H   0  0  0  0  0  0  0  0  0  0  0  0
    7.8922    2.2076    0.9325 H   0  0  0  0  0  0  0  0  0  0  0  0
    9.3033    1.2864    1.6370 H   0  0  0  0  0  0  0  0  0  0  0  0
    5.9109   -1.7324    1.7039 H   0  0  0  0  0  0  0  0  0  0  0  0
    1.8618   -1.9142    0.2783 H   0  0  0  0  0  0  0  0  0  0  0  0
    0.6817   -2.1292   -2.6192 H   0  0  0  0  0  0  0  0  0  0  0  0
   -1.5892   -2.1230   -3.4598 H   0  0  0  0  0  0  0  0  0  0  0  0
   -1.8322    1.4451    1.1328 H   0  0  0  0  0  0  0  0  0  0  0  0
   -3.3571    1.3193    2.0218 H   0  0  0  0  0  0  0  0  0  0  0  0
   -2.1120    0.0111    2.1591 H   0  0  0  0  0  0  0  0  0  0  0  0
   -6.1676    3.3109   -0.5374 H   0  0  0  0  0  0  0  0  0  0  0  0
   -5.3090    2.6863   -1.9627 H   0  0  0  0  0  0  0  0  0  0  0  0
   -6.4678   -0.8725    0.6357 H   0  0  0  0  0  0  0  0  0  0  0  0
   -5.0140   -2.1961    2.2150 H   0  0  0  0  0  0  0  0  0  0  0  0
   -4.1263   -0.6871    2.7883 H   0  0  0  0  0  0  0  0  0  0  0  0
   -4.2871   -1.7917   -0.1757 H   0  0  0  0  0  0  0  0  0  0  0  0
   -0.5469   -0.1099    0.8630 H   0  0  0  0  0  0  0  0  0  0  0  0
    4.2161    1.8722   -1.0459 H   0  0  0  0  0  0  0  0  0  0  0  0
  1  2  1  0
  2  3  1  0
  3  4  2  0
  4  5  1  0
  5  6  2  0
  6  7  1  0
  7  8  2  0
  7  9  1  0
  9 10  1  0
 10 11  2  0
 11 12  1  0
 12 13  2  0
 13 14  1  0
 13 15  1  0
 15 16  1  0
 16 17  1  1
 16 18  1  0
 18 19  2  0
 19 20  1  0
 19 21  1  0
 21 22  1  0
 22 23  1  0
 23 24  1  0
 15 25  2  0
  6 26  1  0
 26 27  2  0
 27  3  1  0
 25 10  1  0
 24 16  1  0
 24 22  1  0
  1 28  1  0
  1 29  1  0
  1 30  1  0
  4 31  1  0
  9 32  1  0
 11 33  1  0
 12 34  1  0
 17 35  1  0
 17 36  1  0
 17 37  1  0
 20 38  1  0
 20 39  1  0
 22 40  1  6
 23 41  1  0
 23 42  1  0
 24 43  1  6
 25 44  1  0
 26 45  1  0
M  END
$$$$
