@<TRIPOS>MOLECULE
*****
 56 57 0 0 0
SMALL
GASTEIGER

@<TRIPOS>ATOM
      1 C           7.9874   -0.7274   -0.9163 C.3     1  UNL1       -0.0469
      2 C           7.2021   -0.7528    0.3806 C.3     1  UNL1        0.0179
      3 C           7.9078    0.0697    1.4527 C.3     1  UNL1       -0.0469
      4 N           5.9343   -0.1331    0.1534 N.am    1  UNL1       -0.3064
      5 C           4.7415   -0.8297    0.4837 C.2     1  UNL1        0.2849
      6 O           4.7392   -1.9919    0.9776 O.2     1  UNL1       -0.2667
      7 C           3.4713   -0.1585    0.2349 C.ar    1  UNL1        0.2570
      8 N           3.2871    1.0685   -0.3006 N.ar    1  UNL1       -0.0512
      9 O           2.0096    1.2728   -0.3374 O.2     1  UNL1       -0.3373
     10 C           1.3590    0.2506    0.1428 C.ar    1  UNL1        0.2313
     11 C          -0.1489    0.2237    0.2182 C.3     1  UNL1        0.0464
     12 C          -0.6241    0.2237   -1.2115 C.3     1  UNL1       -0.0413
     13 C          -2.1280    0.2092   -1.3068 C.3     1  UNL1       -0.0521
     14 C          -2.6466   -1.0229   -0.6307 C.3     1  UNL1       -0.0502
     15 C          -4.1410   -1.0824   -0.7331 C.3     1  UNL1       -0.0410
     16 C          -4.7435    0.1233   -0.0779 C.3     1  UNL1       -0.0502
     17 C          -6.2493   -0.0415    0.0909 C.3     1  UNL1       -0.0528
     18 C          -6.7923   -1.0020   -0.9534 C.3     1  UNL1       -0.0530
     19 C          -6.0859   -0.7805   -2.2749 C.3     1  UNL1       -0.0528
     20 C          -4.6575   -1.2791   -2.1433 C.3     1  UNL1       -0.0502
     21 C          -0.5786    1.4363    0.9776 C.3     1  UNL1        0.0372
     22 C           0.0501    1.3444    2.3424 C.2     1  UNL1        0.2362
     23 O           0.7826    0.3838    2.6797 O.2     1  UNL1       -0.2737
     24 N          -0.2305    2.4089    3.2344 N.am    1  UNL1       -0.1975
     25 O           0.2958    2.4050    4.4797 O.3     1  UNL1       -0.2952
     26 N           2.2368   -0.6690    0.5128 N.ar    1  UNL1       -0.1872
     27 H           7.9237    0.2505   -1.4179 H       1  UNL1        0.0247
     28 H           9.0617   -0.9627   -0.7696 H       1  UNL1        0.0247
     29 H           7.5012   -1.4622   -1.6002 H       1  UNL1        0.0247
     30 H           7.0747   -1.7783    0.7635 H       1  UNL1        0.0493
     31 H           8.3600   -0.6260    2.2197 H       1  UNL1        0.0247
     32 H           8.7408    0.6369    1.0090 H       1  UNL1        0.0247
     33 H           7.1941    0.6884    2.0054 H       1  UNL1        0.0247
     34 H           5.9218    0.8413   -0.2597 H       1  UNL1        0.1494
     35 H          -0.4597   -0.7293    0.7018 H       1  UNL1        0.0401
     36 H          -0.1684   -0.6725   -1.6882 H       1  UNL1        0.0273
     37 H          -0.1832    1.1209   -1.7157 H       1  UNL1        0.0273
     38 H          -2.4273    0.2994   -2.3524 H       1  UNL1        0.0266
     39 H          -2.5470    1.1093   -0.7861 H       1  UNL1        0.0266
     40 H          -2.1530   -1.9461   -0.9992 H       1  UNL1        0.0268
     41 H          -2.4265   -0.9849    0.4717 H       1  UNL1        0.0268
     42 H          -4.4455   -1.9788   -0.1060 H       1  UNL1        0.0301
     43 H          -4.5367    1.0424   -0.6905 H       1  UNL1        0.0268
     44 H          -4.2606    0.2775    0.8991 H       1  UNL1        0.0268
     45 H          -6.6941    0.9626   -0.0447 H       1  UNL1        0.0265
     46 H          -6.4308   -0.4043    1.1020 H       1  UNL1        0.0265
     47 H          -7.8623   -0.8031   -1.1032 H       1  UNL1        0.0265
     48 H          -6.5765   -2.0412   -0.6585 H       1  UNL1        0.0265
     49 H          -6.5640   -1.3531   -3.0740 H       1  UNL1        0.0265
     50 H          -6.1351    0.2941   -2.5195 H       1  UNL1        0.0265
     51 H          -4.6698   -2.3713   -2.3557 H       1  UNL1        0.0268
     52 H          -4.0610   -0.7913   -2.9125 H       1  UNL1        0.0268
     53 H          -1.6644    1.5038    1.1159 H       1  UNL1        0.0366
     54 H          -0.2055    2.3613    0.5060 H       1  UNL1        0.0366
     55 H          -0.8524    3.2080    2.9272 H       1  UNL1        0.1822
     56 H           0.5676    3.3593    4.6641 H       1  UNL1        0.2414
@<TRIPOS>BOND
     1     1     2    1
     2     2     3    1
     3     2     4    1
     4     4     5   am
     5     5     6    2
     6     5     7    1
     7     7     8   ar
     8     8     9   ar
     9     9    10   ar
    10    10    11    1
    11    11    12    1
    12    12    13    1
    13    13    14    1
    14    14    15    1
    15    15    16    1
    16    16    17    1
    17    17    18    1
    18    18    19    1
    19    19    20    1
    20    11    21    1
    21    21    22    1
    22    22    23    2
    23    22    24   am
    24    24    25    1
    25    10    26   ar
    26    26     7   ar
    27    20    15    1
    28     1    27    1
    29     1    28    1
    30     1    29    1
    31     2    30    1
    32     3    31    1
    33     3    32    1
    34     3    33    1
    35     4    34    1
    36    11    35    1
    37    12    36    1
    38    12    37    1
    39    13    38    1
    40    13    39    1
    41    14    40    1
    42    14    41    1
    43    15    42    1
    44    16    43    1
    45    16    44    1
    46    17    45    1
    47    17    46    1
    48    18    47    1
    49    18    48    1
    50    19    49    1
    51    19    50    1
    52    20    51    1
    53    20    52    1
    54    21    53    1
    55    21    54    1
    56    24    55    1
    57    25    56    1
