@<TRIPOS>MOLECULE
*****
 48 51 0 0 0
SMALL
GASTEIGER

@<TRIPOS>ATOM
      1 N           1.3454    3.0313    1.1290 N.1     1  UNL1       -0.1907
      2 C           0.6182    2.1655    0.9964 C.1     1  UNL1        0.1032
      3 C          -0.3133    1.0858    0.8456 C.ar    1  UNL1        0.0994
      4 C          -1.4694    1.2958    0.1540 C.ar    1  UNL1        0.0049
      5 C          -1.8886    2.5886   -0.3911 C.ar    1  UNL1       -0.0165
      6 C          -1.7844    3.7232    0.3788 C.ar    1  UNL1       -0.0540
      7 C          -2.1858    4.9553   -0.1203 C.ar    1  UNL1       -0.0612
      8 C          -2.7024    5.0832   -1.4057 C.ar    1  UNL1       -0.0617
      9 C          -2.8034    3.9442   -2.1701 C.ar    1  UNL1       -0.0612
     10 C          -2.3945    2.7106   -1.6513 C.ar    1  UNL1       -0.0540
     11 C          -2.3125    0.1879   -0.0356 C.ar    1  UNL1       -0.0266
     12 C          -1.9536   -1.0528    0.4731 C.ar    1  UNL1        0.0738
     13 C          -2.8215   -2.1939    0.2407 C.ar    1  UNL1        0.0004
     14 C          -2.4483   -3.4308    0.7101 C.ar    1  UNL1       -0.0526
     15 C          -3.2196   -4.5755    0.5269 C.ar    1  UNL1       -0.0611
     16 C          -4.4222   -4.4782   -0.1580 C.ar    1  UNL1       -0.0617
     17 C          -4.8049   -3.2559   -0.6281 C.ar    1  UNL1       -0.0611
     18 C          -4.0219   -2.1307   -0.4350 C.ar    1  UNL1       -0.0526
     19 N          -0.7956   -1.1621    1.1429 N.ar    1  UNL1       -0.2305
     20 C           0.0459   -0.1494    1.3568 C.ar    1  UNL1        0.1429
     21 N           1.2210   -0.3619    2.1117 N.am    1  UNL1       -0.2805
     22 C           2.5260   -0.5146    1.6275 C.2     1  UNL1        0.1399
     23 S           3.7475   -0.7623    2.6646 S.2     1  UNL1       -0.0182
     24 N           2.7885   -0.4296    0.2439 N.am    1  UNL1       -0.2966
     25 C           4.1029   -0.5863   -0.2987 C.ar    1  UNL1        0.0326
     26 C           4.9004   -1.6148    0.1455 C.ar    1  UNL1       -0.0405
     27 C           6.1863   -1.7717   -0.3363 C.ar    1  UNL1       -0.0600
     28 C           6.7316   -0.9243   -1.2723 C.ar    1  UNL1       -0.0616
     29 C           5.9383    0.1049   -1.7203 C.ar    1  UNL1       -0.0600
     30 C           4.6321    0.2770   -1.2393 C.ar    1  UNL1       -0.0405
     31 H          -1.3810    3.6369    1.3855 H       1  UNL1        0.0624
     32 H          -2.1056    5.8466    0.4827 H       1  UNL1        0.0618
     33 H          -3.0049    6.0579   -1.7643 H       1  UNL1        0.0618
     34 H          -3.2025    4.0454   -3.1675 H       1  UNL1        0.0618
     35 H          -2.4815    1.8346   -2.2662 H       1  UNL1        0.0624
     36 H          -3.2250    0.3661   -0.5855 H       1  UNL1        0.0645
     37 H          -1.5080   -3.5804    1.2618 H       1  UNL1        0.0624
     38 H          -2.9277   -5.5465    0.8920 H       1  UNL1        0.0618
     39 H          -5.0521   -5.3394   -0.3265 H       1  UNL1        0.0618
     40 H          -5.7387   -3.1126   -1.1718 H       1  UNL1        0.0618
     41 H          -4.3866   -1.2073   -0.8330 H       1  UNL1        0.0624
     42 H           1.1090   -0.4191    3.1786 H       1  UNL1        0.1553
     43 H           2.0133   -0.2480   -0.4295 H       1  UNL1        0.1538
     44 H           4.5105   -2.3305    0.8861 H       1  UNL1        0.0636
     45 H           6.8265   -2.5792    0.0077 H       1  UNL1        0.0618
     46 H           7.7437   -1.0626   -1.6400 H       1  UNL1        0.0618
     47 H           6.3468    0.7992   -2.4698 H       1  UNL1        0.0618
     48 H           4.0218    1.0803   -1.5930 H       1  UNL1        0.0636
@<TRIPOS>BOND
     1     1     2    3
     2     2     3    1
     3     3     4   ar
     4     4     5    1
     5     5     6   ar
     6     6     7   ar
     7     7     8   ar
     8     8     9   ar
     9     9    10   ar
    10     4    11   ar
    11    11    12   ar
    12    12    13    1
    13    13    14   ar
    14    14    15   ar
    15    15    16   ar
    16    16    17   ar
    17    17    18   ar
    18    12    19   ar
    19    19    20   ar
    20    20    21    1
    21    21    22    1
    22    22    23    2
    23    22    24    1
    24    24    25    1
    25    25    26   ar
    26    26    27   ar
    27    27    28   ar
    28    28    29   ar
    29    29    30   ar
    30    20     3   ar
    31    30    25   ar
    32    10     5   ar
    33    18    13   ar
    34     6    31    1
    35     7    32    1
    36     8    33    1
    37     9    34    1
    38    10    35    1
    39    11    36    1
    40    14    37    1
    41    15    38    1
    42    16    39    1
    43    17    40    1
    44    18    41    1
    45    21    42    1
    46    24    43    1
    47    26    44    1
    48    27    45    1
    49    28    46    1
    50    29    47    1
    51    30    48    1
