
     RDKit          3D

 48 51  0  0  0  0  0  0  0  0999 V2000
    1.3454    3.0313    1.1290 N   0  0  0  0  0  0  0  0  0  0  0  0
    0.6182    2.1655    0.9964 C   0  0  0  0  0  0  0  0  0  0  0  0
   -0.3133    1.0858    0.8456 C   0  0  0  0  0  0  0  0  0  0  0  0
   -1.4694    1.2958    0.1540 C   0  0  0  0  0  0  0  0  0  0  0  0
   -1.8886    2.5886   -0.3911 C   0  0  0  0  0  0  0  0  0  0  0  0
   -1.7844    3.7232    0.3788 C   0  0  0  0  0  0  0  0  0  0  0  0
   -2.1858    4.9553   -0.1203 C   0  0  0  0  0  0  0  0  0  0  0  0
   -2.7024    5.0832   -1.4057 C   0  0  0  0  0  0  0  0  0  0  0  0
   -2.8034    3.9442   -2.1701 C   0  0  0  0  0  0  0  0  0  0  0  0
   -2.3945    2.7106   -1.6513 C   0  0  0  0  0  0  0  0  0  0  0  0
   -2.3125    0.1879   -0.0356 C   0  0  0  0  0  0  0  0  0  0  0  0
   -1.9536   -1.0528    0.4731 C   0  0  0  0  0  0  0  0  0  0  0  0
   -2.8215   -2.1939    0.2407 C   0  0  0  0  0  0  0  0  0  0  0  0
   -2.4483   -3.4308    0.7101 C   0  0  0  0  0  0  0  0  0  0  0  0
   -3.2196   -4.5755    0.5269 C   0  0  0  0  0  0  0  0  0  0  0  0
   -4.4222   -4.4782   -0.1580 C   0  0  0  0  0  0  0  0  0  0  0  0
   -4.8049   -3.2559   -0.6281 C   0  0  0  0  0  0  0  0  0  0  0  0
   -4.0219   -2.1307   -0.4350 C   0  0  0  0  0  0  0  0  0  0  0  0
   -0.7956   -1.1621    1.1429 N   0  0  0  0  0  0  0  0  0  0  0  0
    0.0459   -0.1494    1.3568 C   0  0  0  0  0  0  0  0  0  0  0  0
    1.2210   -0.3619    2.1117 N   0  0  0  0  0  0  0  0  0  0  0  0
    2.5260   -0.5146    1.6275 C   0  0  0  0  0  0  0  0  0  0  0  0
    3.7475   -0.7623    2.6646 S   0  0  0  0  0  0  0  0  0  0  0  0
    2.7885   -0.4296    0.2439 N   0  0  0  0  0  0  0  0  0  0  0  0
    4.1029   -0.5863   -0.2987 C   0  0  0  0  0  0  0  0  0  0  0  0
    4.9004   -1.6148    0.1455 C   0  0  0  0  0  0  0  0  0  0  0  0
    6.1863   -1.7717   -0.3363 C   0  0  0  0  0  0  0  0  0  0  0  0
    6.7316   -0.9243   -1.2723 C   0  0  0  0  0  0  0  0  0  0  0  0
    5.9383    0.1049   -1.7203 C   0  0  0  0  0  0  0  0  0  0  0  0
    4.6321    0.2770   -1.2393 C   0  0  0  0  0  0  0  0  0  0  0  0
   -1.3810    3.6369    1.3855 H   0  0  0  0  0  0  0  0  0  0  0  0
   -2.1056    5.8466    0.4827 H   0  0  0  0  0  0  0  0  0  0  0  0
   -3.0049    6.0579   -1.7643 H   0  0  0  0  0  0  0  0  0  0  0  0
   -3.2025    4.0454   -3.1675 H   0  0  0  0  0  0  0  0  0  0  0  0
   -2.4815    1.8346   -2.2662 H   0  0  0  0  0  0  0  0  0  0  0  0
   -3.2250    0.3661   -0.5855 H   0  0  0  0  0  0  0  0  0  0  0  0
   -1.5080   -3.5804    1.2618 H   0  0  0  0  0  0  0  0  0  0  0  0
   -2.9277   -5.5465    0.8920 H   0  0  0  0  0  0  0  0  0  0  0  0
   -5.0521   -5.3394   -0.3265 H   0  0  0  0  0  0  0  0  0  0  0  0
   -5.7387   -3.1126   -1.1718 H   0  0  0  0  0  0  0  0  0  0  0  0
   -4.3866   -1.2073   -0.8330 H   0  0  0  0  0  0  0  0  0  0  0  0
    1.1090   -0.4191    3.1786 H   0  0  0  0  0  0  0  0  0  0  0  0
    2.0133   -0.2480   -0.4295 H   0  0  0  0  0  0  0  0  0  0  0  0
    4.5105   -2.3305    0.8861 H   0  0  0  0  0  0  0  0  0  0  0  0
    6.8265   -2.5792    0.0077 H   0  0  0  0  0  0  0  0  0  0  0  0
    7.7437   -1.0626   -1.6400 H   0  0  0  0  0  0  0  0  0  0  0  0
    6.3468    0.7992   -2.4698 H   0  0  0  0  0  0  0  0  0  0  0  0
    4.0218    1.0803   -1.5930 H   0  0  0  0  0  0  0  0  0  0  0  0
  1  2  3  0
  2  3  1  0
  3  4  2  0
  4  5  1  0
  5  6  2  0
  6  7  1  0
  7  8  2  0
  8  9  1  0
  9 10  2  0
  4 11  1  0
 11 12  2  0
 12 13  1  0
 13 14  2  0
 14 15  1  0
 15 16  2  0
 16 17  1  0
 17 18  2  0
 12 19  1  0
 19 20  2  0
 20 21  1  0
 21 22  1  0
 22 23  2  0
 22 24  1  0
 24 25  1  0
 25 26  2  0
 26 27  1  0
 27 28  2  0
 28 29  1  0
 29 30  2  0
 20  3  1  0
 30 25  1  0
 10  5  1  0
 18 13  1  0
  6 31  1  0
  7 32  1  0
  8 33  1  0
  9 34  1  0
 10 35  1  0
 11 36  1  0
 14 37  1  0
 15 38  1  0
 16 39  1  0
 17 40  1  0
 18 41  1  0
 21 42  1  0
 24 43  1  0
 26 44  1  0
 27 45  1  0
 28 46  1  0
 29 47  1  0
 30 48  1  0
M  END
$$$$
