@<TRIPOS>MOLECULE
*****
 45 49 0 0 0
SMALL
GASTEIGER

@<TRIPOS>ATOM
      1 F           6.2443   -2.3205   -0.4165 F       1  UNL1       -0.2040
      2 C           4.9003   -2.1698   -0.3303 C.ar    1  UNL1        0.1417
      3 C           4.3080   -2.4682    0.8847 C.ar    1  UNL1       -0.0244
      4 C           2.9295   -2.3253    1.0028 C.ar    1  UNL1       -0.0497
      5 C           2.1666   -1.8985   -0.0566 C.ar    1  UNL1        0.0040
      6 C           0.7375   -1.7817    0.1046 C.ar    1  UNL1        0.0968
      7 N          -0.0881   -2.8717    0.0946 N.ar    1  UNL1       -0.2351
      8 C          -1.3618   -2.4610    0.2406 C.ar    1  UNL1        0.0973
      9 N          -1.3404   -1.1363    0.3412 N.ar    1  UNL1       -0.3263
     10 C          -2.4697   -0.2518    0.4991 C.3     1  UNL1        0.0415
     11 C          -3.5901   -0.8368    1.3029 C.3     1  UNL1       -0.0265
     12 C          -4.6368   -1.1927    0.2434 C.3     1  UNL1        0.0127
     13 C          -4.5217    0.0262   -0.6465 C.3     1  UNL1        0.2509
     14 F          -4.9681    1.1034    0.0812 F       1  UNL1       -0.2056
     15 F          -5.2241   -0.1361   -1.8236 F       1  UNL1       -0.2056
     16 C          -3.0478    0.1443   -0.8611 C.3     1  UNL1        0.0316
     17 C          -0.0602   -0.6735    0.2627 C.ar    1  UNL1        0.0781
     18 C           0.3624    0.7170    0.3387 C.ar    1  UNL1        0.0172
     19 C           0.1837    1.4228    1.5356 C.ar    1  UNL1       -0.0477
     20 C           0.5542    2.7455    1.6485 C.ar    1  UNL1       -0.0182
     21 C           1.1112    3.3839    0.5632 C.ar    1  UNL1        0.1375
     22 N           1.5647    4.6551    0.3754 N.ar    1  UNL1       -0.2361
     23 C           2.0165    4.7834   -0.8734 C.ar    1  UNL1        0.0464
     24 C           1.8434    3.5636   -1.4859 C.ar    1  UNL1        0.0293
     25 N           1.2898    2.7221   -0.5922 N.ar    1  UNL1       -0.3060
     26 C           0.9243    1.4192   -0.7020 C.ar    1  UNL1        0.0204
     27 C           2.8024   -1.6133   -1.2465 C.ar    1  UNL1       -0.0313
     28 C           4.1618   -1.7403   -1.4094 C.ar    1  UNL1        0.0767
     29 CL          4.9779   -1.3823   -2.9174 Cl      1  UNL1       -0.0806
     30 H           4.8852   -2.8023    1.7300 H       1  UNL1        0.0647
     31 H           2.5142   -2.5741    1.9844 H       1  UNL1        0.0625
     32 H          -2.2403   -3.0913    0.2704 H       1  UNL1        0.1029
     33 H          -2.1563    0.6932    0.9717 H       1  UNL1        0.0530
     34 H          -3.3259   -1.6872    1.9258 H       1  UNL1        0.0287
     35 H          -4.0630   -0.0649    1.9459 H       1  UNL1        0.0287
     36 H          -5.6490   -1.2913    0.6848 H       1  UNL1        0.0323
     37 H          -4.3142   -2.0549   -0.3403 H       1  UNL1        0.0323
     38 H          -2.7254   -0.6289   -1.5885 H       1  UNL1        0.0343
     39 H          -2.7250    1.1674   -1.1550 H       1  UNL1        0.0343
     40 H          -0.2467    0.9564    2.4083 H       1  UNL1        0.0626
     41 H           0.4189    3.3059    2.5766 H       1  UNL1        0.0654
     42 H           2.4343    5.6933   -1.2930 H       1  UNL1        0.0845
     43 H           2.1032    3.3082   -2.5134 H       1  UNL1        0.0829
     44 H           1.0843    0.9150   -1.6454 H       1  UNL1        0.0820
     45 H           2.2359   -1.2711   -2.1199 H       1  UNL1        0.0640
@<TRIPOS>BOND
     1     1     2    1
     2     2     3   ar
     3     3     4   ar
     4     4     5   ar
     5     5     6    1
     6     6     7   ar
     7     7     8   ar
     8     8     9   ar
     9     9    10    1
    10    10    11    1
    11    11    12    1
    12    12    13    1
    13    13    14    1
    14    13    15    1
    15    13    16    1
    16     9    17   ar
    17    17    18    1
    18    18    19   ar
    19    19    20   ar
    20    20    21   ar
    21    21    22   ar
    22    22    23   ar
    23    23    24   ar
    24    24    25   ar
    25    25    26   ar
    26     5    27   ar
    27    27    28   ar
    28    28    29    1
    29    28     2   ar
    30    17     6   ar
    31    26    18   ar
    32    16    10    1
    33    25    21   ar
    34     3    30    1
    35     4    31    1
    36     8    32    1
    37    10    33    1
    38    11    34    1
    39    11    35    1
    40    12    36    1
    41    12    37    1
    42    16    38    1
    43    16    39    1
    44    19    40    1
    45    20    41    1
    46    23    42    1
    47    24    43    1
    48    26    44    1
    49    27    45    1
