
     RDKit          3D

 45 49  0  0  0  0  0  0  0  0999 V2000
    6.2443   -2.3205   -0.4165 F   0  0  0  0  0  0  0  0  0  0  0  0
    4.9003   -2.1698   -0.3303 C   0  0  0  0  0  0  0  0  0  0  0  0
    4.3080   -2.4682    0.8847 C   0  0  0  0  0  0  0  0  0  0  0  0
    2.9295   -2.3253    1.0028 C   0  0  0  0  0  0  0  0  0  0  0  0
    2.1666   -1.8985   -0.0566 C   0  0  0  0  0  0  0  0  0  0  0  0
    0.7375   -1.7817    0.1046 C   0  0  0  0  0  0  0  0  0  0  0  0
   -0.0881   -2.8717    0.0946 N   0  0  0  0  0  0  0  0  0  0  0  0
   -1.3618   -2.4610    0.2406 C   0  0  0  0  0  0  0  0  0  0  0  0
   -1.3404   -1.1363    0.3412 N   0  0  0  0  0  0  0  0  0  0  0  0
   -2.4697   -0.2518    0.4991 C   0  0  2  0  0  0  0  0  0  0  0  0
   -3.5901   -0.8368    1.3029 C   0  0  0  0  0  0  0  0  0  0  0  0
   -4.6368   -1.1927    0.2434 C   0  0  0  0  0  0  0  0  0  0  0  0
   -4.5217    0.0262   -0.6465 C   0  0  0  0  0  0  0  0  0  0  0  0
   -4.9681    1.1034    0.0812 F   0  0  0  0  0  0  0  0  0  0  0  0
   -5.2241   -0.1361   -1.8236 F   0  0  0  0  0  0  0  0  0  0  0  0
   -3.0478    0.1443   -0.8611 C   0  0  0  0  0  0  0  0  0  0  0  0
   -0.0602   -0.6735    0.2627 C   0  0  0  0  0  0  0  0  0  0  0  0
    0.3624    0.7170    0.3387 C   0  0  0  0  0  0  0  0  0  0  0  0
    0.1837    1.4228    1.5356 C   0  0  0  0  0  0  0  0  0  0  0  0
    0.5542    2.7455    1.6485 C   0  0  0  0  0  0  0  0  0  0  0  0
    1.1112    3.3839    0.5632 C   0  0  0  0  0  0  0  0  0  0  0  0
    1.5647    4.6551    0.3754 N   0  0  0  0  0  0  0  0  0  0  0  0
    2.0165    4.7834   -0.8734 C   0  0  0  0  0  0  0  0  0  0  0  0
    1.8434    3.5636   -1.4859 C   0  0  0  0  0  0  0  0  0  0  0  0
    1.2898    2.7221   -0.5922 N   0  0  0  0  0  0  0  0  0  0  0  0
    0.9243    1.4192   -0.7020 C   0  0  0  0  0  0  0  0  0  0  0  0
    2.8024   -1.6133   -1.2465 C   0  0  0  0  0  0  0  0  0  0  0  0
    4.1618   -1.7403   -1.4094 C   0  0  0  0  0  0  0  0  0  0  0  0
    4.9779   -1.3823   -2.9174 Cl  0  0  0  0  0  0  0  0  0  0  0  0
    4.8852   -2.8023    1.7300 H   0  0  0  0  0  0  0  0  0  0  0  0
    2.5142   -2.5741    1.9844 H   0  0  0  0  0  0  0  0  0  0  0  0
   -2.2403   -3.0913    0.2704 H   0  0  0  0  0  0  0  0  0  0  0  0
   -2.1563    0.6932    0.9717 H   0  0  0  0  0  0  0  0  0  0  0  0
   -3.3259   -1.6872    1.9258 H   0  0  0  0  0  0  0  0  0  0  0  0
   -4.0630   -0.0649    1.9459 H   0  0  0  0  0  0  0  0  0  0  0  0
   -5.6490   -1.2913    0.6848 H   0  0  0  0  0  0  0  0  0  0  0  0
   -4.3142   -2.0549   -0.3403 H   0  0  0  0  0  0  0  0  0  0  0  0
   -2.7254   -0.6289   -1.5885 H   0  0  0  0  0  0  0  0  0  0  0  0
   -2.7250    1.1674   -1.1550 H   0  0  0  0  0  0  0  0  0  0  0  0
   -0.2467    0.9564    2.4083 H   0  0  0  0  0  0  0  0  0  0  0  0
    0.4189    3.3059    2.5766 H   0  0  0  0  0  0  0  0  0  0  0  0
    2.4343    5.6933   -1.2930 H   0  0  0  0  0  0  0  0  0  0  0  0
    2.1032    3.3082   -2.5134 H   0  0  0  0  0  0  0  0  0  0  0  0
    1.0843    0.9150   -1.6454 H   0  0  0  0  0  0  0  0  0  0  0  0
    2.2359   -1.2711   -2.1199 H   0  0  0  0  0  0  0  0  0  0  0  0
  1  2  1  0
  2  3  2  0
  3  4  1  0
  4  5  2  0
  5  6  1  0
  6  7  1  0
  7  8  2  0
  8  9  1  0
  9 10  1  0
 10 11  1  0
 11 12  1  0
 12 13  1  0
 13 14  1  0
 13 15  1  0
 13 16  1  0
  9 17  1  0
 17 18  1  0
 18 19  1  0
 19 20  2  0
 20 21  1  0
 21 22  2  0
 22 23  1  0
 23 24  2  0
 24 25  1  0
 25 26  1  0
  5 27  1  0
 27 28  2  0
 28 29  1  0
 28  2  1  0
 17  6  2  0
 26 18  2  0
 16 10  1  0
 25 21  1  0
  3 30  1  0
  4 31  1  0
  8 32  1  0
 10 33  1  1
 11 34  1  0
 11 35  1  0
 12 36  1  0
 12 37  1  0
 16 38  1  0
 16 39  1  0
 19 40  1  0
 20 41  1  0
 23 42  1  0
 24 43  1  0
 26 44  1  0
 27 45  1  0
M  END
$$$$
