@<TRIPOS>MOLECULE
*****
 64 67 0 0 0
SMALL
GASTEIGER

@<TRIPOS>ATOM
      1 C           7.6621   -0.9756    0.6843 C.3     1  UNL1        0.1968
      2 O           8.7858   -0.8586    1.4859 O.3     1  UNL1       -0.3641
      3 O           6.5114   -0.4539    1.2525 O.3     1  UNL1       -0.3397
      4 C           5.8683    0.3132    0.3126 C.3     1  UNL1        0.1150
      5 C           4.3625    0.2725    0.3956 C.3     1  UNL1        0.0879
      6 O           3.8768   -1.0003    0.2273 O.3     1  UNL1       -0.2837
      7 P           2.1988   -0.9567    0.3329 P.3     1  UNL1        0.4835
      8 O           1.6707   -0.5826    1.8924 O.3     1  UNL1       -0.3022
      9 O           1.6919   -2.3306   -0.0267 O.2     1  UNL1       -0.2269
     10 O           1.6255    0.2222   -0.7196 O.3     1  UNL1       -0.1861
     11 P           0.0940   -0.1394   -1.3377 P.3     1  UNL1        0.4835
     12 O           0.1835   -1.6484   -2.0844 O.3     1  UNL1       -0.3022
     13 O          -0.2020    0.8811   -2.4190 O.2     1  UNL1       -0.2269
     14 O          -1.0870   -0.0840   -0.1337 O.3     1  UNL1       -0.2837
     15 C          -2.3322    0.2803   -0.6607 C.3     1  UNL1        0.0879
     16 C          -3.3299    0.3106    0.4525 C.3     1  UNL1        0.1134
     17 O          -4.6268    0.6693    0.0258 O.3     1  UNL1       -0.3456
     18 C          -5.3275    0.5453    1.2214 C.3     1  UNL1        0.1667
     19 N          -6.7571    0.4917    1.0507 N.ar    1  UNL1       -0.2855
     20 C          -7.6159    0.7576    2.0626 C.ar    1  UNL1        0.1004
     21 N          -8.8642    0.6362    1.6349 N.ar    1  UNL1       -0.2306
     22 C          -8.8298    0.2884    0.3341 C.ar    1  UNL1        0.1473
     23 C          -9.8585    0.0484   -0.5415 C.ar    1  UNL1        0.1472
     24 N         -11.2098    0.1661   -0.0731 N.pl3   1  UNL1       -0.3413
     25 N          -9.5063   -0.2842   -1.7917 N.ar    1  UNL1       -0.2188
     26 C          -8.1910   -0.3674   -2.1301 C.ar    1  UNL1        0.1205
     27 N          -7.1656   -0.1293   -1.2616 N.ar    1  UNL1       -0.2159
     28 C          -7.4929    0.2019   -0.0169 C.ar    1  UNL1        0.1674
     29 C          -4.8788   -0.7599    1.8446 C.3     1  UNL1        0.1285
     30 O          -4.4434   -0.4536    3.1432 O.3     1  UNL1       -0.3847
     31 C          -3.6166   -1.0602    1.0260 C.3     1  UNL1        0.1135
     32 O          -2.5992   -1.5351    1.8209 O.3     1  UNL1       -0.3864
     33 C           6.3520   -0.1682   -1.0614 C.3     1  UNL1        0.1251
     34 O           6.2732    0.8775   -1.9527 O.3     1  UNL1       -0.3853
     35 C           7.8157   -0.4361   -0.6982 C.3     1  UNL1        0.1814
     36 O           8.4299    0.8383   -0.7637 O.3     1  UNL1       -0.4537
     37 C           9.4826    1.1037   -1.6348 C.2     1  UNL1        0.3044
     38 C          10.0401    2.4935   -1.6021 C.3     1  UNL1        0.0332
     39 O           9.8038    0.0984   -2.3300 O.2     1  UNL1       -0.2512
     40 H           7.4704   -2.0772    0.5725 H       1  UNL1        0.0947
     41 H           8.5014   -1.1498    2.3900 H       1  UNL1        0.2126
     42 H           6.2205    1.3589    0.4274 H       1  UNL1        0.0647
     43 H           4.0680    0.7560    1.3373 H       1  UNL1        0.0592
     44 H           3.9921    0.9359   -0.4175 H       1  UNL1        0.0592
     45 H           2.3102   -0.0322    2.4040 H       1  UNL1        0.2220
     46 H           0.3585   -1.5871   -3.0643 H       1  UNL1        0.2220
     47 H          -2.2044    1.3264   -1.0072 H       1  UNL1        0.0592
     48 H          -2.6539   -0.3288   -1.5047 H       1  UNL1        0.0592
     49 H          -2.9857    0.9390    1.2774 H       1  UNL1        0.0647
     50 H          -5.0992    1.4266    1.8674 H       1  UNL1        0.0866
     51 H          -7.3402    1.0340    3.0902 H       1  UNL1        0.1030
     52 H         -11.4493   -0.1006    0.9043 H       1  UNL1        0.1438
     53 H         -12.0264    0.4997   -0.6065 H       1  UNL1        0.1438
     54 H          -8.0447   -0.6444   -3.1685 H       1  UNL1        0.1048
     55 H          -5.6173   -1.5604    1.8023 H       1  UNL1        0.0665
     56 H          -4.1581    0.5003    3.1914 H       1  UNL1        0.2101
     57 H          -3.8934   -1.8056    0.2394 H       1  UNL1        0.0647
     58 H          -2.4689   -0.9196    2.5827 H       1  UNL1        0.2100
     59 H           5.8230   -1.0856   -1.3570 H       1  UNL1        0.0659
     60 H           5.8046    0.5580   -2.7561 H       1  UNL1        0.2101
     61 H           8.2702   -1.1578   -1.4049 H       1  UNL1        0.0813
     62 H          10.8113    2.6481   -2.3570 H       1  UNL1        0.0342
     63 H           9.1922    3.1735   -1.8375 H       1  UNL1        0.0342
     64 H          10.3247    2.7116   -0.5658 H       1  UNL1        0.0342
@<TRIPOS>BOND
     1     1     2    1
     2     1     3    1
     3     3     4    1
     4     4     5    1
     5     5     6    1
     6     6     7    1
     7     7     8    1
     8     7     9    2
     9     7    10    1
    10    10    11    1
    11    11    12    1
    12    11    13    2
    13    11    14    1
    14    14    15    1
    15    15    16    1
    16    16    17    1
    17    17    18    1
    18    18    19    1
    19    19    20   ar
    20    20    21   ar
    21    21    22   ar
    22    22    23   ar
    23    23    24    1
    24    23    25   ar
    25    25    26   ar
    26    26    27   ar
    27    27    28   ar
    28    18    29    1
    29    29    30    1
    30    29    31    1
    31    31    32    1
    32     4    33    1
    33    33    34    1
    34    33    35    1
    35    35    36    1
    36    36    37    1
    37    37    38    1
    38    37    39    2
    39    35     1    1
    40    31    16    1
    41    28    19   ar
    42    28    22   ar
    43     1    40    1
    44     2    41    1
    45     4    42    1
    46     5    43    1
    47     5    44    1
    48     8    45    1
    49    12    46    1
    50    15    47    1
    51    15    48    1
    52    16    49    1
    53    18    50    1
    54    20    51    1
    55    24    52    1
    56    24    53    1
    57    26    54    1
    58    29    55    1
    59    30    56    1
    60    31    57    1
    61    32    58    1
    62    33    59    1
    63    34    60    1
    64    35    61    1
    65    38    62    1
    66    38    63    1
    67    38    64    1
