@<TRIPOS>MOLECULE
*****
 71 74 0 0 0
SMALL
GASTEIGER

@<TRIPOS>ATOM
      1 C           7.7808    0.1104    2.1318 C.3     1  UNL1       -0.0650
      2 C           6.7292    0.5496    1.1559 C.3     1  UNL1       -0.0530
      3 C           6.2822   -0.4061    0.1372 C.3     1  UNL1       -0.0389
      4 C           7.3377   -0.9349   -0.8116 C.3     1  UNL1       -0.0530
      5 C           8.4157   -1.6747   -0.1284 C.3     1  UNL1       -0.0650
      6 C           5.2138    0.1691   -0.7389 C.3     1  UNL1       -0.0211
      7 C           3.9505    0.6054   -0.0882 C.3     1  UNL1        0.0692
      8 O           4.1074    1.6159    0.8545 O.3     1  UNL1       -0.3885
      9 C           3.1079    1.2421   -1.2033 C.3     1  UNL1       -0.0080
     10 C           1.6255    1.1349   -0.9298 C.3     1  UNL1        0.0187
     11 N           1.2474   -0.2457   -0.7819 N.am    1  UNL1       -0.2852
     12 C          -0.1272   -0.6335   -0.8818 C.2     1  UNL1        0.3065
     13 O          -0.4485   -1.8443   -0.7560 O.2     1  UNL1       -0.2523
     14 N          -1.1484    0.3157   -1.1205 N.am    1  UNL1       -0.2691
     15 C          -2.5252    0.0625   -1.2393 C.ar    1  UNL1        0.0417
     16 C          -3.1462   -1.1432   -1.1531 C.ar    1  UNL1        0.0022
     17 C          -4.5163   -1.3213   -1.2803 C.ar    1  UNL1        0.1337
     18 O          -5.0501   -2.5961   -1.1756 O.3     1  UNL1       -0.4557
     19 C          -5.4363   -3.0355    0.0817 C.ar    1  UNL1        0.1313
     20 C          -5.9593   -4.2944    0.1853 C.ar    1  UNL1       -0.0012
     21 C          -6.3579   -4.7813    1.4026 C.ar    1  UNL1        0.0310
     22 N          -6.2434   -4.0355    2.5117 N.ar    1  UNL1       -0.2630
     23 C          -5.7339   -2.7946    2.4455 C.ar    1  UNL1        0.0310
     24 C          -5.3265   -2.2868    1.2265 C.ar    1  UNL1       -0.0012
     25 C          -5.2926   -0.2269   -1.5052 C.ar    1  UNL1        0.0231
     26 C          -4.7414    1.0238   -1.6048 C.ar    1  UNL1        0.1337
     27 O          -5.4989    2.1614   -1.8331 O.3     1  UNL1       -0.4558
     28 C          -5.9844    2.8336   -0.7018 C.ar    1  UNL1        0.1286
     29 C          -6.7364    3.9707   -0.9348 C.ar    1  UNL1       -0.0166
     30 C          -7.2238    4.6469    0.1643 C.ar    1  UNL1       -0.0230
     31 C          -6.9701    4.2049    1.4464 C.ar    1  UNL1        0.1236
     32 F          -7.4578    4.8827    2.5208 F       1  UNL1       -0.2055
     33 C          -6.2209    3.0728    1.6603 C.ar    1  UNL1       -0.0230
     34 C          -5.7324    2.3939    0.5819 C.ar    1  UNL1       -0.0166
     35 C          -3.3671    1.1559   -1.4713 C.ar    1  UNL1        0.0022
     36 C           2.2910   -1.2058   -0.5292 C.3     1  UNL1        0.0187
     37 C           3.2279   -0.5833    0.5061 C.3     1  UNL1       -0.0080
     38 H           7.7990    0.9548    2.9098 H       1  UNL1        0.0230
     39 H           7.5333   -0.7710    2.7296 H       1  UNL1        0.0230
     40 H           8.7984    0.0684    1.7729 H       1  UNL1        0.0230
     41 H           7.0181    1.5353    0.7628 H       1  UNL1        0.0265
     42 H           5.8303    0.7669    1.8248 H       1  UNL1        0.0265
     43 H           5.8616   -1.3460    0.6188 H       1  UNL1        0.0301
     44 H           7.6905   -0.1482   -1.5124 H       1  UNL1        0.0265
     45 H           6.7896   -1.6689   -1.4745 H       1  UNL1        0.0265
     46 H           8.6842   -2.6410   -0.6877 H       1  UNL1        0.0230
     47 H           9.3515   -1.0709   -0.1838 H       1  UNL1        0.0230
     48 H           8.1522   -2.0323    0.8696 H       1  UNL1        0.0230
     49 H           4.9782   -0.5798   -1.5467 H       1  UNL1        0.0296
     50 H           5.7148    1.0224   -1.2952 H       1  UNL1        0.0296
     51 H           3.2994    1.6386    1.4065 H       1  UNL1        0.2102
     52 H           3.3029    0.7227   -2.1614 H       1  UNL1        0.0308
     53 H           3.4234    2.2793   -1.2867 H       1  UNL1        0.0308
     54 H           1.1309    1.4859   -1.8840 H       1  UNL1        0.0466
     55 H           1.2629    1.7919   -0.1420 H       1  UNL1        0.0466
     56 H          -0.7749    1.3272   -1.2123 H       1  UNL1        0.1564
     57 H          -2.5829   -2.0206   -0.9793 H       1  UNL1        0.0673
     58 H          -6.0765   -4.9428   -0.6756 H       1  UNL1        0.0669
     59 H          -6.7812   -5.7931    1.5046 H       1  UNL1        0.0830
     60 H          -5.6413   -2.1888    3.3485 H       1  UNL1        0.0830
     61 H          -4.9075   -1.2848    1.1268 H       1  UNL1        0.0669
     62 H          -6.3619   -0.3450   -1.6072 H       1  UNL1        0.0691
     63 H          -6.9372    4.3207   -1.9477 H       1  UNL1        0.0655
     64 H          -7.8183    5.5444    0.0089 H       1  UNL1        0.0647
     65 H          -5.9963    2.6886    2.6487 H       1  UNL1        0.0647
     66 H          -5.1288    1.4834    0.7156 H       1  UNL1        0.0655
     67 H          -2.8986    2.1322   -1.5448 H       1  UNL1        0.0673
     68 H           2.8515   -1.3837   -1.4839 H       1  UNL1        0.0466
     69 H           1.9291   -2.1753   -0.1589 H       1  UNL1        0.0466
     70 H           2.5322   -0.1515    1.2809 H       1  UNL1        0.0308
     71 H           3.8992   -1.3270    0.9474 H       1  UNL1        0.0308
@<TRIPOS>BOND
     1     1     2    1
     2     2     3    1
     3     3     4    1
     4     4     5    1
     5     3     6    1
     6     6     7    1
     7     7     8    1
     8     7     9    1
     9     9    10    1
    10    10    11    1
    11    11    12   am
    12    12    13    2
    13    12    14   am
    14    14    15    1
    15    15    16   ar
    16    16    17   ar
    17    17    18    1
    18    18    19    1
    19    19    20   ar
    20    20    21   ar
    21    21    22   ar
    22    22    23   ar
    23    23    24   ar
    24    17    25   ar
    25    25    26   ar
    26    26    27    1
    27    27    28    1
    28    28    29   ar
    29    29    30   ar
    30    30    31   ar
    31    31    32    1
    32    31    33   ar
    33    33    34   ar
    34    26    35   ar
    35    11    36    1
    36    36    37    1
    37    37     7    1
    38    35    15   ar
    39    24    19   ar
    40    34    28   ar
    41     1    38    1
    42     1    39    1
    43     1    40    1
    44     2    41    1
    45     2    42    1
    46     3    43    1
    47     4    44    1
    48     4    45    1
    49     5    46    1
    50     5    47    1
    51     5    48    1
    52     6    49    1
    53     6    50    1
    54     8    51    1
    55     9    52    1
    56     9    53    1
    57    10    54    1
    58    10    55    1
    59    14    56    1
    60    16    57    1
    61    20    58    1
    62    21    59    1
    63    23    60    1
    64    24    61    1
    65    25    62    1
    66    29    63    1
    67    30    64    1
    68    33    65    1
    69    34    66    1
    70    35    67    1
    71    36    68    1
    72    36    69    1
    73    37    70    1
    74    37    71    1
