
     RDKit          3D

 71 74  0  0  0  0  0  0  0  0999 V2000
    7.7808    0.1104    2.1318 C   0  0  0  0  0  0  0  0  0  0  0  0
    6.7292    0.5496    1.1559 C   0  0  0  0  0  0  0  0  0  0  0  0
    6.2822   -0.4061    0.1372 C   0  0  0  0  0  0  0  0  0  0  0  0
    7.3377   -0.9349   -0.8116 C   0  0  0  0  0  0  0  0  0  0  0  0
    8.4157   -1.6747   -0.1284 C   0  0  0  0  0  0  0  0  0  0  0  0
    5.2138    0.1691   -0.7389 C   0  0  0  0  0  0  0  0  0  0  0  0
    3.9505    0.6054   -0.0882 C   0  0  0  0  0  0  0  0  0  0  0  0
    4.1074    1.6159    0.8545 O   0  0  0  0  0  0  0  0  0  0  0  0
    3.1079    1.2421   -1.2033 C   0  0  0  0  0  0  0  0  0  0  0  0
    1.6255    1.1349   -0.9298 C   0  0  0  0  0  0  0  0  0  0  0  0
    1.2474   -0.2457   -0.7819 N   0  0  0  0  0  0  0  0  0  0  0  0
   -0.1272   -0.6335   -0.8818 C   0  0  0  0  0  0  0  0  0  0  0  0
   -0.4485   -1.8443   -0.7560 O   0  0  0  0  0  0  0  0  0  0  0  0
   -1.1484    0.3157   -1.1205 N   0  0  0  0  0  0  0  0  0  0  0  0
   -2.5252    0.0625   -1.2393 C   0  0  0  0  0  0  0  0  0  0  0  0
   -3.1462   -1.1432   -1.1531 C   0  0  0  0  0  0  0  0  0  0  0  0
   -4.5163   -1.3213   -1.2803 C   0  0  0  0  0  0  0  0  0  0  0  0
   -5.0501   -2.5961   -1.1756 O   0  0  0  0  0  0  0  0  0  0  0  0
   -5.4363   -3.0355    0.0817 C   0  0  0  0  0  0  0  0  0  0  0  0
   -5.9593   -4.2944    0.1853 C   0  0  0  0  0  0  0  0  0  0  0  0
   -6.3579   -4.7813    1.4026 C   0  0  0  0  0  0  0  0  0  0  0  0
   -6.2434   -4.0355    2.5117 N   0  0  0  0  0  0  0  0  0  0  0  0
   -5.7339   -2.7946    2.4455 C   0  0  0  0  0  0  0  0  0  0  0  0
   -5.3265   -2.2868    1.2265 C   0  0  0  0  0  0  0  0  0  0  0  0
   -5.2926   -0.2269   -1.5052 C   0  0  0  0  0  0  0  0  0  0  0  0
   -4.7414    1.0238   -1.6048 C   0  0  0  0  0  0  0  0  0  0  0  0
   -5.4989    2.1614   -1.8331 O   0  0  0  0  0  0  0  0  0  0  0  0
   -5.9844    2.8336   -0.7018 C   0  0  0  0  0  0  0  0  0  0  0  0
   -6.7364    3.9707   -0.9348 C   0  0  0  0  0  0  0  0  0  0  0  0
   -7.2238    4.6469    0.1643 C   0  0  0  0  0  0  0  0  0  0  0  0
   -6.9701    4.2049    1.4464 C   0  0  0  0  0  0  0  0  0  0  0  0
   -7.4578    4.8827    2.5208 F   0  0  0  0  0  0  0  0  0  0  0  0
   -6.2209    3.0728    1.6603 C   0  0  0  0  0  0  0  0  0  0  0  0
   -5.7324    2.3939    0.5819 C   0  0  0  0  0  0  0  0  0  0  0  0
   -3.3671    1.1559   -1.4713 C   0  0  0  0  0  0  0  0  0  0  0  0
    2.2910   -1.2058   -0.5292 C   0  0  0  0  0  0  0  0  0  0  0  0
    3.2279   -0.5833    0.5061 C   0  0  0  0  0  0  0  0  0  0  0  0
    7.7990    0.9548    2.9098 H   0  0  0  0  0  0  0  0  0  0  0  0
    7.5333   -0.7710    2.7296 H   0  0  0  0  0  0  0  0  0  0  0  0
    8.7984    0.0684    1.7729 H   0  0  0  0  0  0  0  0  0  0  0  0
    7.0181    1.5353    0.7628 H   0  0  0  0  0  0  0  0  0  0  0  0
    5.8303    0.7669    1.8248 H   0  0  0  0  0  0  0  0  0  0  0  0
    5.8616   -1.3460    0.6188 H   0  0  0  0  0  0  0  0  0  0  0  0
    7.6905   -0.1482   -1.5124 H   0  0  0  0  0  0  0  0  0  0  0  0
    6.7896   -1.6689   -1.4745 H   0  0  0  0  0  0  0  0  0  0  0  0
    8.6842   -2.6410   -0.6877 H   0  0  0  0  0  0  0  0  0  0  0  0
    9.3515   -1.0709   -0.1838 H   0  0  0  0  0  0  0  0  0  0  0  0
    8.1522   -2.0323    0.8696 H   0  0  0  0  0  0  0  0  0  0  0  0
    4.9782   -0.5798   -1.5467 H   0  0  0  0  0  0  0  0  0  0  0  0
    5.7148    1.0224   -1.2952 H   0  0  0  0  0  0  0  0  0  0  0  0
    3.2994    1.6386    1.4065 H   0  0  0  0  0  0  0  0  0  0  0  0
    3.3029    0.7227   -2.1614 H   0  0  0  0  0  0  0  0  0  0  0  0
    3.4234    2.2793   -1.2867 H   0  0  0  0  0  0  0  0  0  0  0  0
    1.1309    1.4859   -1.8840 H   0  0  0  0  0  0  0  0  0  0  0  0
    1.2629    1.7919   -0.1420 H   0  0  0  0  0  0  0  0  0  0  0  0
   -0.7749    1.3272   -1.2123 H   0  0  0  0  0  0  0  0  0  0  0  0
   -2.5829   -2.0206   -0.9793 H   0  0  0  0  0  0  0  0  0  0  0  0
   -6.0765   -4.9428   -0.6756 H   0  0  0  0  0  0  0  0  0  0  0  0
   -6.7812   -5.7931    1.5046 H   0  0  0  0  0  0  0  0  0  0  0  0
   -5.6413   -2.1888    3.3485 H   0  0  0  0  0  0  0  0  0  0  0  0
   -4.9075   -1.2848    1.1268 H   0  0  0  0  0  0  0  0  0  0  0  0
   -6.3619   -0.3450   -1.6072 H   0  0  0  0  0  0  0  0  0  0  0  0
   -6.9372    4.3207   -1.9477 H   0  0  0  0  0  0  0  0  0  0  0  0
   -7.8183    5.5444    0.0089 H   0  0  0  0  0  0  0  0  0  0  0  0
   -5.9963    2.6886    2.6487 H   0  0  0  0  0  0  0  0  0  0  0  0
   -5.1288    1.4834    0.7156 H   0  0  0  0  0  0  0  0  0  0  0  0
   -2.8986    2.1322   -1.5448 H   0  0  0  0  0  0  0  0  0  0  0  0
    2.8515   -1.3837   -1.4839 H   0  0  0  0  0  0  0  0  0  0  0  0
    1.9291   -2.1753   -0.1589 H   0  0  0  0  0  0  0  0  0  0  0  0
    2.5322   -0.1515    1.2809 H   0  0  0  0  0  0  0  0  0  0  0  0
    3.8992   -1.3270    0.9474 H   0  0  0  0  0  0  0  0  0  0  0  0
  1  2  1  0
  2  3  1  0
  3  4  1  0
  4  5  1  0
  3  6  1  0
  6  7  1  0
  7  8  1  0
  7  9  1  0
  9 10  1  0
 10 11  1  0
 11 12  1  0
 12 13  2  0
 12 14  1  0
 14 15  1  0
 15 16  2  0
 16 17  1  0
 17 18  1  0
 18 19  1  0
 19 20  2  0
 20 21  1  0
 21 22  2  0
 22 23  1  0
 23 24  2  0
 17 25  2  0
 25 26  1  0
 26 27  1  0
 27 28  1  0
 28 29  2  0
 29 30  1  0
 30 31  2  0
 31 32  1  0
 31 33  1  0
 33 34  2  0
 26 35  2  0
 11 36  1  0
 36 37  1  0
 37  7  1  0
 35 15  1  0
 24 19  1  0
 34 28  1  0
  1 38  1  0
  1 39  1  0
  1 40  1  0
  2 41  1  0
  2 42  1  0
  3 43  1  0
  4 44  1  0
  4 45  1  0
  5 46  1  0
  5 47  1  0
  5 48  1  0
  6 49  1  0
  6 50  1  0
  8 51  1  0
  9 52  1  0
  9 53  1  0
 10 54  1  0
 10 55  1  0
 14 56  1  0
 16 57  1  0
 20 58  1  0
 21 59  1  0
 23 60  1  0
 24 61  1  0
 25 62  1  0
 29 63  1  0
 30 64  1  0
 33 65  1  0
 34 66  1  0
 35 67  1  0
 36 68  1  0
 36 69  1  0
 37 70  1  0
 37 71  1  0
M  END
$$$$
