@<TRIPOS>MOLECULE
*****
 47 50 0 0 0
SMALL
GASTEIGER

@<TRIPOS>ATOM
      1 C          -5.6710   -0.9173    0.4783 C.3     1  UNL1        0.0419
      2 C          -4.2058   -0.9114    0.0108 C.3     1  UNL1        0.1049
      3 O          -3.5760    0.0593    0.8210 O.3     1  UNL1       -0.4904
      4 C          -2.2326    0.3914    0.7267 C.ar    1  UNL1        0.1206
      5 C          -1.3818   -0.2099   -0.1741 C.ar    1  UNL1       -0.0193
      6 C          -0.0732    0.2032   -0.1756 C.ar    1  UNL1       -0.0475
      7 C           0.5077    1.1564    0.6215 C.ar    1  UNL1        0.0225
      8 C          -0.4414    1.7024    1.4982 C.ar    1  UNL1       -0.0475
      9 C          -1.7705    1.3647    1.5836 C.ar    1  UNL1       -0.0193
     10 C           1.8788    1.6055    0.6765 C.2     1  UNL1        0.1931
     11 O           1.9416    2.8132    1.1266 O.2     1  UNL1       -0.2867
     12 C           3.1394    1.0299    0.3583 C.ar    1  UNL1        0.0223
     13 C           3.4929   -0.0185   -0.4541 C.ar    1  UNL1       -0.0503
     14 C           4.7348   -0.5376   -0.7035 C.ar    1  UNL1       -0.0533
     15 C           5.7717    0.0739   -0.0519 C.ar    1  UNL1       -0.0173
     16 C           5.5683    1.1350    0.7923 C.ar    1  UNL1       -0.0533
     17 C           4.2792    1.5716    0.9668 C.ar    1  UNL1       -0.0503
     18 C           7.1239   -0.4170   -0.2516 C.ar    1  UNL1       -0.0109
     19 C           8.2779    0.5591   -0.1845 C.ar    1  UNL1       -0.0166
     20 S           9.7288   -0.5020   -0.4776 S.2     1  UNL1       -0.1045
     21 C           8.7762   -2.0941   -0.6640 C.ar    1  UNL1       -0.0237
     22 C           7.4521   -1.7067   -0.4918 C.ar    1  UNL1       -0.0470
     23 C          -6.1873    0.4755    0.2242 C.3     1  UNL1       -0.0332
     24 C          -7.6091    0.2401   -0.1786 C.3     1  UNL1       -0.0389
     25 C          -7.6549   -1.1897   -0.6506 C.3     1  UNL1       -0.0037
     26 N          -6.4511   -1.8431   -0.2672 N.3     1  UNL1       -0.3102
     27 H          -5.6408   -1.1571    1.5669 H       1  UNL1        0.0494
     28 H          -4.1535   -0.5668   -1.0461 H       1  UNL1        0.0712
     29 H          -3.7583   -1.9022    0.1307 H       1  UNL1        0.0712
     30 H          -1.7904   -0.9541   -0.8095 H       1  UNL1        0.0654
     31 H           0.4977   -0.3069   -0.9110 H       1  UNL1        0.0626
     32 H          -0.1375    2.4817    2.2076 H       1  UNL1        0.0626
     33 H          -2.4371    1.8345    2.2878 H       1  UNL1        0.0654
     34 H           2.7022   -0.5165   -0.9832 H       1  UNL1        0.0625
     35 H           4.9016   -1.3603   -1.3574 H       1  UNL1        0.0624
     36 H           6.4164    1.5879    1.2861 H       1  UNL1        0.0624
     37 H           4.2087    2.4246    1.6553 H       1  UNL1        0.0625
     38 H           8.0960    1.6385    0.0084 H       1  UNL1        0.0699
     39 H           9.1798   -3.0676   -0.8566 H       1  UNL1        0.0693
     40 H           6.7022   -2.4734   -0.5606 H       1  UNL1        0.0629
     41 H          -6.1281    1.1063    1.1513 H       1  UNL1        0.0282
     42 H          -5.6323    0.9667   -0.6158 H       1  UNL1        0.0282
     43 H          -8.3426    0.4406    0.6187 H       1  UNL1        0.0278
     44 H          -7.8772    0.8992   -1.0440 H       1  UNL1        0.0278
     45 H          -7.7348   -1.2430   -1.7682 H       1  UNL1        0.0424
     46 H          -8.5813   -1.6547   -0.2342 H       1  UNL1        0.0424
     47 H          -5.9089   -2.2117   -1.0633 H       1  UNL1        0.1223
@<TRIPOS>BOND
     1     1     2    1
     2     2     3    1
     3     3     4    1
     4     4     5   ar
     5     5     6   ar
     6     6     7   ar
     7     7     8   ar
     8     8     9   ar
     9     7    10    1
    10    10    11    2
    11    10    12    1
    12    12    13   ar
    13    13    14   ar
    14    14    15   ar
    15    15    16   ar
    16    16    17   ar
    17    15    18    1
    18    18    19   ar
    19    19    20   ar
    20    20    21   ar
    21    21    22   ar
    22     1    23    1
    23    23    24    1
    24    24    25    1
    25    25    26    1
    26    26     1    1
    27     9     4   ar
    28    17    12   ar
    29    22    18   ar
    30     1    27    1
    31     2    28    1
    32     2    29    1
    33     5    30    1
    34     6    31    1
    35     8    32    1
    36     9    33    1
    37    13    34    1
    38    14    35    1
    39    16    36    1
    40    17    37    1
    41    19    38    1
    42    21    39    1
    43    22    40    1
    44    23    41    1
    45    23    42    1
    46    24    43    1
    47    24    44    1
    48    25    45    1
    49    25    46    1
    50    26    47    1
