@<TRIPOS>MOLECULE
*****
 69 73 0 0 0
SMALL
GASTEIGER

@<TRIPOS>ATOM
      1 C           9.8781    1.1833   -1.1457 C.3     1  UNL1        0.0004
      2 N           9.1723   -0.0864   -1.0531 N.pl3   1  UNL1       -0.3360
      3 C           9.5629   -1.2498   -1.8023 C.3     1  UNL1        0.0004
      4 C           8.0352   -0.1780   -0.1723 C.ar    1  UNL1        0.0293
      5 C           7.6371    0.9265    0.5600 C.ar    1  UNL1       -0.0389
      6 C           6.5612    0.8306    1.3912 C.ar    1  UNL1       -0.0386
      7 C           5.8323   -0.3385    1.5430 C.ar    1  UNL1        0.0366
      8 N           4.7250   -0.3408    2.4337 N.am    1  UNL1       -0.2508
      9 C           3.4213   -0.0088    1.9739 C.2     1  UNL1        0.4099
     10 O           3.3099    0.2788    0.7571 O.2     1  UNL1       -0.2257
     11 O           2.2985    0.0167    2.7626 O.3     1  UNL1       -0.4113
     12 C           1.0624    0.3628    2.1849 C.ar    1  UNL1        0.1336
     13 C           0.6867    1.6853    2.0797 C.ar    1  UNL1       -0.0174
     14 C          -0.5107    2.0853    1.5236 C.ar    1  UNL1       -0.0369
     15 C          -1.3859    1.1279    1.0452 C.ar    1  UNL1        0.0347
     16 C          -1.0281   -0.2021    1.1413 C.ar    1  UNL1       -0.0139
     17 C           0.1876   -0.5904    1.7067 C.ar    1  UNL1       -0.0136
     18 C          -2.1231   -0.9856    0.5678 C.3     1  UNL1        0.0279
     19 C          -2.3496   -2.2979    1.2775 C.3     1  UNL1       -0.0525
     20 C          -2.0267   -1.1313   -0.9146 C.3     1  UNL1       -0.0277
     21 C          -3.4822   -1.1316   -1.3388 C.3     1  UNL1        0.0015
     22 N          -4.2308   -0.4634   -0.3217 N.3     1  UNL1       -0.2833
     23 C          -5.3061   -1.2473    0.2031 C.3     1  UNL1        0.0046
     24 C          -6.4391   -1.4931   -0.7417 C.3     1  UNL1       -0.0148
     25 C          -7.0630   -0.2410   -1.1788 C.ar    1  UNL1       -0.0462
     26 C          -8.0909    0.3002   -0.4312 C.ar    1  UNL1       -0.0585
     27 C          -8.6951    1.4625   -0.8120 C.ar    1  UNL1       -0.0615
     28 C          -8.2682    2.0944   -1.9550 C.ar    1  UNL1       -0.0617
     29 C          -7.2552    1.5705   -2.7014 C.ar    1  UNL1       -0.0615
     30 C          -6.6463    0.3878   -2.3066 C.ar    1  UNL1       -0.0585
     31 C          -3.3323   -0.0647    0.7136 C.3     1  UNL1        0.0863
     32 N          -2.6785    1.2199    0.4285 N.pl3   1  UNL1       -0.3161
     33 C          -3.1509    2.3642   -0.2967 C.3     1  UNL1        0.0022
     34 C           6.2355   -1.4297    0.8114 C.ar    1  UNL1       -0.0386
     35 C           7.3239   -1.3467   -0.0347 C.ar    1  UNL1       -0.0389
     36 H           9.1720    2.0312   -1.3113 H       1  UNL1        0.0428
     37 H          10.5892    1.1785   -1.9774 H       1  UNL1        0.0428
     38 H          10.3646    1.3424   -0.1475 H       1  UNL1        0.0428
     39 H           8.7444   -1.4566   -2.5404 H       1  UNL1        0.0428
     40 H          10.4919   -1.0330   -2.3799 H       1  UNL1        0.0428
     41 H           9.7066   -2.1152   -1.1543 H       1  UNL1        0.0428
     42 H           8.1880    1.8696    0.4679 H       1  UNL1        0.0637
     43 H           6.2553    1.7188    1.9685 H       1  UNL1        0.0637
     44 H           4.8647   -0.5871    3.4315 H       1  UNL1        0.1582
     45 H           1.3805    2.4310    2.4583 H       1  UNL1        0.0655
     46 H          -0.7896    3.1473    1.4494 H       1  UNL1        0.0637
     47 H           0.4899   -1.6225    1.7935 H       1  UNL1        0.0658
     48 H          -1.3928   -2.6535    1.7246 H       1  UNL1        0.0239
     49 H          -3.0510   -2.1463    2.1208 H       1  UNL1        0.0239
     50 H          -2.6789   -3.0923    0.5817 H       1  UNL1        0.0239
     51 H          -1.5025   -2.0535   -1.2352 H       1  UNL1        0.0287
     52 H          -1.5676   -0.2053   -1.3320 H       1  UNL1        0.0287
     53 H          -3.6111   -0.5817   -2.2995 H       1  UNL1        0.0427
     54 H          -3.8207   -2.1783   -1.5090 H       1  UNL1        0.0427
     55 H          -4.9598   -2.2652    0.5501 H       1  UNL1        0.0430
     56 H          -5.7138   -0.6915    1.0792 H       1  UNL1        0.0430
     57 H          -7.2200   -2.0768   -0.1753 H       1  UNL1        0.0326
     58 H          -6.1526   -2.1561   -1.5854 H       1  UNL1        0.0326
     59 H          -8.4197   -0.2115    0.4737 H       1  UNL1        0.0620
     60 H          -9.5026    1.9139   -0.2505 H       1  UNL1        0.0618
     61 H          -8.7684    3.0320   -2.2462 H       1  UNL1        0.0618
     62 H          -6.8997    2.0371   -3.5953 H       1  UNL1        0.0618
     63 H          -5.8510   -0.0249   -2.8968 H       1  UNL1        0.0620
     64 H          -3.7515   -0.0843    1.7253 H       1  UNL1        0.0680
     65 H          -2.5849    3.2596    0.0298 H       1  UNL1        0.0428
     66 H          -4.2359    2.5288   -0.1349 H       1  UNL1        0.0428
     67 H          -2.9882    2.2432   -1.4031 H       1  UNL1        0.0428
     68 H           5.6918   -2.3584    0.9035 H       1  UNL1        0.0637
     69 H           7.6566   -2.2088   -0.6245 H       1  UNL1        0.0637
@<TRIPOS>BOND
     1     1     2    1
     2     2     3    1
     3     2     4    1
     4     4     5   ar
     5     5     6   ar
     6     6     7   ar
     7     7     8    1
     8     8     9   am
     9     9    10    2
    10     9    11    1
    11    11    12    1
    12    12    13   ar
    13    13    14   ar
    14    14    15   ar
    15    15    16   ar
    16    16    17   ar
    17    16    18    1
    18    18    19    1
    19    18    20    1
    20    20    21    1
    21    21    22    1
    22    22    23    1
    23    23    24    1
    24    24    25    1
    25    25    26   ar
    26    26    27   ar
    27    27    28   ar
    28    28    29   ar
    29    29    30   ar
    30    22    31    1
    31    31    32    1
    32    32    33    1
    33     7    34   ar
    34    34    35   ar
    35    35     4   ar
    36    17    12   ar
    37    31    18    1
    38    32    15    1
    39    30    25   ar
    40     1    36    1
    41     1    37    1
    42     1    38    1
    43     3    39    1
    44     3    40    1
    45     3    41    1
    46     5    42    1
    47     6    43    1
    48     8    44    1
    49    13    45    1
    50    14    46    1
    51    17    47    1
    52    19    48    1
    53    19    49    1
    54    19    50    1
    55    20    51    1
    56    20    52    1
    57    21    53    1
    58    21    54    1
    59    23    55    1
    60    23    56    1
    61    24    57    1
    62    24    58    1
    63    26    59    1
    64    27    60    1
    65    28    61    1
    66    29    62    1
    67    30    63    1
    68    31    64    1
    69    33    65    1
    70    33    66    1
    71    33    67    1
    72    34    68    1
    73    35    69    1
