@<TRIPOS>MOLECULE
*****
 37 39 0 0 0
SMALL
GASTEIGER

@<TRIPOS>ATOM
      1 C          -2.2541   -2.7882   -0.1543 C.3     1  UNL1       -0.0526
      2 C          -1.3064   -1.8988    0.6649 C.3     1  UNL1       -0.0067
      3 N          -1.5404   -0.5375    0.3406 N.3     1  UNL1       -0.3127
      4 C          -0.7395    0.4482    0.9735 C.3     1  UNL1        0.0175
      5 C          -1.4640    1.7819    0.6938 C.3     1  UNL1       -0.0248
      6 C          -0.6718    2.9390    1.2321 C.3     1  UNL1       -0.0485
      7 C           0.4048    3.2286    0.1880 C.3     1  UNL1       -0.0493
      8 C           0.3307    1.9549   -0.6220 C.3     1  UNL1       -0.0325
      9 C          -1.1801    1.8715   -0.7916 C.3     1  UNL1       -0.0453
     10 C           0.5697    0.7834    0.2954 C.3     1  UNL1        0.0026
     11 C           1.2740   -0.3195   -0.3414 C.ar    1  UNL1       -0.0425
     12 C           2.3058   -0.9128    0.3999 C.ar    1  UNL1       -0.0582
     13 C           3.0743   -1.9578   -0.0984 C.ar    1  UNL1       -0.0615
     14 C           2.7881   -2.4029   -1.3661 C.ar    1  UNL1       -0.0617
     15 C           1.7926   -1.8698   -2.1500 C.ar    1  UNL1       -0.0615
     16 C           1.0403   -0.8252   -1.6243 C.ar    1  UNL1       -0.0582
     17 H          -1.7955   -3.1559   -1.0801 H       1  UNL1        0.0242
     18 H          -2.5855   -3.6570    0.4497 H       1  UNL1        0.0242
     19 H          -3.1950   -2.2292   -0.4095 H       1  UNL1        0.0242
     20 H          -1.5504   -2.1137    1.7529 H       1  UNL1        0.0421
     21 H          -0.2699   -2.1922    0.4525 H       1  UNL1        0.0421
     22 H          -2.5515   -0.2918    0.4617 H       1  UNL1        0.1222
     23 H          -0.6329    0.2987    2.0699 H       1  UNL1        0.0469
     24 H          -2.5074    1.7606    0.9747 H       1  UNL1        0.0316
     25 H          -1.3241    3.7969    1.4015 H       1  UNL1        0.0269
     26 H          -0.1456    2.6761    2.1857 H       1  UNL1        0.0269
     27 H           1.3976    3.4122    0.6366 H       1  UNL1        0.0268
     28 H           0.1056    4.0630   -0.4917 H       1  UNL1        0.0268
     29 H           0.8727    1.9523   -1.5598 H       1  UNL1        0.0307
     30 H          -1.5904    2.8140   -1.2134 H       1  UNL1        0.0271
     31 H          -1.5103    0.9787   -1.3348 H       1  UNL1        0.0271
     32 H           1.2122    1.1650    1.1547 H       1  UNL1        0.0367
     33 H           2.5532   -0.5761    1.4127 H       1  UNL1        0.0620
     34 H           3.8594   -2.3795    0.5170 H       1  UNL1        0.0618
     35 H           3.3961   -3.2101   -1.7260 H       1  UNL1        0.0618
     36 H           1.5848   -2.2343   -3.1427 H       1  UNL1        0.0618
     37 H           0.2529   -0.3726   -2.1923 H       1  UNL1        0.0620
@<TRIPOS>BOND
     1     1     2    1
     2     2     3    1
     3     3     4    1
     4     4     5    1
     5     5     6    1
     6     6     7    1
     7     7     8    1
     8     8     9    1
     9     8    10    1
    10    10    11    1
    11    11    12   ar
    12    12    13   ar
    13    13    14   ar
    14    14    15   ar
    15    15    16   ar
    16    10     4    1
    17    16    11   ar
    18     9     5    1
    19     1    17    1
    20     1    18    1
    21     1    19    1
    22     2    20    1
    23     2    21    1
    24     3    22    1
    25     4    23    1
    26     5    24    1
    27     6    25    1
    28     6    26    1
    29     7    27    1
    30     7    28    1
    31     8    29    1
    32     9    30    1
    33     9    31    1
    34    10    32    1
    35    12    33    1
    36    13    34    1
    37    14    35    1
    38    15    36    1
    39    16    37    1
