
     RDKit          3D

 37 39  0  0  0  0  0  0  0  0999 V2000
   -2.2541   -2.7882   -0.1543 C   0  0  0  0  0  0  0  0  0  0  0  0
   -1.3064   -1.8988    0.6649 C   0  0  0  0  0  0  0  0  0  0  0  0
   -1.5404   -0.5375    0.3406 N   0  0  0  0  0  0  0  0  0  0  0  0
   -0.7395    0.4482    0.9735 C   0  0  0  0  0  0  0  0  0  0  0  0
   -1.4640    1.7819    0.6938 C   0  0  0  0  0  0  0  0  0  0  0  0
   -0.6718    2.9390    1.2321 C   0  0  0  0  0  0  0  0  0  0  0  0
    0.4048    3.2286    0.1880 C   0  0  0  0  0  0  0  0  0  0  0  0
    0.3307    1.9549   -0.6220 C   0  0  0  0  0  0  0  0  0  0  0  0
   -1.1801    1.8715   -0.7916 C   0  0  0  0  0  0  0  0  0  0  0  0
    0.5697    0.7834    0.2954 C   0  0  0  0  0  0  0  0  0  0  0  0
    1.2740   -0.3195   -0.3414 C   0  0  0  0  0  0  0  0  0  0  0  0
    2.3058   -0.9128    0.3999 C   0  0  0  0  0  0  0  0  0  0  0  0
    3.0743   -1.9578   -0.0984 C   0  0  0  0  0  0  0  0  0  0  0  0
    2.7881   -2.4029   -1.3661 C   0  0  0  0  0  0  0  0  0  0  0  0
    1.7926   -1.8698   -2.1500 C   0  0  0  0  0  0  0  0  0  0  0  0
    1.0403   -0.8252   -1.6243 C   0  0  0  0  0  0  0  0  0  0  0  0
   -1.7955   -3.1559   -1.0801 H   0  0  0  0  0  0  0  0  0  0  0  0
   -2.5855   -3.6570    0.4497 H   0  0  0  0  0  0  0  0  0  0  0  0
   -3.1950   -2.2292   -0.4095 H   0  0  0  0  0  0  0  0  0  0  0  0
   -1.5504   -2.1137    1.7529 H   0  0  0  0  0  0  0  0  0  0  0  0
   -0.2699   -2.1922    0.4525 H   0  0  0  0  0  0  0  0  0  0  0  0
   -2.5515   -0.2918    0.4617 H   0  0  0  0  0  0  0  0  0  0  0  0
   -0.6329    0.2987    2.0699 H   0  0  0  0  0  0  0  0  0  0  0  0
   -2.5074    1.7606    0.9747 H   0  0  0  0  0  0  0  0  0  0  0  0
   -1.3241    3.7969    1.4015 H   0  0  0  0  0  0  0  0  0  0  0  0
   -0.1456    2.6761    2.1857 H   0  0  0  0  0  0  0  0  0  0  0  0
    1.3976    3.4122    0.6366 H   0  0  0  0  0  0  0  0  0  0  0  0
    0.1056    4.0630   -0.4917 H   0  0  0  0  0  0  0  0  0  0  0  0
    0.8727    1.9523   -1.5598 H   0  0  0  0  0  0  0  0  0  0  0  0
   -1.5904    2.8140   -1.2134 H   0  0  0  0  0  0  0  0  0  0  0  0
   -1.5103    0.9787   -1.3348 H   0  0  0  0  0  0  0  0  0  0  0  0
    1.2122    1.1650    1.1547 H   0  0  0  0  0  0  0  0  0  0  0  0
    2.5532   -0.5761    1.4127 H   0  0  0  0  0  0  0  0  0  0  0  0
    3.8594   -2.3795    0.5170 H   0  0  0  0  0  0  0  0  0  0  0  0
    3.3961   -3.2101   -1.7260 H   0  0  0  0  0  0  0  0  0  0  0  0
    1.5848   -2.2343   -3.1427 H   0  0  0  0  0  0  0  0  0  0  0  0
    0.2529   -0.3726   -2.1923 H   0  0  0  0  0  0  0  0  0  0  0  0
  1  2  1  0
  2  3  1  0
  3  4  1  0
  4  5  1  0
  5  6  1  0
  6  7  1  0
  7  8  1  0
  8  9  1  0
  8 10  1  0
 10 11  1  0
 11 12  2  0
 12 13  1  0
 13 14  2  0
 14 15  1  0
 15 16  2  0
 10  4  1  0
 16 11  1  0
  9  5  1  0
  1 17  1  0
  1 18  1  0
  1 19  1  0
  2 20  1  0
  2 21  1  0
  3 22  1  0
  4 23  1  0
  5 24  1  0
  6 25  1  0
  6 26  1  0
  7 27  1  0
  7 28  1  0
  8 29  1  0
  9 30  1  0
  9 31  1  0
 10 32  1  0
 12 33  1  0
 13 34  1  0
 14 35  1  0
 15 36  1  0
 16 37  1  0
M  END
$$$$
