@<TRIPOS>MOLECULE
*****
 37 39 0 0 0
SMALL
GASTEIGER

@<TRIPOS>ATOM
      1 O           1.1295   -0.3829    0.6712 O.2     1  UNL1       -0.2734
      2 C           1.2539    0.0655   -0.5240 C.2     1  UNL1        0.2378
      3 N           2.5303    0.5780   -0.8374 N.am    1  UNL1       -0.2827
      4 C           3.6018    0.5993    0.0945 C.ar    1  UNL1        0.0517
      5 C           3.8619    1.6418    0.9579 C.ar    1  UNL1       -0.0376
      6 C           4.9407    1.5826    1.8467 C.ar    1  UNL1       -0.0418
      7 C           5.7593    0.4736    1.8674 C.ar    1  UNL1        0.0277
      8 N           5.4911   -0.5333    1.0188 N.ar    1  UNL1       -0.2614
      9 C           4.4498   -0.4858    0.1550 C.ar    1  UNL1        0.0487
     10 C           0.1071   -0.0030   -1.3880 C.3     1  UNL1        0.1041
     11 C          -0.5508    1.4181   -1.6208 C.3     1  UNL1       -0.0239
     12 C          -2.0813    1.2463   -1.6188 C.3     1  UNL1       -0.0282
     13 C          -2.7066    0.7100   -0.3744 C.3     1  UNL1        0.0727
     14 C          -1.4767    0.1463    0.4339 C.3     1  UNL1        0.0381
     15 N          -1.0593   -0.5664   -0.8210 N.am    1  UNL1       -0.2704
     16 C          -2.1408   -1.4202   -0.9836 C.2     1  UNL1        0.3305
     17 O          -2.0964   -2.6061   -1.3711 O.2     1  UNL1       -0.2502
     18 N          -3.3259   -0.6216   -0.6066 N.am    1  UNL1       -0.1323
     19 O          -4.5852   -1.0305   -0.5142 O.3     1  UNL1       -0.0962
     20 S          -5.0232   -1.5976    0.9763 S.O2    1  UNL1        0.2271
     21 O          -6.3144   -2.3848    0.7973 O.2     1  UNL1       -0.1164
     22 O          -5.3513   -0.4916    1.9471 O.2     1  UNL1       -0.1164
     23 O          -3.8658   -2.6219    1.6123 O.3     1  UNL1       -0.2297
     24 H           2.6741    0.9520   -1.7971 H       1  UNL1        0.1549
     25 H           3.2251    2.4948    0.9359 H       1  UNL1        0.0637
     26 H           5.1710    2.3819    2.5352 H       1  UNL1        0.0633
     27 H           6.5962    0.4233    2.5541 H       1  UNL1        0.0829
     28 H           4.2959   -1.3294   -0.4952 H       1  UNL1        0.0848
     29 H           0.3932   -0.3376   -2.3966 H       1  UNL1        0.0597
     30 H          -0.3080    2.1035   -0.8385 H       1  UNL1        0.0288
     31 H          -0.2654    1.7569   -2.6067 H       1  UNL1        0.0288
     32 H          -2.4779    2.2335   -1.8646 H       1  UNL1        0.0285
     33 H          -2.2973    0.5225   -2.4512 H       1  UNL1        0.0285
     34 H          -3.3061    1.3693    0.2190 H       1  UNL1        0.0542
     35 H          -1.8064   -0.5168    1.2070 H       1  UNL1        0.0484
     36 H          -0.8080    0.9222    0.7358 H       1  UNL1        0.0484
     37 H          -3.6342   -2.3596    2.5446 H       1  UNL1        0.2470
@<TRIPOS>BOND
     1     1     2    2
     2     2     3   am
     3     3     4    1
     4     4     5   ar
     5     5     6   ar
     6     6     7   ar
     7     7     8   ar
     8     8     9   ar
     9     2    10    1
    10    10    11    1
    11    11    12    1
    12    12    13    1
    13    13    14    1
    14    14    15    1
    15    15    16   am
    16    16    17    2
    17    16    18   am
    18    18    19    1
    19    19    20    1
    20    20    21    2
    21    20    22    2
    22    20    23    1
    23     9     4   ar
    24    15    10    1
    25    18    13    1
    26     3    24    1
    27     5    25    1
    28     6    26    1
    29     7    27    1
    30     9    28    1
    31    10    29    1
    32    11    30    1
    33    11    31    1
    34    12    32    1
    35    12    33    1
    36    13    34    1
    37    14    35    1
    38    14    36    1
    39    23    37    1
