
     RDKit          3D

 37 39  0  0  0  0  0  0  0  0999 V2000
    1.1295   -0.3829    0.6712 O   0  0  0  0  0  0  0  0  0  0  0  0
    1.2539    0.0655   -0.5240 C   0  0  0  0  0  0  0  0  0  0  0  0
    2.5303    0.5780   -0.8374 N   0  0  0  0  0  0  0  0  0  0  0  0
    3.6018    0.5993    0.0945 C   0  0  0  0  0  0  0  0  0  0  0  0
    3.8619    1.6418    0.9579 C   0  0  0  0  0  0  0  0  0  0  0  0
    4.9407    1.5826    1.8467 C   0  0  0  0  0  0  0  0  0  0  0  0
    5.7593    0.4736    1.8674 C   0  0  0  0  0  0  0  0  0  0  0  0
    5.4911   -0.5333    1.0188 N   0  0  0  0  0  0  0  0  0  0  0  0
    4.4498   -0.4858    0.1550 C   0  0  0  0  0  0  0  0  0  0  0  0
    0.1071   -0.0030   -1.3880 C   0  0  2  0  0  0  0  0  0  0  0  0
   -0.5508    1.4181   -1.6208 C   0  0  0  0  0  0  0  0  0  0  0  0
   -2.0813    1.2463   -1.6188 C   0  0  0  0  0  0  0  0  0  0  0  0
   -2.7066    0.7100   -0.3744 C   0  0  2  0  0  0  0  0  0  0  0  0
   -1.4767    0.1463    0.4339 C   0  0  0  0  0  0  0  0  0  0  0  0
   -1.0593   -0.5664   -0.8210 N   0  0  0  0  0  0  0  0  0  0  0  0
   -2.1408   -1.4202   -0.9836 C   0  0  0  0  0  0  0  0  0  0  0  0
   -2.0964   -2.6061   -1.3711 O   0  0  0  0  0  0  0  0  0  0  0  0
   -3.3259   -0.6216   -0.6066 N   0  0  0  0  0  0  0  0  0  0  0  0
   -4.5852   -1.0305   -0.5142 O   0  0  0  0  0  0  0  0  0  0  0  0
   -5.0232   -1.5976    0.9763 S   0  0  0  0  0  6  0  0  0  0  0  0
   -6.3144   -2.3848    0.7973 O   0  0  0  0  0  0  0  0  0  0  0  0
   -5.3513   -0.4916    1.9471 O   0  0  0  0  0  0  0  0  0  0  0  0
   -3.8658   -2.6219    1.6123 O   0  0  0  0  0  0  0  0  0  0  0  0
    2.6741    0.9520   -1.7971 H   0  0  0  0  0  0  0  0  0  0  0  0
    3.2251    2.4948    0.9359 H   0  0  0  0  0  0  0  0  0  0  0  0
    5.1710    2.3819    2.5352 H   0  0  0  0  0  0  0  0  0  0  0  0
    6.5962    0.4233    2.5541 H   0  0  0  0  0  0  0  0  0  0  0  0
    4.2959   -1.3294   -0.4952 H   0  0  0  0  0  0  0  0  0  0  0  0
    0.3932   -0.3376   -2.3966 H   0  0  0  0  0  0  0  0  0  0  0  0
   -0.3080    2.1035   -0.8385 H   0  0  0  0  0  0  0  0  0  0  0  0
   -0.2654    1.7569   -2.6067 H   0  0  0  0  0  0  0  0  0  0  0  0
   -2.4779    2.2335   -1.8646 H   0  0  0  0  0  0  0  0  0  0  0  0
   -2.2973    0.5225   -2.4512 H   0  0  0  0  0  0  0  0  0  0  0  0
   -3.3061    1.3693    0.2190 H   0  0  0  0  0  0  0  0  0  0  0  0
   -1.8064   -0.5168    1.2070 H   0  0  0  0  0  0  0  0  0  0  0  0
   -0.8080    0.9222    0.7358 H   0  0  0  0  0  0  0  0  0  0  0  0
   -3.6342   -2.3596    2.5446 H   0  0  0  0  0  0  0  0  0  0  0  0
  1  2  2  0
  2  3  1  0
  3  4  1  0
  4  5  2  0
  5  6  1  0
  6  7  2  0
  7  8  1  0
  8  9  2  0
  2 10  1  0
 10 11  1  0
 11 12  1  0
 12 13  1  0
 13 14  1  0
 14 15  1  0
 15 16  1  0
 16 17  2  0
 16 18  1  0
 18 19  1  0
 19 20  1  0
 20 21  2  0
 20 22  2  0
 20 23  1  0
  9  4  1  0
 15 10  1  0
 18 13  1  0
  3 24  1  0
  5 25  1  0
  6 26  1  0
  7 27  1  0
  9 28  1  0
 10 29  1  6
 11 30  1  0
 11 31  1  0
 12 32  1  0
 12 33  1  0
 13 34  1  1
 14 35  1  0
 14 36  1  0
 23 37  1  0
M  END
$$$$
