
     RDKit          3D

 30 32  0  0  0  0  0  0  0  0999 V2000
    0.8319    3.4596    0.5176 C   0  0  0  0  0  0  0  0  0  0  0  0
    1.3587    2.1112    0.4614 C   0  0  0  0  0  0  0  0  0  0  0  0
    2.5873    2.0861    0.7612 O   0  0  0  0  0  0  0  0  0  0  0  0
    0.8121    0.8473    0.1543 N   0  0  0  0  0  0  0  0  0  0  0  0
    1.5031   -0.3000    0.2079 C   0  0  0  0  0  0  0  0  0  0  0  0
    2.7785   -0.7137    0.5184 C   0  0  0  0  0  0  0  0  0  0  0  0
    3.2558   -2.0039    0.4942 C   0  0  0  0  0  0  0  0  0  0  0  0
    2.3629   -2.9859    0.1197 C   0  0  0  0  0  0  0  0  0  0  0  0
    1.0693   -2.6462   -0.2050 C   0  0  0  0  0  0  0  0  0  0  0  0
    0.6568   -1.3356   -0.1599 C   0  0  0  0  0  0  0  0  0  0  0  0
   -0.5949   -0.8440   -0.4540 C   0  0  0  0  0  0  0  0  0  0  0  0
   -0.4558    0.5355   -0.2444 C   0  0  0  0  0  0  0  0  0  0  0  0
   -1.6432    1.3802   -0.4925 C   0  0  0  0  0  0  0  0  0  0  0  0
   -1.3886    2.4916   -1.0746 O   0  0  0  0  0  0  0  0  0  0  0  0
   -2.9558    0.8433   -0.0448 C   0  0  0  0  0  0  0  0  0  0  0  0
   -3.0809   -0.6344   -0.2113 C   0  0  0  0  0  0  0  0  0  0  0  0
   -1.9289   -1.2970   -0.8879 C   0  0  0  0  0  0  0  0  0  0  0  0
    1.4768    4.1231    1.1448 H   0  0  0  0  0  0  0  0  0  0  0  0
   -0.1701    3.5569    1.0382 H   0  0  0  0  0  0  0  0  0  0  0  0
    0.7693    3.9779   -0.4622 H   0  0  0  0  0  0  0  0  0  0  0  0
    3.5132    0.0175    0.8173 H   0  0  0  0  0  0  0  0  0  0  0  0
    4.2626   -2.2623    0.7477 H   0  0  0  0  0  0  0  0  0  0  0  0
    2.6628   -4.0096    0.0782 H   0  0  0  0  0  0  0  0  0  0  0  0
    0.3851   -3.4287   -0.4956 H   0  0  0  0  0  0  0  0  0  0  0  0
   -3.7287    1.3762   -0.6374 H   0  0  0  0  0  0  0  0  0  0  0  0
   -3.0882    1.1656    1.0088 H   0  0  0  0  0  0  0  0  0  0  0  0
   -3.2536   -1.0728    0.7961 H   0  0  0  0  0  0  0  0  0  0  0  0
   -3.9901   -0.8566   -0.8088 H   0  0  0  0  0  0  0  0  0  0  0  0
   -1.9873   -2.3909   -0.6988 H   0  0  0  0  0  0  0  0  0  0  0  0
   -2.0201   -1.1904   -1.9889 H   0  0  0  0  0  0  0  0  0  0  0  0
  1  2  1  0
  2  3  2  0
  2  4  1  0
  4  5  1  0
  5  6  2  0
  6  7  1  0
  7  8  2  0
  8  9  1  0
  9 10  2  0
 10 11  1  0
 11 12  2  0
 12 13  1  0
 13 14  2  0
 13 15  1  0
 15 16  1  0
 16 17  1  0
 12  4  1  0
 10  5  1  0
 17 11  1  0
  1 18  1  0
  1 19  1  0
  1 20  1  0
  6 21  1  0
  7 22  1  0
  8 23  1  0
  9 24  1  0
 15 25  1  0
 15 26  1  0
 16 27  1  0
 16 28  1  0
 17 29  1  0
 17 30  1  0
M  END
$$$$
