@<TRIPOS>MOLECULE
*****
 30 32 0 0 0
SMALL
GASTEIGER

@<TRIPOS>ATOM
      1 C           0.8319    3.4596    0.5176 C.3     1  UNL1        0.0152
      2 C           1.3587    2.1112    0.4614 C.2     1  UNL1        0.2293
      3 O           2.5873    2.0861    0.7612 O.2     1  UNL1       -0.2726
      4 N           0.8121    0.8473    0.1543 N.ar    1  UNL1       -0.2770
      5 C           1.5031   -0.3000    0.2079 C.ar    1  UNL1        0.0573
      6 C           2.7785   -0.7137    0.5184 C.ar    1  UNL1       -0.0372
      7 C           3.2558   -2.0039    0.4942 C.ar    1  UNL1       -0.0598
      8 C           2.3629   -2.9859    0.1197 C.ar    1  UNL1       -0.0611
      9 C           1.0693   -2.6462   -0.2050 C.ar    1  UNL1       -0.0523
     10 C           0.6568   -1.3356   -0.1599 C.ar    1  UNL1        0.0042
     11 C          -0.5949   -0.8440   -0.4540 C.ar    1  UNL1       -0.0109
     12 C          -0.4558    0.5355   -0.2444 C.ar    1  UNL1        0.0958
     13 C          -1.6432    1.3802   -0.4925 C.2     1  UNL1        0.1801
     14 O          -1.3886    2.4916   -1.0746 O.2     1  UNL1       -0.2905
     15 C          -2.9558    0.8433   -0.0448 C.3     1  UNL1        0.0122
     16 C          -3.0809   -0.6344   -0.2113 C.3     1  UNL1       -0.0419
     17 C          -1.9289   -1.2970   -0.8879 C.3     1  UNL1       -0.0246
     18 H           1.4768    4.1231    1.1448 H       1  UNL1        0.0325
     19 H          -0.1701    3.5569    1.0382 H       1  UNL1        0.0325
     20 H           0.7693    3.9779   -0.4622 H       1  UNL1        0.0325
     21 H           3.5132    0.0175    0.8173 H       1  UNL1        0.0638
     22 H           4.2626   -2.2623    0.7477 H       1  UNL1        0.0618
     23 H           2.6628   -4.0096    0.0782 H       1  UNL1        0.0618
     24 H           0.3851   -3.4287   -0.4956 H       1  UNL1        0.0624
     25 H          -3.7287    1.3762   -0.6374 H       1  UNL1        0.0346
     26 H          -3.0882    1.1656    1.0088 H       1  UNL1        0.0346
     27 H          -3.2536   -1.0728    0.7961 H       1  UNL1        0.0273
     28 H          -3.9901   -0.8566   -0.8088 H       1  UNL1        0.0273
     29 H          -1.9873   -2.3909   -0.6988 H       1  UNL1        0.0314
     30 H          -2.0201   -1.1904   -1.9889 H       1  UNL1        0.0314
@<TRIPOS>BOND
     1     1     2    1
     2     2     3    2
     3     2     4   am
     4     4     5   ar
     5     5     6   ar
     6     6     7   ar
     7     7     8   ar
     8     8     9   ar
     9     9    10   ar
    10    10    11   ar
    11    11    12   ar
    12    12    13    1
    13    13    14    2
    14    13    15    1
    15    15    16    1
    16    16    17    1
    17    12     4   ar
    18    10     5   ar
    19    17    11    1
    20     1    18    1
    21     1    19    1
    22     1    20    1
    23     6    21    1
    24     7    22    1
    25     8    23    1
    26     9    24    1
    27    15    25    1
    28    15    26    1
    29    16    27    1
    30    16    28    1
    31    17    29    1
    32    17    30    1
