@<TRIPOS>MOLECULE
*****
 53 56 0 0 0
SMALL
GASTEIGER

@<TRIPOS>ATOM
      1 C           5.4602    3.4355   -0.0651 C.3     1  UNL1       -0.0653
      2 C           4.6942    2.2066   -0.5267 C.3     1  UNL1       -0.0555
      3 C           3.2171    2.4121   -0.3723 C.3     1  UNL1       -0.0465
      4 C           2.4378    1.2142   -0.8261 C.3     1  UNL1        0.0057
      5 C           2.7317   -0.0144   -0.0504 C.ar    1  UNL1        0.1119
      6 N           3.5862   -0.1095    0.9902 N.ar    1  UNL1       -0.2205
      7 C           3.6376   -1.3491    1.4567 C.ar    1  UNL1        0.1527
      8 CL          4.6107   -1.9076    2.7908 Cl      1  UNL1       -0.0600
      9 C           2.7697   -2.0969    0.6749 C.ar    1  UNL1        0.0831
     10 C           2.5533   -3.5431    0.8497 C.3     1  UNL1        0.0872
     11 O           3.6904   -4.2592    0.3708 O.3     1  UNL1       -0.3889
     12 N           2.2309   -1.2622   -0.2321 N.ar    1  UNL1       -0.3239
     13 C           1.2594   -1.6452   -1.2040 C.3     1  UNL1        0.0498
     14 C          -0.1329   -1.3862   -0.7555 C.ar    1  UNL1       -0.0277
     15 C          -0.8262   -2.1432    0.1577 C.ar    1  UNL1       -0.0563
     16 C          -2.1330   -1.8586    0.5171 C.ar    1  UNL1       -0.0537
     17 C          -2.8071   -0.7935   -0.0282 C.ar    1  UNL1       -0.0158
     18 C          -4.1778   -0.5502    0.3925 C.ar    1  UNL1        0.0076
     19 C          -5.0477   -1.6268    0.4743 C.ar    1  UNL1       -0.0520
     20 C          -6.3531   -1.4142    0.8724 C.ar    1  UNL1       -0.0611
     21 C          -6.7815   -0.1387    1.1847 C.ar    1  UNL1       -0.0597
     22 C          -5.8881    0.9061    1.0915 C.ar    1  UNL1       -0.0356
     23 C          -4.5741    0.7282    0.6962 C.ar    1  UNL1        0.0764
     24 N          -3.7002    1.8656    0.6225 N.ar    1  UNL1       -0.1997
     25 C          -2.5372    1.9987    1.2576 C.ar    1  UNL1        0.1437
     26 N          -2.0381    3.1965    0.9249 N.ar    1  UNL1       -0.1165
     27 N          -2.8703    3.7972    0.1011 N.ar    1  UNL1       -0.0230
     28 N          -3.8857    2.9726   -0.0775 N.ar    1  UNL1       -0.0391
     29 C          -2.1463   -0.0145   -0.9445 C.ar    1  UNL1       -0.0537
     30 C          -0.8566   -0.3071   -1.2901 C.ar    1  UNL1       -0.0563
     31 H           6.1301    3.2204    0.7928 H       1  UNL1        0.0230
     32 H           4.7640    4.2561    0.2041 H       1  UNL1        0.0230
     33 H           6.1141    3.7686   -0.8944 H       1  UNL1        0.0230
     34 H           5.0989    1.3608    0.0483 H       1  UNL1        0.0263
     35 H           4.9412    1.9772   -1.6006 H       1  UNL1        0.0263
     36 H           2.9255    3.2607   -1.0464 H       1  UNL1        0.0269
     37 H           2.9362    2.7350    0.6472 H       1  UNL1        0.0269
     38 H           2.7033    1.0396   -1.9004 H       1  UNL1        0.0343
     39 H           1.3401    1.4552   -0.7985 H       1  UNL1        0.0343
     40 H           2.3291   -3.8454    1.8837 H       1  UNL1        0.0623
     41 H           1.7118   -3.9019    0.2060 H       1  UNL1        0.0623
     42 H           3.9872   -3.7531   -0.4339 H       1  UNL1        0.2099
     43 H           1.3969   -1.0729   -2.1691 H       1  UNL1        0.0542
     44 H           1.2973   -2.7387   -1.4360 H       1  UNL1        0.0542
     45 H          -0.3442   -2.9998    0.6256 H       1  UNL1        0.0621
     46 H          -2.6073   -2.5170    1.2536 H       1  UNL1        0.0624
     47 H          -4.6994   -2.6109    0.2283 H       1  UNL1        0.0624
     48 H          -7.0531   -2.2496    0.9430 H       1  UNL1        0.0618
     49 H          -7.8157    0.0086    1.4969 H       1  UNL1        0.0618
     50 H          -6.2241    1.8982    1.3351 H       1  UNL1        0.0639
     51 H          -2.0824    1.2692    1.9207 H       1  UNL1        0.1067
     52 H          -2.6493    0.8347   -1.3952 H       1  UNL1        0.0624
     53 H          -0.3237    0.2923   -2.0148 H       1  UNL1        0.0621
@<TRIPOS>BOND
     1     1     2    1
     2     2     3    1
     3     3     4    1
     4     4     5    1
     5     5     6   ar
     6     6     7   ar
     7     7     8    1
     8     7     9   ar
     9     9    10    1
    10    10    11    1
    11     9    12   ar
    12    12    13    1
    13    13    14    1
    14    14    15   ar
    15    15    16   ar
    16    16    17   ar
    17    17    18    1
    18    18    19   ar
    19    19    20   ar
    20    20    21   ar
    21    21    22   ar
    22    22    23   ar
    23    23    24    1
    24    24    25   ar
    25    25    26   ar
    26    26    27   ar
    27    27    28   ar
    28    17    29   ar
    29    29    30   ar
    30    12     5   ar
    31    30    14   ar
    32    23    18   ar
    33    28    24   ar
    34     1    31    1
    35     1    32    1
    36     1    33    1
    37     2    34    1
    38     2    35    1
    39     3    36    1
    40     3    37    1
    41     4    38    1
    42     4    39    1
    43    10    40    1
    44    10    41    1
    45    11    42    1
    46    13    43    1
    47    13    44    1
    48    15    45    1
    49    16    46    1
    50    19    47    1
    51    20    48    1
    52    21    49    1
    53    22    50    1
    54    25    51    1
    55    29    52    1
    56    30    53    1
