
     RDKit          3D

 53 56  0  0  0  0  0  0  0  0999 V2000
    5.4602    3.4355   -0.0651 C   0  0  0  0  0  0  0  0  0  0  0  0
    4.6942    2.2066   -0.5267 C   0  0  0  0  0  0  0  0  0  0  0  0
    3.2171    2.4121   -0.3723 C   0  0  0  0  0  0  0  0  0  0  0  0
    2.4378    1.2142   -0.8261 C   0  0  0  0  0  0  0  0  0  0  0  0
    2.7317   -0.0144   -0.0504 C   0  0  0  0  0  0  0  0  0  0  0  0
    3.5862   -0.1095    0.9902 N   0  0  0  0  0  0  0  0  0  0  0  0
    3.6376   -1.3491    1.4567 C   0  0  0  0  0  0  0  0  0  0  0  0
    4.6107   -1.9076    2.7908 Cl  0  0  0  0  0  0  0  0  0  0  0  0
    2.7697   -2.0969    0.6749 C   0  0  0  0  0  0  0  0  0  0  0  0
    2.5533   -3.5431    0.8497 C   0  0  0  0  0  0  0  0  0  0  0  0
    3.6904   -4.2592    0.3708 O   0  0  0  0  0  0  0  0  0  0  0  0
    2.2309   -1.2622   -0.2321 N   0  0  0  0  0  0  0  0  0  0  0  0
    1.2594   -1.6452   -1.2040 C   0  0  0  0  0  0  0  0  0  0  0  0
   -0.1329   -1.3862   -0.7555 C   0  0  0  0  0  0  0  0  0  0  0  0
   -0.8262   -2.1432    0.1577 C   0  0  0  0  0  0  0  0  0  0  0  0
   -2.1330   -1.8586    0.5171 C   0  0  0  0  0  0  0  0  0  0  0  0
   -2.8071   -0.7935   -0.0282 C   0  0  0  0  0  0  0  0  0  0  0  0
   -4.1778   -0.5502    0.3925 C   0  0  0  0  0  0  0  0  0  0  0  0
   -5.0477   -1.6268    0.4743 C   0  0  0  0  0  0  0  0  0  0  0  0
   -6.3531   -1.4142    0.8724 C   0  0  0  0  0  0  0  0  0  0  0  0
   -6.7815   -0.1387    1.1847 C   0  0  0  0  0  0  0  0  0  0  0  0
   -5.8881    0.9061    1.0915 C   0  0  0  0  0  0  0  0  0  0  0  0
   -4.5741    0.7282    0.6962 C   0  0  0  0  0  0  0  0  0  0  0  0
   -3.7002    1.8656    0.6225 N   0  0  0  0  0  0  0  0  0  0  0  0
   -2.5372    1.9987    1.2576 C   0  0  0  0  0  0  0  0  0  0  0  0
   -2.0381    3.1965    0.9249 N   0  0  0  0  0  0  0  0  0  0  0  0
   -2.8703    3.7972    0.1011 N   0  0  0  0  0  0  0  0  0  0  0  0
   -3.8857    2.9726   -0.0775 N   0  0  0  0  0  0  0  0  0  0  0  0
   -2.1463   -0.0145   -0.9445 C   0  0  0  0  0  0  0  0  0  0  0  0
   -0.8566   -0.3071   -1.2901 C   0  0  0  0  0  0  0  0  0  0  0  0
    6.1301    3.2204    0.7928 H   0  0  0  0  0  0  0  0  0  0  0  0
    4.7640    4.2561    0.2041 H   0  0  0  0  0  0  0  0  0  0  0  0
    6.1141    3.7686   -0.8944 H   0  0  0  0  0  0  0  0  0  0  0  0
    5.0989    1.3608    0.0483 H   0  0  0  0  0  0  0  0  0  0  0  0
    4.9412    1.9772   -1.6006 H   0  0  0  0  0  0  0  0  0  0  0  0
    2.9255    3.2607   -1.0464 H   0  0  0  0  0  0  0  0  0  0  0  0
    2.9362    2.7350    0.6472 H   0  0  0  0  0  0  0  0  0  0  0  0
    2.7033    1.0396   -1.9004 H   0  0  0  0  0  0  0  0  0  0  0  0
    1.3401    1.4552   -0.7985 H   0  0  0  0  0  0  0  0  0  0  0  0
    2.3291   -3.8454    1.8837 H   0  0  0  0  0  0  0  0  0  0  0  0
    1.7118   -3.9019    0.2060 H   0  0  0  0  0  0  0  0  0  0  0  0
    3.9872   -3.7531   -0.4339 H   0  0  0  0  0  0  0  0  0  0  0  0
    1.3969   -1.0729   -2.1691 H   0  0  0  0  0  0  0  0  0  0  0  0
    1.2973   -2.7387   -1.4360 H   0  0  0  0  0  0  0  0  0  0  0  0
   -0.3442   -2.9998    0.6256 H   0  0  0  0  0  0  0  0  0  0  0  0
   -2.6073   -2.5170    1.2536 H   0  0  0  0  0  0  0  0  0  0  0  0
   -4.6994   -2.6109    0.2283 H   0  0  0  0  0  0  0  0  0  0  0  0
   -7.0531   -2.2496    0.9430 H   0  0  0  0  0  0  0  0  0  0  0  0
   -7.8157    0.0086    1.4969 H   0  0  0  0  0  0  0  0  0  0  0  0
   -6.2241    1.8982    1.3351 H   0  0  0  0  0  0  0  0  0  0  0  0
   -2.0824    1.2692    1.9207 H   0  0  0  0  0  0  0  0  0  0  0  0
   -2.6493    0.8347   -1.3952 H   0  0  0  0  0  0  0  0  0  0  0  0
   -0.3237    0.2923   -2.0148 H   0  0  0  0  0  0  0  0  0  0  0  0
  1  2  1  0
  2  3  1  0
  3  4  1  0
  4  5  1  0
  5  6  2  0
  6  7  1  0
  7  8  1  0
  7  9  2  0
  9 10  1  0
 10 11  1  0
  9 12  1  0
 12 13  1  0
 13 14  1  0
 14 15  2  0
 15 16  1  0
 16 17  2  0
 17 18  1  0
 18 19  2  0
 19 20  1  0
 20 21  2  0
 21 22  1  0
 22 23  2  0
 23 24  1  0
 24 25  1  0
 25 26  2  0
 26 27  1  0
 27 28  2  0
 17 29  1  0
 29 30  2  0
 12  5  1  0
 30 14  1  0
 23 18  1  0
 28 24  1  0
  1 31  1  0
  1 32  1  0
  1 33  1  0
  2 34  1  0
  2 35  1  0
  3 36  1  0
  3 37  1  0
  4 38  1  0
  4 39  1  0
 10 40  1  0
 10 41  1  0
 11 42  1  0
 13 43  1  0
 13 44  1  0
 15 45  1  0
 16 46  1  0
 19 47  1  0
 20 48  1  0
 21 49  1  0
 22 50  1  0
 25 51  1  0
 29 52  1  0
 30 53  1  0
M  END
$$$$
