@<TRIPOS>MOLECULE
*****
 60 64 0 0 0
SMALL
GASTEIGER

@<TRIPOS>ATOM
      1 C          -6.1995   -2.8375    0.3883 C.3     1  UNL1       -0.0437
      2 C          -6.3453   -1.3983    0.7666 C.3     1  UNL1        0.0543
      3 C          -7.0786   -0.6592   -0.3789 C.3     1  UNL1        0.1206
      4 F          -6.3687   -0.9586   -1.5515 F       1  UNL1       -0.2435
      5 C          -6.8371    0.7746   -0.0270 C.3     1  UNL1       -0.0041
      6 C          -5.4839    0.7576    0.6240 C.3     1  UNL1        0.0178
      7 N          -5.1188   -0.6487    0.7858 N.am    1  UNL1       -0.2947
      8 C          -3.7809   -1.1799    0.9187 C.2     1  UNL1        0.2327
      9 O          -3.6039   -2.3941    1.0943 O.2     1  UNL1       -0.2740
     10 C          -2.6583   -0.2374    0.8400 C.3     1  UNL1        0.1054
     11 C          -2.5906    0.4975   -0.5354 C.3     1  UNL1       -0.0220
     12 C          -1.4806   -0.3371    0.0299 C.3     1  UNL1        0.0134
     13 C          -0.2355    0.4154    0.4373 C.3     1  UNL1        0.0935
     14 C           0.3799   -0.2468    1.5993 C.3     1  UNL1       -0.0351
     15 C           0.7569    0.5050   -0.6779 C.ar    1  UNL1        0.0158
     16 C           2.0886    0.1045   -0.4225 C.ar    1  UNL1       -0.0463
     17 C           3.0929    0.2426   -1.3466 C.ar    1  UNL1       -0.0217
     18 C           4.4847   -0.0895   -1.1344 C.2     1  UNL1       -0.0172
     19 C           5.2496    0.2196   -0.1111 C.2     1  UNL1        0.1492
     20 F           4.7611    0.9265    0.9096 F       1  UNL1       -0.2032
     21 C           6.6396   -0.2783   -0.1902 C.ar    1  UNL1        0.0990
     22 C           7.5854    0.0173    0.7578 C.ar    1  UNL1       -0.0322
     23 C           8.8815   -0.5216    0.7117 C.ar    1  UNL1       -0.0408
     24 C           9.2015   -1.3623   -0.3156 C.ar    1  UNL1        0.0699
     25 C          10.4163   -2.1157   -0.4220 C.1     1  UNL1        0.1007
     26 N          11.4210   -2.7485   -0.5297 N.1     1  UNL1       -0.1908
     27 C           8.2172   -1.6423   -1.2794 C.ar    1  UNL1        0.0457
     28 N           7.0215   -1.1051   -1.1750 N.ar    1  UNL1       -0.2514
     29 C           2.7539    0.8026   -2.6004 C.ar    1  UNL1       -0.0518
     30 C           1.4799    1.1820   -2.8557 C.ar    1  UNL1       -0.0255
     31 C           0.4700    1.0466   -1.9140 C.ar    1  UNL1        0.1289
     32 F          -0.7733    1.4134   -2.2036 F       1  UNL1       -0.2051
     33 N          -0.5299    1.7922    0.7818 N.2     1  UNL1       -0.2521
     34 C          -1.4480    2.2189    1.5407 C.2     1  UNL1        0.1485
     35 N          -1.7342    3.5564    1.8803 N.pl3   1  UNL1       -0.3380
     36 S          -2.4903    0.9116    2.2443 S.3     1  UNL1       -0.0746
     37 H          -6.0859   -3.4370    1.2899 H       1  UNL1        0.0248
     38 H          -5.3687   -2.9573   -0.3225 H       1  UNL1        0.0248
     39 H          -7.1556   -3.1188   -0.1219 H       1  UNL1        0.0248
     40 H          -6.9942   -1.2488    1.6272 H       1  UNL1        0.0526
     41 H          -8.1284   -0.9645   -0.4275 H       1  UNL1        0.0670
     42 H          -7.6349    1.0650    0.6785 H       1  UNL1        0.0309
     43 H          -6.8338    1.4166   -0.9545 H       1  UNL1        0.0309
     44 H          -5.5657    1.2338    1.6487 H       1  UNL1        0.0465
     45 H          -4.7851    1.3197    0.0087 H       1  UNL1        0.0465
     46 H          -2.4773    1.6072   -0.4284 H       1  UNL1        0.0287
     47 H          -3.2538    0.1180   -1.2924 H       1  UNL1        0.0287
     48 H          -1.2787   -1.2945   -0.4669 H       1  UNL1        0.0346
     49 H           1.2024    0.3613    2.0517 H       1  UNL1        0.0256
     50 H           0.8376   -1.2276    1.2720 H       1  UNL1        0.0256
     51 H          -0.3790   -0.4922    2.4016 H       1  UNL1        0.0256
     52 H           2.3428   -0.3067    0.5247 H       1  UNL1        0.0628
     53 H           4.9447   -0.6749   -1.9531 H       1  UNL1        0.0653
     54 H           7.3781    0.6668    1.6084 H       1  UNL1        0.0640
     55 H           9.6374   -0.3078    1.4528 H       1  UNL1        0.0631
     56 H           8.5055   -2.3002   -2.0872 H       1  UNL1        0.0843
     57 H           3.5235    0.9026   -3.3294 H       1  UNL1        0.0624
     58 H           1.1743    1.6104   -3.8390 H       1  UNL1        0.0646
     59 H          -1.0043    4.2692    2.0314 H       1  UNL1        0.1442
     60 H          -2.7447    3.8753    1.9876 H       1  UNL1        0.1442
@<TRIPOS>BOND
     1     1     2    1
     2     2     3    1
     3     3     4    1
     4     3     5    1
     5     5     6    1
     6     6     7    1
     7     7     8   am
     8     8     9    2
     9    10     8    1
    10    10    11    1
    11    11    12    1
    12    12    13    1
    13    13    14    1
    14    13    15    1
    15    15    16   ar
    16    16    17   ar
    17    17    18    1
    18    18    19    2
    19    19    20    1
    20    19    21    1
    21    21    22   ar
    22    22    23   ar
    23    23    24   ar
    24    24    25    1
    25    25    26    3
    26    24    27   ar
    27    27    28   ar
    28    17    29   ar
    29    29    30   ar
    30    30    31   ar
    31    31    32    1
    32    13    33    1
    33    33    34    2
    34    34    35    1
    35    34    36    1
    36     7     2    1
    37    12    10    1
    38    31    15   ar
    39    36    10    1
    40    28    21   ar
    41     1    37    1
    42     1    38    1
    43     1    39    1
    44     2    40    1
    45     3    41    1
    46     5    42    1
    47     5    43    1
    48     6    44    1
    49     6    45    1
    50    11    46    1
    51    11    47    1
    52    12    48    1
    53    14    49    1
    54    14    50    1
    55    14    51    1
    56    16    52    1
    57    18    53    1
    58    22    54    1
    59    23    55    1
    60    27    56    1
    61    29    57    1
    62    30    58    1
    63    35    59    1
    64    35    60    1
