
     RDKit          3D

 42 43  0  0  0  0  0  0  0  0999 V2000
    7.6996   -1.0700    0.7227 C   0  0  0  0  0  0  0  0  0  0  0  0
    6.9355    0.2069    0.5512 C   0  0  0  0  0  0  0  0  0  0  0  0
    7.5142    1.2749    0.8790 O   0  0  0  0  0  0  0  0  0  0  0  0
    5.5707    0.0779    0.0104 C   0  0  0  0  0  0  0  0  0  0  0  0
    5.0049   -1.1342   -0.3265 C   0  0  0  0  0  0  0  0  0  0  0  0
    3.7183   -1.1294   -0.8240 C   0  0  0  0  0  0  0  0  0  0  0  0
    3.0076    0.0408   -0.9852 C   0  0  0  0  0  0  0  0  0  0  0  0
    3.6209    1.2376   -0.6315 C   0  0  0  0  0  0  0  0  0  0  0  0
    4.9223    1.2942   -0.1223 C   0  0  0  0  0  0  0  0  0  0  0  0
    1.3925    0.1398   -1.6007 S   0  0  0  0  0  0  0  0  0  0  0  0
    1.0850   -0.9732   -2.5730 O   0  0  0  0  0  0  0  0  0  0  0  0
    1.1240    1.4190   -2.3194 O   0  0  0  0  0  0  0  0  0  0  0  0
    0.2171    0.0292   -0.3146 N   0  0  0  0  0  0  0  0  0  0  0  0
   -1.1511    0.0924   -0.6388 C   0  0  0  0  0  0  0  0  0  0  0  0
   -1.4191    0.2288   -1.8791 O   0  0  0  0  0  0  0  0  0  0  0  0
   -2.1307    0.0078    0.3609 N   0  0  0  0  0  0  0  0  0  0  0  0
   -3.5265    0.0719    0.0335 C   0  0  0  0  0  0  0  0  0  0  0  0
   -4.2774   -1.2087    0.3133 C   0  0  0  0  0  0  0  0  0  0  0  0
   -5.6572   -1.0053   -0.3248 C   0  0  0  0  0  0  0  0  0  0  0  0
   -6.4092   -0.0533    0.5589 C   0  0  0  0  0  0  0  0  0  0  0  0
   -5.5176    0.8744    1.3282 C   0  0  0  0  0  0  0  0  0  0  0  0
   -4.2422    1.2350    0.6329 C   0  0  0  0  0  0  0  0  0  0  0  0
    8.7633   -0.8723    0.9681 H   0  0  0  0  0  0  0  0  0  0  0  0
    7.2576   -1.6660    1.5396 H   0  0  0  0  0  0  0  0  0  0  0  0
    7.6710   -1.6735   -0.2082 H   0  0  0  0  0  0  0  0  0  0  0  0
    5.5818   -2.0384   -0.1912 H   0  0  0  0  0  0  0  0  0  0  0  0
    3.2384   -2.0581   -1.1000 H   0  0  0  0  0  0  0  0  0  0  0  0
    3.0927    2.1959   -0.7427 H   0  0  0  0  0  0  0  0  0  0  0  0
    5.3378    2.2416    0.1307 H   0  0  0  0  0  0  0  0  0  0  0  0
    0.4678   -0.0820    0.6897 H   0  0  0  0  0  0  0  0  0  0  0  0
   -1.8825   -0.1043    1.3748 H   0  0  0  0  0  0  0  0  0  0  0  0
   -3.5814    0.1913   -1.0884 H   0  0  0  0  0  0  0  0  0  0  0  0
   -3.8322   -2.0663   -0.2187 H   0  0  0  0  0  0  0  0  0  0  0  0
   -4.3858   -1.3133    1.3923 H   0  0  0  0  0  0  0  0  0  0  0  0
   -5.4586   -0.5705   -1.3327 H   0  0  0  0  0  0  0  0  0  0  0  0
   -6.1041   -2.0062   -0.4188 H   0  0  0  0  0  0  0  0  0  0  0  0
   -6.9849   -0.6801    1.2754 H   0  0  0  0  0  0  0  0  0  0  0  0
   -7.1657    0.4839   -0.0705 H   0  0  0  0  0  0  0  0  0  0  0  0
   -6.0969    1.8311    1.4741 H   0  0  0  0  0  0  0  0  0  0  0  0
   -5.3442    0.4880    2.3525 H   0  0  0  0  0  0  0  0  0  0  0  0
   -4.4565    2.0486   -0.0931 H   0  0  0  0  0  0  0  0  0  0  0  0
   -3.5992    1.7313    1.4162 H   0  0  0  0  0  0  0  0  0  0  0  0
  1  2  1  0
  2  3  2  0
  2  4  1  0
  4  5  2  0
  5  6  1  0
  6  7  2  0
  7  8  1  0
  8  9  2  0
  7 10  1  0
 10 11  2  0
 10 12  2  0
 10 13  1  0
 13 14  1  0
 14 15  2  0
 14 16  1  0
 16 17  1  0
 17 18  1  0
 18 19  1  0
 19 20  1  0
 20 21  1  0
 21 22  1  0
  9  4  1  0
 22 17  1  0
  1 23  1  0
  1 24  1  0
  1 25  1  0
  5 26  1  0
  6 27  1  0
  8 28  1  0
  9 29  1  0
 13 30  1  0
 16 31  1  0
 17 32  1  0
 18 33  1  0
 18 34  1  0
 19 35  1  0
 19 36  1  0
 20 37  1  0
 20 38  1  0
 21 39  1  0
 21 40  1  0
 22 41  1  0
 22 42  1  0
M  END
$$$$
