@<TRIPOS>MOLECULE
*****
 42 43 0 0 0
SMALL
GASTEIGER

@<TRIPOS>ATOM
      1 C           7.6996   -1.0700    0.7227 C.3     1  UNL1       -0.0014
      2 C           6.9355    0.2069    0.5512 C.2     1  UNL1        0.1601
      3 O           7.5142    1.2749    0.8790 O.2     1  UNL1       -0.2924
      4 C           5.5707    0.0779    0.0104 C.ar    1  UNL1        0.0172
      5 C           5.0049   -1.1342   -0.3265 C.ar    1  UNL1       -0.0494
      6 C           3.7183   -1.1294   -0.8240 C.ar    1  UNL1       -0.0344
      7 C           3.0076    0.0408   -0.9852 C.ar    1  UNL1        0.1087
      8 C           3.6209    1.2376   -0.6315 C.ar    1  UNL1       -0.0344
      9 C           4.9223    1.2942   -0.1223 C.ar    1  UNL1       -0.0494
     10 S           1.3925    0.1398   -1.6007 S.O2    1  UNL1        0.0756
     11 O           1.0850   -0.9732   -2.5730 O.2     1  UNL1       -0.1499
     12 O           1.1240    1.4190   -2.3194 O.2     1  UNL1       -0.1499
     13 N           0.2171    0.0292   -0.3146 N.am    1  UNL1       -0.1693
     14 C          -1.1511    0.0924   -0.6388 C.2     1  UNL1        0.3191
     15 O          -1.4191    0.2288   -1.8791 O.2     1  UNL1       -0.2512
     16 N          -2.1307    0.0078    0.3609 N.am    1  UNL1       -0.2953
     17 C          -3.5265    0.0719    0.0335 C.3     1  UNL1        0.0246
     18 C          -4.2774   -1.2087    0.3133 C.3     1  UNL1       -0.0345
     19 C          -5.6572   -1.0053   -0.3248 C.3     1  UNL1       -0.0514
     20 C          -6.4092   -0.0533    0.5589 C.3     1  UNL1       -0.0529
     21 C          -5.5176    0.8744    1.3282 C.3     1  UNL1       -0.0514
     22 C          -4.2422    1.2350    0.6329 C.3     1  UNL1       -0.0345
     23 H           8.7633   -0.8723    0.9681 H       1  UNL1        0.0309
     24 H           7.2576   -1.6660    1.5396 H       1  UNL1        0.0309
     25 H           7.6710   -1.6735   -0.2082 H       1  UNL1        0.0309
     26 H           5.5818   -2.0384   -0.1912 H       1  UNL1        0.0625
     27 H           3.2384   -2.0581   -1.1000 H       1  UNL1        0.0637
     28 H           3.0927    2.1959   -0.7427 H       1  UNL1        0.0637
     29 H           5.3378    2.2416    0.1307 H       1  UNL1        0.0625
     30 H           0.4678   -0.0820    0.6897 H       1  UNL1        0.1781
     31 H          -1.8825   -0.1043    1.3748 H       1  UNL1        0.1506
     32 H          -3.5814    0.1913   -1.0884 H       1  UNL1        0.0499
     33 H          -3.8322   -2.0663   -0.2187 H       1  UNL1        0.0283
     34 H          -4.3858   -1.3133    1.3923 H       1  UNL1        0.0283
     35 H          -5.4586   -0.5705   -1.3327 H       1  UNL1        0.0266
     36 H          -6.1041   -2.0062   -0.4188 H       1  UNL1        0.0266
     37 H          -6.9849   -0.6801    1.2754 H       1  UNL1        0.0265
     38 H          -7.1657    0.4839   -0.0705 H       1  UNL1        0.0265
     39 H          -6.0969    1.8311    1.4741 H       1  UNL1        0.0266
     40 H          -5.3442    0.4880    2.3525 H       1  UNL1        0.0266
     41 H          -4.4565    2.0486   -0.0931 H       1  UNL1        0.0283
     42 H          -3.5992    1.7313    1.4162 H       1  UNL1        0.0283
@<TRIPOS>BOND
     1     1     2    1
     2     2     3    2
     3     2     4    1
     4     4     5   ar
     5     5     6   ar
     6     6     7   ar
     7     7     8   ar
     8     8     9   ar
     9     7    10    1
    10    10    11    2
    11    10    12    2
    12    10    13    1
    13    13    14   am
    14    14    15    2
    15    14    16   am
    16    16    17    1
    17    17    18    1
    18    18    19    1
    19    19    20    1
    20    20    21    1
    21    21    22    1
    22     9     4   ar
    23    22    17    1
    24     1    23    1
    25     1    24    1
    26     1    25    1
    27     5    26    1
    28     6    27    1
    29     8    28    1
    30     9    29    1
    31    13    30    1
    32    16    31    1
    33    17    32    1
    34    18    33    1
    35    18    34    1
    36    19    35    1
    37    19    36    1
    38    20    37    1
    39    20    38    1
    40    21    39    1
    41    21    40    1
    42    22    41    1
    43    22    42    1
