
     RDKit          3D

 57 61  0  0  0  0  0  0  0  0999 V2000
   -2.6271   -0.0749   -2.3584 N   0  0  0  0  0  0  0  0  0  0  0  0
   -1.6675   -0.2815   -1.4863 C   0  0  0  0  0  0  0  0  0  0  0  0
   -0.5051   -1.0509   -1.7197 N   0  0  0  0  0  0  0  0  0  0  0  0
    0.2225   -1.1198   -0.4742 C   0  0  0  0  0  0  0  0  0  0  0  0
    0.0082   -2.5364    0.0162 C   0  0  0  0  0  0  0  0  0  0  0  0
   -0.2878   -3.5736   -0.8393 C   0  0  0  0  0  0  0  0  0  0  0  0
   -0.4787   -4.8654   -0.3834 C   0  0  0  0  0  0  0  0  0  0  0  0
   -0.3653   -5.1022    0.9706 C   0  0  0  0  0  0  0  0  0  0  0  0
   -0.0702   -4.0854    1.8515 C   0  0  0  0  0  0  0  0  0  0  0  0
    0.1173   -2.7873    1.3557 C   0  0  0  0  0  0  0  0  0  0  0  0
    1.6695   -0.8799   -0.6738 C   0  0  0  0  0  0  0  0  0  0  0  0
    2.3563   -1.7459   -1.4975 C   0  0  0  0  0  0  0  0  0  0  0  0
    3.7187   -1.5560   -1.7208 C   0  0  0  0  0  0  0  0  0  0  0  0
    4.4200   -0.5201   -1.1420 C   0  0  0  0  0  0  0  0  0  0  0  0
    3.7183    0.3360   -0.3217 C   0  0  0  0  0  0  0  0  0  0  0  0
    4.3726    1.4517    0.3284 C   0  0  0  0  0  0  0  0  0  0  0  0
    3.9535    1.9057    1.5423 C   0  0  0  0  0  0  0  0  0  0  0  0
    4.5767    2.9627    2.1531 C   0  0  0  0  0  0  0  0  0  0  0  0
    5.6388    3.5566    1.5093 C   0  0  0  0  0  0  0  0  0  0  0  0
    6.0698    3.1333    0.3214 N   0  0  0  0  0  0  0  0  0  0  0  0
    5.4456    2.0949   -0.2615 C   0  0  0  0  0  0  0  0  0  0  0  0
    2.3518    0.1532   -0.0922 C   0  0  0  0  0  0  0  0  0  0  0  0
   -0.4550   -0.2151    0.4290 C   0  0  0  0  0  0  0  0  0  0  0  0
   -0.1148    0.1754    1.5988 O   0  0  0  0  0  0  0  0  0  0  0  0
   -1.6548    0.2401   -0.1729 N   0  0  0  0  0  0  0  0  0  0  0  0
   -2.6922    1.0909    0.4399 C   0  0  0  0  0  0  0  0  0  0  0  0
   -3.9724    0.3278    0.4284 C   0  0  0  0  0  0  0  0  0  0  0  0
   -5.1941    1.2045    0.5621 C   0  0  0  0  0  0  0  0  0  0  0  0
   -5.1618    2.4141   -0.3149 C   0  0  0  0  0  0  0  0  0  0  0  0
   -3.9233    3.2156    0.0429 C   0  0  0  0  0  0  0  0  0  0  0  0
   -2.7286    2.3758   -0.3376 C   0  0  0  0  0  0  0  0  0  0  0  0
   -2.5793   -0.4880   -3.3156 H   0  0  0  0  0  0  0  0  0  0  0  0
   -0.2307   -1.4923   -2.6500 H   0  0  0  0  0  0  0  0  0  0  0  0
   -0.3740   -3.3796   -1.8828 H   0  0  0  0  0  0  0  0  0  0  0  0
   -0.7122   -5.6879   -1.0525 H   0  0  0  0  0  0  0  0  0  0  0  0
   -0.5137   -6.1145    1.3404 H   0  0  0  0  0  0  0  0  0  0  0  0
    0.0182   -4.2793    2.9241 H   0  0  0  0  0  0  0  0  0  0  0  0
    0.3477   -2.0372    2.1026 H   0  0  0  0  0  0  0  0  0  0  0  0
    1.8824   -2.5840   -1.9905 H   0  0  0  0  0  0  0  0  0  0  0  0
    4.2647   -2.2303   -2.3655 H   0  0  0  0  0  0  0  0  0  0  0  0
    5.4802   -0.3630   -1.3087 H   0  0  0  0  0  0  0  0  0  0  0  0
    3.1258    1.4444    2.0467 H   0  0  0  0  0  0  0  0  0  0  0  0
    4.2233    3.3097    3.1268 H   0  0  0  0  0  0  0  0  0  0  0  0
    6.1296    4.4044    2.0111 H   0  0  0  0  0  0  0  0  0  0  0  0
    5.8047    1.7628   -1.2229 H   0  0  0  0  0  0  0  0  0  0  0  0
    1.8055    0.8300    0.5489 H   0  0  0  0  0  0  0  0  0  0  0  0
   -2.4115    1.3459    1.4798 H   0  0  0  0  0  0  0  0  0  0  0  0
   -3.9674   -0.3219    1.3543 H   0  0  0  0  0  0  0  0  0  0  0  0
   -4.0865   -0.3836   -0.4093 H   0  0  0  0  0  0  0  0  0  0  0  0
   -6.0736    0.5854    0.2436 H   0  0  0  0  0  0  0  0  0  0  0  0
   -5.3476    1.5315    1.6114 H   0  0  0  0  0  0  0  0  0  0  0  0
   -6.0488    3.0206   -0.1004 H   0  0  0  0  0  0  0  0  0  0  0  0
   -5.1293    2.1569   -1.3934 H   0  0  0  0  0  0  0  0  0  0  0  0
   -3.8854    4.1519   -0.5356 H   0  0  0  0  0  0  0  0  0  0  0  0
   -3.9355    3.4193    1.1196 H   0  0  0  0  0  0  0  0  0  0  0  0
   -1.8209    2.9695   -0.0250 H   0  0  0  0  0  0  0  0  0  0  0  0
   -2.7067    2.1855   -1.4100 H   0  0  0  0  0  0  0  0  0  0  0  0
  1  2  2  3
  2  3  1  0
  3  4  1  0
  4  5  1  0
  5  6  2  0
  6  7  1  0
  7  8  2  0
  8  9  1  0
  9 10  2  0
  4 11  1  0
 11 12  2  0
 12 13  1  0
 13 14  2  0
 14 15  1  0
 15 16  1  0
 16 17  2  0
 17 18  1  0
 18 19  2  0
 19 20  1  0
 20 21  2  0
 15 22  2  0
  4 23  1  0
 23 24  2  0
 23 25  1  0
 25 26  1  0
 26 27  1  0
 27 28  1  0
 28 29  1  0
 29 30  1  0
 30 31  1  0
 25  2  1  0
 31 26  1  0
 10  5  1  0
 22 11  1  0
 21 16  1  0
  1 32  1  0
  3 33  1  0
  6 34  1  0
  7 35  1  0
  8 36  1  0
  9 37  1  0
 10 38  1  0
 12 39  1  0
 13 40  1  0
 14 41  1  0
 17 42  1  0
 18 43  1  0
 19 44  1  0
 21 45  1  0
 22 46  1  0
 26 47  1  0
 27 48  1  0
 27 49  1  0
 28 50  1  0
 28 51  1  0
 29 52  1  0
 29 53  1  0
 30 54  1  0
 30 55  1  0
 31 56  1  0
 31 57  1  0
M  END
$$$$
