@<TRIPOS>MOLECULE
*****
 57 61 0 0 0
SMALL
GASTEIGER

@<TRIPOS>ATOM
      1 N          -2.6271   -0.0749   -2.3584 N.2     1  UNL1       -0.1329
      2 C          -1.6675   -0.2815   -1.4863 C.2     1  UNL1        0.3729
      3 N          -0.5051   -1.0509   -1.7197 N.pl3   1  UNL1       -0.2151
      4 C           0.2225   -1.1198   -0.4742 C.3     1  UNL1        0.2215
      5 C           0.0082   -2.5364    0.0162 C.ar    1  UNL1        0.0053
      6 C          -0.2878   -3.5736   -0.8393 C.ar    1  UNL1       -0.0543
      7 C          -0.4787   -4.8654   -0.3834 C.ar    1  UNL1       -0.0614
      8 C          -0.3653   -5.1022    0.9706 C.ar    1  UNL1       -0.0617
      9 C          -0.0702   -4.0854    1.8515 C.ar    1  UNL1       -0.0614
     10 C           0.1173   -2.7873    1.3557 C.ar    1  UNL1       -0.0543
     11 C           1.6695   -0.8799   -0.6738 C.ar    1  UNL1        0.0058
     12 C           2.3563   -1.7459   -1.4975 C.ar    1  UNL1       -0.0543
     13 C           3.7187   -1.5560   -1.7208 C.ar    1  UNL1       -0.0608
     14 C           4.4200   -0.5201   -1.1420 C.ar    1  UNL1       -0.0540
     15 C           3.7183    0.3360   -0.3217 C.ar    1  UNL1       -0.0160
     16 C           4.3726    1.4517    0.3284 C.ar    1  UNL1        0.0002
     17 C           3.9535    1.9057    1.5423 C.ar    1  UNL1       -0.0512
     18 C           4.5767    2.9627    2.1531 C.ar    1  UNL1       -0.0430
     19 C           5.6388    3.5566    1.5093 C.ar    1  UNL1        0.0276
     20 N           6.0698    3.1333    0.3214 N.ar    1  UNL1       -0.2627
     21 C           5.4456    2.0949   -0.2615 C.ar    1  UNL1        0.0352
     22 C           2.3518    0.1532   -0.0922 C.ar    1  UNL1       -0.0465
     23 C          -0.4550   -0.2151    0.4290 C.2     1  UNL1        0.3252
     24 O          -0.1148    0.1754    1.5988 O.2     1  UNL1       -0.2524
     25 N          -1.6548    0.2401   -0.1729 N.am    1  UNL1       -0.1561
     26 C          -2.6922    1.0909    0.4399 C.3     1  UNL1        0.0795
     27 C          -3.9724    0.3278    0.4284 C.3     1  UNL1       -0.0205
     28 C          -5.1941    1.2045    0.5621 C.3     1  UNL1       -0.0501
     29 C          -5.1618    2.4141   -0.3149 C.3     1  UNL1       -0.0529
     30 C          -3.9233    3.2156    0.0429 C.3     1  UNL1       -0.0501
     31 C          -2.7286    2.3758   -0.3376 C.3     1  UNL1       -0.0205
     32 H          -2.5793   -0.4880   -3.3156 H       1  UNL1        0.3058
     33 H          -0.2307   -1.4923   -2.6500 H       1  UNL1        0.2462
     34 H          -0.3740   -3.3796   -1.8828 H       1  UNL1        0.0622
     35 H          -0.7122   -5.6879   -1.0525 H       1  UNL1        0.0618
     36 H          -0.5137   -6.1145    1.3404 H       1  UNL1        0.0618
     37 H           0.0182   -4.2793    2.9241 H       1  UNL1        0.0618
     38 H           0.3477   -2.0372    2.1026 H       1  UNL1        0.0622
     39 H           1.8824   -2.5840   -1.9905 H       1  UNL1        0.0622
     40 H           4.2647   -2.2303   -2.3655 H       1  UNL1        0.0618
     41 H           5.4802   -0.3630   -1.3087 H       1  UNL1        0.0624
     42 H           3.1258    1.4444    2.0467 H       1  UNL1        0.0625
     43 H           4.2233    3.3097    3.1268 H       1  UNL1        0.0633
     44 H           6.1296    4.4044    2.0111 H       1  UNL1        0.0829
     45 H           5.8047    1.7628   -1.2229 H       1  UNL1        0.0836
     46 H           1.8055    0.8300    0.5489 H       1  UNL1        0.0628
     47 H          -2.4115    1.3459    1.4798 H       1  UNL1        0.0675
     48 H          -3.9674   -0.3219    1.3543 H       1  UNL1        0.0297
     49 H          -4.0865   -0.3836   -0.4093 H       1  UNL1        0.0297
     50 H          -6.0736    0.5854    0.2436 H       1  UNL1        0.0266
     51 H          -5.3476    1.5315    1.6114 H       1  UNL1        0.0266
     52 H          -6.0488    3.0206   -0.1004 H       1  UNL1        0.0265
     53 H          -5.1293    2.1569   -1.3934 H       1  UNL1        0.0265
     54 H          -3.8854    4.1519   -0.5356 H       1  UNL1        0.0266
     55 H          -3.9355    3.4193    1.1196 H       1  UNL1        0.0266
     56 H          -1.8209    2.9695   -0.0250 H       1  UNL1        0.0297
     57 H          -2.7067    2.1855   -1.4100 H       1  UNL1        0.0297
@<TRIPOS>BOND
     1     1     2    2
     2     2     3    1
     3     3     4    1
     4     4     5    1
     5     5     6   ar
     6     6     7   ar
     7     7     8   ar
     8     8     9   ar
     9     9    10   ar
    10     4    11    1
    11    11    12   ar
    12    12    13   ar
    13    13    14   ar
    14    14    15   ar
    15    15    16    1
    16    16    17   ar
    17    17    18   ar
    18    18    19   ar
    19    19    20   ar
    20    20    21   ar
    21    15    22   ar
    22     4    23    1
    23    23    24    2
    24    23    25   am
    25    25    26    1
    26    26    27    1
    27    27    28    1
    28    28    29    1
    29    29    30    1
    30    30    31    1
    31    25     2    1
    32    31    26    1
    33    10     5   ar
    34    22    11   ar
    35    21    16   ar
    36     1    32    1
    37     3    33    1
    38     6    34    1
    39     7    35    1
    40     8    36    1
    41     9    37    1
    42    10    38    1
    43    12    39    1
    44    13    40    1
    45    14    41    1
    46    17    42    1
    47    18    43    1
    48    19    44    1
    49    21    45    1
    50    22    46    1
    51    26    47    1
    52    27    48    1
    53    27    49    1
    54    28    50    1
    55    28    51    1
    56    29    52    1
    57    29    53    1
    58    30    54    1
    59    30    55    1
    60    31    56    1
    61    31    57    1
