@<TRIPOS>MOLECULE
*****
 68 71 0 0 0
SMALL
GASTEIGER

@<TRIPOS>ATOM
      1 C           6.4843    3.7001    0.2375 C.3     1  UNL1       -0.0651
      2 C           6.3182    2.2852   -0.3492 C.3     1  UNL1       -0.0520
      3 C           5.8050    1.4387    0.7620 C.3     1  UNL1       -0.0054
      4 C           5.5957   -0.0024    0.2522 C.3     1  UNL1        0.1958
      5 O           5.1099   -0.6988    1.3604 O.3     1  UNL1       -0.4776
      6 C           3.9121   -1.3758    1.4124 C.ar    1  UNL1        0.1220
      7 C           3.6086   -2.0105    2.6305 C.ar    1  UNL1       -0.0199
      8 C           2.4237   -2.6927    2.7144 C.ar    1  UNL1       -0.0580
      9 C           1.5588   -2.7551    1.6428 C.ar    1  UNL1       -0.0580
     10 C           1.8599   -2.1328    0.4544 C.ar    1  UNL1       -0.0395
     11 C           0.9620   -2.2145   -0.6894 C.3     1  UNL1       -0.0000
     12 C          -0.2640   -1.4252   -0.6272 C.ar    1  UNL1       -0.0143
     13 C          -0.4622   -0.1057   -0.8206 C.ar    1  UNL1        0.0282
     14 C           0.5697    0.8715   -1.1658 C.3     1  UNL1       -0.0235
     15 N          -1.7903    0.1995   -0.6491 N.ar    1  UNL1       -0.2801
     16 C          -2.3575    1.4628   -0.8429 C.2     1  UNL1        0.2631
     17 O          -1.5656    2.3023   -1.4811 O.2     1  UNL1       -0.2667
     18 C          -3.6367    1.9980   -0.4655 C.ar    1  UNL1        0.0401
     19 C          -4.2751    2.9058   -1.3175 C.ar    1  UNL1       -0.0460
     20 C          -5.4468    3.5274   -0.9506 C.ar    1  UNL1       -0.0192
     21 C          -6.0421    3.2845    0.2682 C.ar    1  UNL1        0.1201
     22 O          -7.2227    3.9084    0.6408 O.3     1  UNL1       -0.4951
     23 C          -7.9356    4.8238   -0.1319 C.3     1  UNL1        0.0788
     24 C          -5.4173    2.3928    1.1086 C.ar    1  UNL1       -0.0192
     25 C          -4.2349    1.7726    0.7259 C.ar    1  UNL1       -0.0460
     26 C          -2.4293   -0.9497   -0.3484 C.ar    1  UNL1        0.0574
     27 C          -3.7427   -1.3298   -0.1026 C.ar    1  UNL1       -0.0337
     28 C          -4.0937   -2.6570    0.1553 C.ar    1  UNL1       -0.0176
     29 C          -3.1624   -3.6562    0.1781 C.ar    1  UNL1        0.1307
     30 O          -3.4988   -4.9866    0.4362 O.3     1  UNL1       -0.4057
     31 C          -3.8457   -5.8789   -0.6102 C.3     1  UNL1        0.5752
     32 F          -4.9393   -5.4193   -1.2788 F       1  UNL1       -0.1328
     33 F          -2.7671   -6.0714   -1.4578 F       1  UNL1       -0.1328
     34 F          -4.1398   -7.0965   -0.0182 F       1  UNL1       -0.1328
     35 C          -1.8600   -3.3016   -0.0663 C.ar    1  UNL1       -0.0102
     36 C          -1.5038   -2.0005   -0.3219 C.ar    1  UNL1        0.0075
     37 C           3.0474   -1.4470    0.3633 C.ar    1  UNL1       -0.0164
     38 C           6.9092   -0.6363   -0.0897 C.2     1  UNL1        0.3459
     39 O           7.4079   -1.5825    0.5943 O.2     1  UNL1       -0.2468
     40 O           7.6510   -0.2276   -1.1697 O.3     1  UNL1       -0.4781
     41 H           5.7315    3.8578    1.0269 H       1  UNL1        0.0230
     42 H           7.4870    3.7081    0.7461 H       1  UNL1        0.0230
     43 H           6.4003    4.4434   -0.5605 H       1  UNL1        0.0230
     44 H           5.6315    2.3742   -1.2003 H       1  UNL1        0.0264
     45 H           7.3088    1.9810   -0.7220 H       1  UNL1        0.0264
     46 H           4.8479    1.8470    1.1359 H       1  UNL1        0.0306
     47 H           6.4802    1.3584    1.6166 H       1  UNL1        0.0306
     48 H           4.9470    0.0046   -0.6386 H       1  UNL1        0.0852
     49 H           4.3110   -1.9457    3.4639 H       1  UNL1        0.0654
     50 H           2.1924   -3.1865    3.6688 H       1  UNL1        0.0619
     51 H           0.6451   -3.2937    1.7404 H       1  UNL1        0.0620
     52 H           1.4895   -1.9681   -1.6620 H       1  UNL1        0.0362
     53 H           0.7153   -3.3089   -0.8248 H       1  UNL1        0.0362
     54 H           0.4805    1.7886   -0.5118 H       1  UNL1        0.0292
     55 H           0.3528    1.2473   -2.2120 H       1  UNL1        0.0292
     56 H           1.5832    0.4903   -1.2051 H       1  UNL1        0.0292
     57 H          -3.7988    3.0978   -2.2876 H       1  UNL1        0.0626
     58 H          -5.9401    4.2358   -1.6190 H       1  UNL1        0.0654
     59 H          -7.9083    4.4563   -1.1992 H       1  UNL1        0.0660
     60 H          -9.0124    4.8805    0.1606 H       1  UNL1        0.0660
     61 H          -7.5542    5.8449   -0.1295 H       1  UNL1        0.0660
     62 H          -5.8913    2.1983    2.0809 H       1  UNL1        0.0654
     63 H          -3.7643    1.0737    1.4322 H       1  UNL1        0.0626
     64 H          -4.5118   -0.5824   -0.1513 H       1  UNL1        0.0640
     65 H          -5.1306   -2.8888    0.3405 H       1  UNL1        0.0655
     66 H          -1.1132   -4.0917   -0.0508 H       1  UNL1        0.0661
     67 H           3.2887   -0.9650   -0.5863 H       1  UNL1        0.0657
     68 H           8.1422   -0.8762   -1.7838 H       1  UNL1        0.2952
@<TRIPOS>BOND
     1     1     2    1
     2     2     3    1
     3     3     4    1
     4     4     5    1
     5     5     6    1
     6     6     7   ar
     7     7     8   ar
     8     8     9   ar
     9     9    10   ar
    10    10    11    1
    11    11    12    1
    12    12    13   ar
    13    13    14    1
    14    13    15   ar
    15    15    16   am
    16    16    17    2
    17    16    18    1
    18    18    19   ar
    19    19    20   ar
    20    20    21   ar
    21    21    22    1
    22    22    23    1
    23    21    24   ar
    24    24    25   ar
    25    15    26   ar
    26    26    27   ar
    27    27    28   ar
    28    28    29   ar
    29    29    30    1
    30    30    31    1
    31    31    32    1
    32    31    33    1
    33    31    34    1
    34    29    35   ar
    35    35    36   ar
    36    10    37   ar
    37     4    38    1
    38    38    39    2
    39    38    40    1
    40    37     6   ar
    41    36    12   ar
    42    25    18   ar
    43    36    26   ar
    44     1    41    1
    45     1    42    1
    46     1    43    1
    47     2    44    1
    48     2    45    1
    49     3    46    1
    50     3    47    1
    51     4    48    1
    52     7    49    1
    53     8    50    1
    54     9    51    1
    55    11    52    1
    56    11    53    1
    57    14    54    1
    58    14    55    1
    59    14    56    1
    60    19    57    1
    61    20    58    1
    62    23    59    1
    63    23    60    1
    64    23    61    1
    65    24    62    1
    66    25    63    1
    67    27    64    1
    68    28    65    1
    69    35    66    1
    70    37    67    1
    71    40    68    1
