
     RDKit          3D

 68 71  0  0  0  0  0  0  0  0999 V2000
    6.4843    3.7001    0.2375 C   0  0  0  0  0  0  0  0  0  0  0  0
    6.3182    2.2852   -0.3492 C   0  0  0  0  0  0  0  0  0  0  0  0
    5.8050    1.4387    0.7620 C   0  0  0  0  0  0  0  0  0  0  0  0
    5.5957   -0.0024    0.2522 C   0  0  0  0  0  0  0  0  0  0  0  0
    5.1099   -0.6988    1.3604 O   0  0  0  0  0  0  0  0  0  0  0  0
    3.9121   -1.3758    1.4124 C   0  0  0  0  0  0  0  0  0  0  0  0
    3.6086   -2.0105    2.6305 C   0  0  0  0  0  0  0  0  0  0  0  0
    2.4237   -2.6927    2.7144 C   0  0  0  0  0  0  0  0  0  0  0  0
    1.5588   -2.7551    1.6428 C   0  0  0  0  0  0  0  0  0  0  0  0
    1.8599   -2.1328    0.4544 C   0  0  0  0  0  0  0  0  0  0  0  0
    0.9620   -2.2145   -0.6894 C   0  0  0  0  0  0  0  0  0  0  0  0
   -0.2640   -1.4252   -0.6272 C   0  0  0  0  0  0  0  0  0  0  0  0
   -0.4622   -0.1057   -0.8206 C   0  0  0  0  0  0  0  0  0  0  0  0
    0.5697    0.8715   -1.1658 C   0  0  0  0  0  0  0  0  0  0  0  0
   -1.7903    0.1995   -0.6491 N   0  0  0  0  0  0  0  0  0  0  0  0
   -2.3575    1.4628   -0.8429 C   0  0  0  0  0  0  0  0  0  0  0  0
   -1.5656    2.3023   -1.4811 O   0  0  0  0  0  0  0  0  0  0  0  0
   -3.6367    1.9980   -0.4655 C   0  0  0  0  0  0  0  0  0  0  0  0
   -4.2751    2.9058   -1.3175 C   0  0  0  0  0  0  0  0  0  0  0  0
   -5.4468    3.5274   -0.9506 C   0  0  0  0  0  0  0  0  0  0  0  0
   -6.0421    3.2845    0.2682 C   0  0  0  0  0  0  0  0  0  0  0  0
   -7.2227    3.9084    0.6408 O   0  0  0  0  0  0  0  0  0  0  0  0
   -7.9356    4.8238   -0.1319 C   0  0  0  0  0  0  0  0  0  0  0  0
   -5.4173    2.3928    1.1086 C   0  0  0  0  0  0  0  0  0  0  0  0
   -4.2349    1.7726    0.7259 C   0  0  0  0  0  0  0  0  0  0  0  0
   -2.4293   -0.9497   -0.3484 C   0  0  0  0  0  0  0  0  0  0  0  0
   -3.7427   -1.3298   -0.1026 C   0  0  0  0  0  0  0  0  0  0  0  0
   -4.0937   -2.6570    0.1553 C   0  0  0  0  0  0  0  0  0  0  0  0
   -3.1624   -3.6562    0.1781 C   0  0  0  0  0  0  0  0  0  0  0  0
   -3.4988   -4.9866    0.4362 O   0  0  0  0  0  0  0  0  0  0  0  0
   -3.8457   -5.8789   -0.6102 C   0  0  0  0  0  0  0  0  0  0  0  0
   -4.9393   -5.4193   -1.2788 F   0  0  0  0  0  0  0  0  0  0  0  0
   -2.7671   -6.0714   -1.4578 F   0  0  0  0  0  0  0  0  0  0  0  0
   -4.1398   -7.0965   -0.0182 F   0  0  0  0  0  0  0  0  0  0  0  0
   -1.8600   -3.3016   -0.0663 C   0  0  0  0  0  0  0  0  0  0  0  0
   -1.5038   -2.0005   -0.3219 C   0  0  0  0  0  0  0  0  0  0  0  0
    3.0474   -1.4470    0.3633 C   0  0  0  0  0  0  0  0  0  0  0  0
    6.9092   -0.6363   -0.0897 C   0  0  0  0  0  0  0  0  0  0  0  0
    7.4079   -1.5825    0.5943 O   0  0  0  0  0  0  0  0  0  0  0  0
    7.6510   -0.2276   -1.1697 O   0  0  0  0  0  0  0  0  0  0  0  0
    5.7315    3.8578    1.0269 H   0  0  0  0  0  0  0  0  0  0  0  0
    7.4870    3.7081    0.7461 H   0  0  0  0  0  0  0  0  0  0  0  0
    6.4003    4.4434   -0.5605 H   0  0  0  0  0  0  0  0  0  0  0  0
    5.6315    2.3742   -1.2003 H   0  0  0  0  0  0  0  0  0  0  0  0
    7.3088    1.9810   -0.7220 H   0  0  0  0  0  0  0  0  0  0  0  0
    4.8479    1.8470    1.1359 H   0  0  0  0  0  0  0  0  0  0  0  0
    6.4802    1.3584    1.6166 H   0  0  0  0  0  0  0  0  0  0  0  0
    4.9470    0.0046   -0.6386 H   0  0  0  0  0  0  0  0  0  0  0  0
    4.3110   -1.9457    3.4639 H   0  0  0  0  0  0  0  0  0  0  0  0
    2.1924   -3.1865    3.6688 H   0  0  0  0  0  0  0  0  0  0  0  0
    0.6451   -3.2937    1.7404 H   0  0  0  0  0  0  0  0  0  0  0  0
    1.4895   -1.9681   -1.6620 H   0  0  0  0  0  0  0  0  0  0  0  0
    0.7153   -3.3089   -0.8248 H   0  0  0  0  0  0  0  0  0  0  0  0
    0.4805    1.7886   -0.5118 H   0  0  0  0  0  0  0  0  0  0  0  0
    0.3528    1.2473   -2.2120 H   0  0  0  0  0  0  0  0  0  0  0  0
    1.5832    0.4903   -1.2051 H   0  0  0  0  0  0  0  0  0  0  0  0
   -3.7988    3.0978   -2.2876 H   0  0  0  0  0  0  0  0  0  0  0  0
   -5.9401    4.2358   -1.6190 H   0  0  0  0  0  0  0  0  0  0  0  0
   -7.9083    4.4563   -1.1992 H   0  0  0  0  0  0  0  0  0  0  0  0
   -9.0124    4.8805    0.1606 H   0  0  0  0  0  0  0  0  0  0  0  0
   -7.5542    5.8449   -0.1295 H   0  0  0  0  0  0  0  0  0  0  0  0
   -5.8913    2.1983    2.0809 H   0  0  0  0  0  0  0  0  0  0  0  0
   -3.7643    1.0737    1.4322 H   0  0  0  0  0  0  0  0  0  0  0  0
   -4.5118   -0.5824   -0.1513 H   0  0  0  0  0  0  0  0  0  0  0  0
   -5.1306   -2.8888    0.3405 H   0  0  0  0  0  0  0  0  0  0  0  0
   -1.1132   -4.0917   -0.0508 H   0  0  0  0  0  0  0  0  0  0  0  0
    3.2887   -0.9650   -0.5863 H   0  0  0  0  0  0  0  0  0  0  0  0
    8.1422   -0.8762   -1.7838 H   0  0  0  0  0  0  0  0  0  0  0  0
  1  2  1  0
  2  3  1  0
  3  4  1  0
  4  5  1  0
  5  6  1  0
  6  7  2  0
  7  8  1  0
  8  9  2  0
  9 10  1  0
 10 11  1  0
 11 12  1  0
 12 13  2  0
 13 14  1  0
 13 15  1  0
 15 16  1  0
 16 17  2  0
 16 18  1  0
 18 19  2  0
 19 20  1  0
 20 21  2  0
 21 22  1  0
 22 23  1  0
 21 24  1  0
 24 25  2  0
 15 26  1  0
 26 27  2  0
 27 28  1  0
 28 29  2  0
 29 30  1  0
 30 31  1  0
 31 32  1  0
 31 33  1  0
 31 34  1  0
 29 35  1  0
 35 36  2  0
 10 37  2  0
  4 38  1  0
 38 39  2  0
 38 40  1  0
 37  6  1  0
 36 12  1  0
 25 18  1  0
 36 26  1  0
  1 41  1  0
  1 42  1  0
  1 43  1  0
  2 44  1  0
  2 45  1  0
  3 46  1  0
  3 47  1  0
  4 48  1  0
  7 49  1  0
  8 50  1  0
  9 51  1  0
 11 52  1  0
 11 53  1  0
 14 54  1  0
 14 55  1  0
 14 56  1  0
 19 57  1  0
 20 58  1  0
 23 59  1  0
 23 60  1  0
 23 61  1  0
 24 62  1  0
 25 63  1  0
 27 64  1  0
 28 65  1  0
 35 66  1  0
 37 67  1  0
 40 68  1  0
M  END
$$$$
