@<TRIPOS>MOLECULE
*****
 40 41 0 0 0
SMALL
GASTEIGER

@<TRIPOS>ATOM
      1 C          -5.3914    0.9971    0.9325 C.3     1  UNL1        0.0780
      2 O          -4.0236    0.7785    1.0446 O.2     1  UNL1       -0.5018
      3 C          -3.2166    0.0211    0.2293 C.2     1  UNL1        0.0986
      4 C          -1.9456    0.2420   -0.0633 C.2     1  UNL1        0.1007
      5 C          -1.4516   -0.7798   -0.9490 C.2     1  UNL1        0.3425
      6 O          -0.8226   -1.5361   -1.6981 O.2     1  UNL1       -0.2448
      7 O          -2.1462   -1.8486   -1.4466 O.3     1  UNL1       -0.4644
      8 C          -1.7310   -2.8651   -2.3012 C.3     1  UNL1        0.0820
      9 C          -1.2530    1.4263    0.3863 C.ar    1  UNL1       -0.0010
     10 C           0.1071    1.6186    0.4441 C.ar    1  UNL1       -0.0170
     11 C           1.0037    0.4922    0.2340 C.2     1  UNL1       -0.0535
     12 C           2.3061    0.4839    0.1763 C.2     1  UNL1       -0.0540
     13 C           3.2262   -0.6324   -0.0330 C.ar    1  UNL1       -0.0250
     14 C           4.5931   -0.4561   -0.0656 C.ar    1  UNL1       -0.0546
     15 C           5.4596   -1.5070   -0.2629 C.ar    1  UNL1       -0.0612
     16 C           5.0019   -2.7958   -0.4388 C.ar    1  UNL1       -0.0617
     17 C           3.6391   -3.0121   -0.4124 C.ar    1  UNL1       -0.0612
     18 C           2.8035   -1.9332   -0.2122 C.ar    1  UNL1       -0.0546
     19 C           0.7089    2.8138    0.7673 C.ar    1  UNL1       -0.0540
     20 C          -0.0438    3.9245    1.0646 C.ar    1  UNL1       -0.0612
     21 C          -1.4386    3.8137    1.0311 C.ar    1  UNL1       -0.0611
     22 C          -1.9476    2.5772    0.6950 C.ar    1  UNL1       -0.0531
     23 H          -5.8210    1.6497    1.7163 H       1  UNL1        0.0660
     24 H          -5.9112    0.0091    1.0173 H       1  UNL1        0.0660
     25 H          -5.5971    1.4528   -0.0544 H       1  UNL1        0.0660
     26 H          -3.8108   -0.7916   -0.1312 H       1  UNL1        0.1031
     27 H          -0.9884   -3.5800   -1.8907 H       1  UNL1        0.0661
     28 H          -2.6658   -3.5129   -2.4440 H       1  UNL1        0.0661
     29 H          -1.5067   -2.5640   -3.3470 H       1  UNL1        0.0661
     30 H           0.7054   -0.5353    0.1222 H       1  UNL1        0.0624
     31 H           2.7992    1.4486    0.2992 H       1  UNL1        0.0624
     32 H           4.9987    0.5382    0.0678 H       1  UNL1        0.0623
     33 H           6.5166   -1.3169   -0.2800 H       1  UNL1        0.0618
     34 H           5.6884   -3.6177   -0.5935 H       1  UNL1        0.0618
     35 H           3.2933   -4.0216   -0.5508 H       1  UNL1        0.0618
     36 H           1.7714   -2.1970   -0.2076 H       1  UNL1        0.0623
     37 H           1.7616    3.0232    0.8269 H       1  UNL1        0.0624
     38 H           0.3783    4.8906    1.3257 H       1  UNL1        0.0618
     39 H          -2.0269    4.6862    1.2659 H       1  UNL1        0.0618
     40 H          -3.0227    2.6156    0.6727 H       1  UNL1        0.0624
@<TRIPOS>BOND
     1     1     2    1
     2     2     3    1
     3     3     4    2
     4     4     5    1
     5     5     6    2
     6     5     7    1
     7     7     8    1
     8     4     9    1
     9     9    10   ar
    10    10    11    1
    11    11    12    2
    12    12    13    1
    13    13    14   ar
    14    14    15   ar
    15    15    16   ar
    16    16    17   ar
    17    17    18   ar
    18    10    19   ar
    19    19    20   ar
    20    20    21   ar
    21    21    22   ar
    22    22     9   ar
    23    18    13   ar
    24     1    23    1
    25     1    24    1
    26     1    25    1
    27     3    26    1
    28     8    27    1
    29     8    28    1
    30     8    29    1
    31    11    30    1
    32    12    31    1
    33    14    32    1
    34    15    33    1
    35    16    34    1
    36    17    35    1
    37    18    36    1
    38    19    37    1
    39    20    38    1
    40    21    39    1
    41    22    40    1
