
     RDKit          3D

 40 41  0  0  0  0  0  0  0  0999 V2000
   -5.3914    0.9971    0.9325 C   0  0  0  0  0  0  0  0  0  0  0  0
   -4.0236    0.7785    1.0446 O   0  0  0  0  0  0  0  0  0  0  0  0
   -3.2166    0.0211    0.2293 C   0  0  0  0  0  0  0  0  0  0  0  0
   -1.9456    0.2420   -0.0633 C   0  0  0  0  0  0  0  0  0  0  0  0
   -1.4516   -0.7798   -0.9490 C   0  0  0  0  0  0  0  0  0  0  0  0
   -0.8226   -1.5361   -1.6981 O   0  0  0  0  0  0  0  0  0  0  0  0
   -2.1462   -1.8486   -1.4466 O   0  0  0  0  0  0  0  0  0  0  0  0
   -1.7310   -2.8651   -2.3012 C   0  0  0  0  0  0  0  0  0  0  0  0
   -1.2530    1.4263    0.3863 C   0  0  0  0  0  0  0  0  0  0  0  0
    0.1071    1.6186    0.4441 C   0  0  0  0  0  0  0  0  0  0  0  0
    1.0037    0.4922    0.2340 C   0  0  0  0  0  0  0  0  0  0  0  0
    2.3061    0.4839    0.1763 C   0  0  0  0  0  0  0  0  0  0  0  0
    3.2262   -0.6324   -0.0330 C   0  0  0  0  0  0  0  0  0  0  0  0
    4.5931   -0.4561   -0.0656 C   0  0  0  0  0  0  0  0  0  0  0  0
    5.4596   -1.5070   -0.2629 C   0  0  0  0  0  0  0  0  0  0  0  0
    5.0019   -2.7958   -0.4388 C   0  0  0  0  0  0  0  0  0  0  0  0
    3.6391   -3.0121   -0.4124 C   0  0  0  0  0  0  0  0  0  0  0  0
    2.8035   -1.9332   -0.2122 C   0  0  0  0  0  0  0  0  0  0  0  0
    0.7089    2.8138    0.7673 C   0  0  0  0  0  0  0  0  0  0  0  0
   -0.0438    3.9245    1.0646 C   0  0  0  0  0  0  0  0  0  0  0  0
   -1.4386    3.8137    1.0311 C   0  0  0  0  0  0  0  0  0  0  0  0
   -1.9476    2.5772    0.6950 C   0  0  0  0  0  0  0  0  0  0  0  0
   -5.8210    1.6497    1.7163 H   0  0  0  0  0  0  0  0  0  0  0  0
   -5.9112    0.0091    1.0173 H   0  0  0  0  0  0  0  0  0  0  0  0
   -5.5971    1.4528   -0.0544 H   0  0  0  0  0  0  0  0  0  0  0  0
   -3.8108   -0.7916   -0.1312 H   0  0  0  0  0  0  0  0  0  0  0  0
   -0.9884   -3.5800   -1.8907 H   0  0  0  0  0  0  0  0  0  0  0  0
   -2.6658   -3.5129   -2.4440 H   0  0  0  0  0  0  0  0  0  0  0  0
   -1.5067   -2.5640   -3.3470 H   0  0  0  0  0  0  0  0  0  0  0  0
    0.7054   -0.5353    0.1222 H   0  0  0  0  0  0  0  0  0  0  0  0
    2.7992    1.4486    0.2992 H   0  0  0  0  0  0  0  0  0  0  0  0
    4.9987    0.5382    0.0678 H   0  0  0  0  0  0  0  0  0  0  0  0
    6.5166   -1.3169   -0.2800 H   0  0  0  0  0  0  0  0  0  0  0  0
    5.6884   -3.6177   -0.5935 H   0  0  0  0  0  0  0  0  0  0  0  0
    3.2933   -4.0216   -0.5508 H   0  0  0  0  0  0  0  0  0  0  0  0
    1.7714   -2.1970   -0.2076 H   0  0  0  0  0  0  0  0  0  0  0  0
    1.7616    3.0232    0.8269 H   0  0  0  0  0  0  0  0  0  0  0  0
    0.3783    4.8906    1.3257 H   0  0  0  0  0  0  0  0  0  0  0  0
   -2.0269    4.6862    1.2659 H   0  0  0  0  0  0  0  0  0  0  0  0
   -3.0227    2.6156    0.6727 H   0  0  0  0  0  0  0  0  0  0  0  0
  1  2  1  0
  2  3  1  0
  3  4  2  0
  4  5  1  0
  5  6  2  0
  5  7  1  0
  7  8  1  0
  4  9  1  0
  9 10  2  0
 10 11  1  0
 11 12  2  0
 12 13  1  0
 13 14  2  0
 14 15  1  0
 15 16  2  0
 16 17  1  0
 17 18  2  0
 10 19  1  0
 19 20  2  0
 20 21  1  0
 21 22  2  0
 22  9  1  0
 18 13  1  0
  1 23  1  0
  1 24  1  0
  1 25  1  0
  3 26  1  0
  8 27  1  0
  8 28  1  0
  8 29  1  0
 11 30  1  0
 12 31  1  0
 14 32  1  0
 15 33  1  0
 16 34  1  0
 17 35  1  0
 18 36  1  0
 19 37  1  0
 20 38  1  0
 21 39  1  0
 22 40  1  0
M  END
$$$$
