@<TRIPOS>MOLECULE
*****
 80 85 0 0 0
SMALL
GASTEIGER

@<TRIPOS>ATOM
      1 C          10.2977   -1.4047   -1.9002 C.3     1  UNL1       -0.0327
      2 C           8.9794   -1.3228   -1.2216 C.ar    1  UNL1        0.0375
      3 C           8.4360   -0.1048   -0.8771 C.ar    1  UNL1       -0.0301
      4 C           9.1188    1.1625   -1.1553 C.3     1  UNL1       -0.0386
      5 C           7.2009   -0.0559   -0.2431 C.ar    1  UNL1        0.0210
      6 C           6.6386    1.1598    0.1111 C.ar    1  UNL1       -0.0474
      7 C           5.4300    1.2021    0.7316 C.ar    1  UNL1       -0.0191
      8 C           4.7518    0.0431    1.0155 C.ar    1  UNL1        0.1241
      9 O           3.5227    0.1172    1.6495 O.3     1  UNL1       -0.4906
     10 C           2.8077   -1.0675    1.9532 C.3     1  UNL1        0.1022
     11 C           1.5093   -0.7804    2.6458 C.3     1  UNL1        0.0332
     12 N           0.5780    0.0034    1.9488 N.3     1  UNL1       -0.2967
     13 C          -0.0552   -0.5169    0.7999 C.3     1  UNL1        0.0118
     14 C          -1.4893   -0.0023    0.8240 C.3     1  UNL1        0.0117
     15 N          -1.4852    1.3828    0.7719 N.3     1  UNL1       -0.2999
     16 C          -2.4326    2.1273    0.0636 C.3     1  UNL1        0.0004
     17 C          -2.4635    2.1268   -1.3990 C.3     1  UNL1       -0.0246
     18 C          -2.7304    0.9324   -2.1968 C.3     1  UNL1        0.0103
     19 N          -3.9737    0.2742   -2.1545 N.pl3   1  UNL1       -0.3430
     20 C          -4.7389   -0.2827   -1.1435 C.ar    1  UNL1        0.0413
     21 C          -5.7030    0.4306   -0.4784 C.ar    1  UNL1       -0.0047
     22 C          -6.4771   -0.1152    0.5259 C.ar    1  UNL1        0.0469
     23 N          -6.2800   -1.4105    0.8718 N.ar    1  UNL1       -0.2512
     24 C          -5.3604   -2.1490    0.2600 C.ar    1  UNL1        0.0731
     25 C          -5.2315   -3.4805    0.6772 C.ar    1  UNL1       -0.0357
     26 C          -4.2862   -4.2336    0.0337 C.ar    1  UNL1       -0.0597
     27 C          -3.4979   -3.7167   -0.9729 C.ar    1  UNL1       -0.0610
     28 C          -3.6513   -2.4085   -1.3554 C.ar    1  UNL1       -0.0508
     29 C          -4.5856   -1.6142   -0.7399 C.ar    1  UNL1        0.0215
     30 C          -7.5293    0.5993    1.2773 C.3     1  UNL1       -0.0101
     31 C          -7.8723    1.9469    0.7459 C.3     1  UNL1       -0.0473
     32 C          -7.5391    2.0174   -0.7409 C.3     1  UNL1       -0.0486
     33 C          -6.0062    1.8614   -0.8261 C.3     1  UNL1       -0.0242
     34 C          -0.7009    2.0877    1.7306 C.3     1  UNL1        0.0117
     35 C           0.5582    1.3939    2.1565 C.3     1  UNL1        0.0118
     36 C           5.2782   -1.1788    0.6793 C.ar    1  UNL1        0.0231
     37 C           6.5089   -1.2232    0.0471 C.ar    1  UNL1        0.1428
     38 O           7.0692   -2.3599   -0.3015 O.2     1  UNL1       -0.4218
     39 C           8.2338   -2.4417   -0.9016 C.ar    1  UNL1        0.3404
     40 O           8.7422   -3.5570   -1.2225 O.2     1  UNL1       -0.2449
     41 H          10.6276   -2.4682   -1.8287 H       1  UNL1        0.0280
     42 H          11.0770   -0.8054   -1.3876 H       1  UNL1        0.0280
     43 H          10.2182   -1.1747   -2.9796 H       1  UNL1        0.0280
     44 H           8.4941    1.7935   -1.8315 H       1  UNL1        0.0278
     45 H          10.1458    1.0436   -1.5249 H       1  UNL1        0.0278
     46 H           9.1890    1.7453   -0.1980 H       1  UNL1        0.0278
     47 H           7.1620    2.0738   -0.1059 H       1  UNL1        0.0626
     48 H           5.0143    2.1878    0.9977 H       1  UNL1        0.0654
     49 H           3.4366   -1.6608    2.6630 H       1  UNL1        0.0709
     50 H           2.7152   -1.6648    1.0421 H       1  UNL1        0.0709
     51 H           1.7890   -0.2080    3.5826 H       1  UNL1        0.0460
     52 H           1.1110   -1.7410    3.0439 H       1  UNL1        0.0460
     53 H           0.0284   -1.6001    0.7722 H       1  UNL1        0.0439
     54 H           0.4099   -0.0660   -0.1153 H       1  UNL1        0.0439
     55 H          -1.8988   -0.3221    1.8275 H       1  UNL1        0.0439
     56 H          -2.1249   -0.4626    0.0799 H       1  UNL1        0.0439
     57 H          -2.3417    3.2194    0.4128 H       1  UNL1        0.0427
     58 H          -3.4468    1.8363    0.4673 H       1  UNL1        0.0427
     59 H          -3.2252    2.9174   -1.7520 H       1  UNL1        0.0293
     60 H          -1.4686    2.5539   -1.7967 H       1  UNL1        0.0293
     61 H          -2.5623    1.2701   -3.2945 H       1  UNL1        0.0461
     62 H          -1.8478    0.2118   -2.1063 H       1  UNL1        0.0461
     63 H          -4.4587    0.1712   -3.1424 H       1  UNL1        0.1461
     64 H          -5.8717   -3.8559    1.4762 H       1  UNL1        0.0639
     65 H          -4.1817   -5.2680    0.3536 H       1  UNL1        0.0618
     66 H          -2.7688   -4.3718   -1.4384 H       1  UNL1        0.0618
     67 H          -3.0555   -1.9910   -2.1285 H       1  UNL1        0.0625
     68 H          -7.1530    0.6693    2.3356 H       1  UNL1        0.0328
     69 H          -8.4551   -0.0328    1.2884 H       1  UNL1        0.0328
     70 H          -7.1949    2.6853    1.2390 H       1  UNL1        0.0269
     71 H          -8.9352    2.2223    0.9127 H       1  UNL1        0.0269
     72 H          -8.0574    1.2605   -1.3308 H       1  UNL1        0.0269
     73 H          -7.7613    3.0197   -1.1021 H       1  UNL1        0.0269
     74 H          -5.7200    2.1031   -1.8510 H       1  UNL1        0.0314
     75 H          -5.6260    2.5498   -0.0534 H       1  UNL1        0.0314
     76 H          -0.4208    3.0719    1.3021 H       1  UNL1        0.0439
     77 H          -1.3435    2.3058    2.6169 H       1  UNL1        0.0439
     78 H           1.4649    1.8626    1.6823 H       1  UNL1        0.0439
     79 H           0.6886    1.5897    3.2613 H       1  UNL1        0.0439
     80 H           4.7760   -2.1134    0.8848 H       1  UNL1        0.0691
@<TRIPOS>BOND
     1     1     2    1
     2     2     3   ar
     3     3     4    1
     4     3     5   ar
     5     5     6   ar
     6     6     7   ar
     7     7     8   ar
     8     8     9    1
     9     9    10    1
    10    10    11    1
    11    11    12    1
    12    12    13    1
    13    13    14    1
    14    14    15    1
    15    15    16    1
    16    16    17    1
    17    17    18    1
    18    18    19    1
    19    19    20    1
    20    20    21   ar
    21    21    22   ar
    22    22    23   ar
    23    23    24   ar
    24    24    25   ar
    25    25    26   ar
    26    26    27   ar
    27    27    28   ar
    28    28    29   ar
    29    22    30    1
    30    30    31    1
    31    31    32    1
    32    32    33    1
    33    15    34    1
    34    34    35    1
    35     8    36   ar
    36    36    37   ar
    37    37    38   ar
    38    38    39   ar
    39    39    40    2
    40    39     2   ar
    41    37     5   ar
    42    35    12    1
    43    29    20   ar
    44    33    21    1
    45    29    24   ar
    46     1    41    1
    47     1    42    1
    48     1    43    1
    49     4    44    1
    50     4    45    1
    51     4    46    1
    52     6    47    1
    53     7    48    1
    54    10    49    1
    55    10    50    1
    56    11    51    1
    57    11    52    1
    58    13    53    1
    59    13    54    1
    60    14    55    1
    61    14    56    1
    62    16    57    1
    63    16    58    1
    64    17    59    1
    65    17    60    1
    66    18    61    1
    67    18    62    1
    68    19    63    1
    69    25    64    1
    70    26    65    1
    71    27    66    1
    72    28    67    1
    73    30    68    1
    74    30    69    1
    75    31    70    1
    76    31    71    1
    77    32    72    1
    78    32    73    1
    79    33    74    1
    80    33    75    1
    81    34    76    1
    82    34    77    1
    83    35    78    1
    84    35    79    1
    85    36    80    1
