
     RDKit          3D

 35 38  0  0  0  0  0  0  0  0999 V2000
   -4.7986    1.0133   -0.4375 C   0  0  0  0  0  0  0  0  0  0  0  0
   -3.7800   -0.0196   -0.3558 C   0  0  0  0  0  0  0  0  0  0  0  0
   -4.2305   -1.3371   -0.4688 C   0  0  0  0  0  0  0  0  0  0  0  0
   -3.3945   -2.3999   -0.4116 C   0  0  0  0  0  0  0  0  0  0  0  0
   -2.0108   -2.1934   -0.2314 C   0  0  0  0  0  0  0  0  0  0  0  0
   -1.5378   -0.9151   -0.1173 C   0  0  0  0  0  0  0  0  0  0  0  0
   -0.1751   -0.6801    0.0607 C   0  0  0  0  0  0  0  0  0  0  0  0
    0.2407    0.6487    0.1691 C   0  0  0  0  0  0  0  0  0  0  0  0
   -0.6535    1.7020    0.1041 C   0  0  0  0  0  0  0  0  0  0  0  0
   -1.9814    1.4124   -0.0720 C   0  0  0  0  0  0  0  0  0  0  0  0
   -2.4456    0.1493   -0.1834 C   0  0  0  0  0  0  0  0  0  0  0  0
    1.6648    0.9095    0.3559 C   0  0  0  0  0  0  0  0  0  0  0  0
    2.5712   -0.0456    0.4266 C   0  0  0  0  0  0  0  0  0  0  0  0
    2.1894   -1.4509    0.3192 C   0  0  0  0  0  0  0  0  0  0  0  0
    3.0779   -2.3402    0.3905 O   0  0  0  0  0  0  0  0  0  0  0  0
    0.7780   -1.7664    0.1316 C   0  0  0  0  0  0  0  0  0  0  0  0
    0.4940   -2.9649    0.0451 O   0  0  0  0  0  0  0  0  0  0  0  0
    3.9142    0.5687    0.6183 C   0  0  1  0  0  0  0  0  0  0  0  0
    4.8699   -0.0002   -0.4220 C   0  0  0  0  0  0  0  0  0  0  0  0
    3.6869    2.0106    0.2967 C   0  0  0  0  0  0  0  0  0  0  0  0
    2.3018    2.1582    0.4881 O   0  0  0  0  0  0  0  0  0  0  0  0
   -4.6368    1.9846   -0.0508 H   0  0  0  0  0  0  0  0  0  0  0  0
   -5.1165    1.0993   -1.5112 H   0  0  0  0  0  0  0  0  0  0  0  0
   -5.7225    0.6167    0.0824 H   0  0  0  0  0  0  0  0  0  0  0  0
   -5.2864   -1.5581   -0.6091 H   0  0  0  0  0  0  0  0  0  0  0  0
   -3.6944   -3.4340   -0.4936 H   0  0  0  0  0  0  0  0  0  0  0  0
   -1.3764   -3.0395   -0.1896 H   0  0  0  0  0  0  0  0  0  0  0  0
   -0.2910    2.7045    0.1918 H   0  0  0  0  0  0  0  0  0  0  0  0
   -2.6458    2.2582   -0.1186 H   0  0  0  0  0  0  0  0  0  0  0  0
    4.3227    0.3996    1.6308 H   0  0  0  0  0  0  0  0  0  0  0  0
    4.8990   -1.1090   -0.4008 H   0  0  0  0  0  0  0  0  0  0  0  0
    4.6134    0.3382   -1.4314 H   0  0  0  0  0  0  0  0  0  0  0  0
    5.9116    0.3283   -0.1860 H   0  0  0  0  0  0  0  0  0  0  0  0
    3.9700    2.2568   -0.7442 H   0  0  0  0  0  0  0  0  0  0  0  0
    4.2720    2.6950    0.9614 H   0  0  0  0  0  0  0  0  0  0  0  0
  1  2  1  0
  2  3  2  0
  3  4  1  0
  4  5  2  0
  5  6  1  0
  6  7  2  0
  7  8  1  0
  8  9  2  0
  9 10  1  0
 10 11  2  0
  8 12  1  0
 12 13  2  0
 13 14  1  0
 14 15  2  0
 14 16  1  0
 16 17  2  0
 13 18  1  0
 18 19  1  0
 18 20  1  0
 20 21  1  0
 11  2  1  0
 21 12  1  0
 11  6  1  0
 16  7  1  0
  1 22  1  0
  1 23  1  0
  1 24  1  0
  3 25  1  0
  4 26  1  0
  5 27  1  0
  9 28  1  0
 10 29  1  0
 18 30  1  1
 19 31  1  0
 19 32  1  0
 19 33  1  0
 20 34  1  0
 20 35  1  0
M  END
$$$$
