@<TRIPOS>MOLECULE
*****
 35 38 0 0 0
SMALL
GASTEIGER

@<TRIPOS>ATOM
      1 C          -4.7986    1.0133   -0.4375 C.3     1  UNL1       -0.0391
      2 C          -3.7800   -0.0196   -0.3558 C.ar    1  UNL1       -0.0427
      3 C          -4.2305   -1.3371   -0.4688 C.ar    1  UNL1       -0.0582
      4 C          -3.3945   -2.3999   -0.4116 C.ar    1  UNL1       -0.0609
      5 C          -2.0108   -2.1934   -0.2314 C.ar    1  UNL1       -0.0533
      6 C          -1.5378   -0.9151   -0.1173 C.ar    1  UNL1       -0.0060
      7 C          -0.1751   -0.6801    0.0607 C.ar    1  UNL1        0.0439
      8 C           0.2407    0.6487    0.1691 C.ar    1  UNL1        0.0286
      9 C          -0.6535    1.7020    0.1041 C.ar    1  UNL1       -0.0498
     10 C          -1.9814    1.4124   -0.0720 C.ar    1  UNL1       -0.0531
     11 C          -2.4456    0.1493   -0.1834 C.ar    1  UNL1       -0.0143
     12 C           1.6648    0.9095    0.3559 C.2     1  UNL1        0.1356
     13 C           2.5712   -0.0456    0.4266 C.2     1  UNL1        0.0513
     14 C           2.1894   -1.4509    0.3192 C.2     1  UNL1        0.2329
     15 O           3.0779   -2.3402    0.3905 O.2     1  UNL1       -0.2834
     16 C           0.7780   -1.7664    0.1316 C.2     1  UNL1        0.2340
     17 O           0.4940   -2.9649    0.0451 O.2     1  UNL1       -0.2832
     18 C           3.9142    0.5687    0.6183 C.3     1  UNL1        0.0227
     19 C           4.8699   -0.0002   -0.4220 C.3     1  UNL1       -0.0550
     20 C           3.6869    2.0106    0.2967 C.3     1  UNL1        0.0964
     21 O           2.3018    2.1582    0.4881 O.2     1  UNL1       -0.4904
     22 H          -4.6368    1.9846   -0.0508 H       1  UNL1        0.0278
     23 H          -5.1165    1.0993   -1.5112 H       1  UNL1        0.0278
     24 H          -5.7225    0.6167    0.0824 H       1  UNL1        0.0278
     25 H          -5.2864   -1.5581   -0.6091 H       1  UNL1        0.0620
     26 H          -3.6944   -3.4340   -0.4936 H       1  UNL1        0.0618
     27 H          -1.3764   -3.0395   -0.1896 H       1  UNL1        0.0624
     28 H          -0.2910    2.7045    0.1918 H       1  UNL1        0.0625
     29 H          -2.6458    2.2582   -0.1186 H       1  UNL1        0.0624
     30 H           4.3227    0.3996    1.6308 H       1  UNL1        0.0381
     31 H           4.8990   -1.1090   -0.4008 H       1  UNL1        0.0237
     32 H           4.6134    0.3382   -1.4314 H       1  UNL1        0.0237
     33 H           5.9116    0.3283   -0.1860 H       1  UNL1        0.0237
     34 H           3.9700    2.2568   -0.7442 H       1  UNL1        0.0702
     35 H           4.2720    2.6950    0.9614 H       1  UNL1        0.0702
@<TRIPOS>BOND
     1     1     2    1
     2     2     3   ar
     3     3     4   ar
     4     4     5   ar
     5     5     6   ar
     6     6     7   ar
     7     7     8   ar
     8     8     9   ar
     9     9    10   ar
    10    10    11   ar
    11     8    12    1
    12    12    13    2
    13    13    14    1
    14    14    15    2
    15    14    16    1
    16    16    17    2
    17    13    18    1
    18    18    19    1
    19    18    20    1
    20    20    21    1
    21    11     2   ar
    22    21    12    1
    23    11     6   ar
    24    16     7    1
    25     1    22    1
    26     1    23    1
    27     1    24    1
    28     3    25    1
    29     4    26    1
    30     5    27    1
    31     9    28    1
    32    10    29    1
    33    18    30    1
    34    19    31    1
    35    19    32    1
    36    19    33    1
    37    20    34    1
    38    20    35    1
