
     RDKit          3D

 27 27  0  0  0  0  0  0  0  0999 V2000
    4.3190    0.5973   -0.5646 N   0  0  0  0  0  0  0  0  0  0  0  0
    2.9095    0.7214   -0.8032 C   0  0  0  0  0  0  0  0  0  0  0  0
    2.0894    0.2961    0.3583 C   0  0  0  0  0  0  0  0  0  0  0  0
    2.7573   -0.1287    1.4278 C   0  0  0  0  0  0  0  0  0  0  0  0
    2.0880   -0.5452    2.5570 F   0  0  0  0  0  0  0  0  0  0  0  0
    0.6326    0.3069    0.4188 C   0  0  0  0  0  0  0  0  0  0  0  0
   -0.0532   -0.5427   -0.6052 C   0  0  0  0  0  0  0  0  0  0  0  0
   -1.5187   -0.4113   -0.3960 C   0  0  0  0  0  0  0  0  0  0  0  0
   -2.1495   -1.2953    0.4631 C   0  0  0  0  0  0  0  0  0  0  0  0
   -3.5060   -1.2407    0.7116 C   0  0  0  0  0  0  0  0  0  0  0  0
   -4.2252   -0.2625    0.0671 C   0  0  0  0  0  0  0  0  0  0  0  0
   -5.5621   -0.1854    0.2929 F   0  0  0  0  0  0  0  0  0  0  0  0
   -3.6536    0.6520   -0.8042 C   0  0  0  0  0  0  0  0  0  0  0  0
   -2.2969    0.5454   -1.0102 C   0  0  0  0  0  0  0  0  0  0  0  0
    4.8857    0.4687   -1.4097 H   0  0  0  0  0  0  0  0  0  0  0  0
    4.6994    1.2095    0.1602 H   0  0  0  0  0  0  0  0  0  0  0  0
    2.6604    0.0850   -1.6817 H   0  0  0  0  0  0  0  0  0  0  0  0
    2.7108    1.7634   -1.1115 H   0  0  0  0  0  0  0  0  0  0  0  0
    3.8370   -0.1757    1.4849 H   0  0  0  0  0  0  0  0  0  0  0  0
    0.2848    1.3788    0.3331 H   0  0  0  0  0  0  0  0  0  0  0  0
    0.2954   -0.0221    1.4183 H   0  0  0  0  0  0  0  0  0  0  0  0
    0.2199   -1.5991   -0.4295 H   0  0  0  0  0  0  0  0  0  0  0  0
    0.1552   -0.2567   -1.6426 H   0  0  0  0  0  0  0  0  0  0  0  0
   -1.5458   -2.0654    0.9624 H   0  0  0  0  0  0  0  0  0  0  0  0
   -3.9631   -1.9485    1.3891 H   0  0  0  0  0  0  0  0  0  0  0  0
   -4.2584    1.4148   -1.2973 H   0  0  0  0  0  0  0  0  0  0  0  0
   -1.8120    1.2402   -1.6832 H   0  0  0  0  0  0  0  0  0  0  0  0
  1  2  1  0
  2  3  1  0
  3  4  2  0
  4  5  1  0
  3  6  1  0
  6  7  1  0
  7  8  1  0
  8  9  2  0
  9 10  1  0
 10 11  2  0
 11 12  1  0
 11 13  1  0
 13 14  2  0
 14  8  1  0
  1 15  1  0
  1 16  1  0
  2 17  1  0
  2 18  1  0
  4 19  1  0
  6 20  1  0
  6 21  1  0
  7 22  1  0
  7 23  1  0
  9 24  1  0
 10 25  1  0
 13 26  1  0
 14 27  1  0
M  END
$$$$
