@<TRIPOS>MOLECULE
*****
 27 27 0 0 0
SMALL
GASTEIGER

@<TRIPOS>ATOM
      1 N           4.3190    0.5973   -0.5646 N.3     1  UNL1       -0.3263
      2 C           2.9095    0.7214   -0.8032 C.3     1  UNL1        0.0169
      3 C           2.0894    0.2961    0.3583 C.2     1  UNL1       -0.0280
      4 C           2.7573   -0.1287    1.4278 C.2     1  UNL1        0.0877
      5 F           2.0880   -0.5452    2.5570 F       1  UNL1       -0.2138
      6 C           0.6326    0.3069    0.4188 C.3     1  UNL1       -0.0241
      7 C          -0.0532   -0.5427   -0.6052 C.3     1  UNL1       -0.0239
      8 C          -1.5187   -0.4113   -0.3960 C.ar    1  UNL1       -0.0469
      9 C          -2.1495   -1.2953    0.4631 C.ar    1  UNL1       -0.0559
     10 C          -3.5060   -1.2407    0.7116 C.ar    1  UNL1       -0.0262
     11 C          -4.2252   -0.2625    0.0671 C.ar    1  UNL1        0.1234
     12 F          -5.5621   -0.1854    0.2929 F       1  UNL1       -0.2055
     13 C          -3.6536    0.6520   -0.8042 C.ar    1  UNL1       -0.0262
     14 C          -2.2969    0.5454   -1.0102 C.ar    1  UNL1       -0.0559
     15 H           4.8857    0.4687   -1.4097 H       1  UNL1        0.1185
     16 H           4.6994    1.2095    0.1602 H       1  UNL1        0.1185
     17 H           2.6604    0.0850   -1.6817 H       1  UNL1        0.0469
     18 H           2.7108    1.7634   -1.1115 H       1  UNL1        0.0469
     19 H           3.8370   -0.1757    1.4849 H       1  UNL1        0.0942
     20 H           0.2848    1.3788    0.3331 H       1  UNL1        0.0314
     21 H           0.2954   -0.0221    1.4183 H       1  UNL1        0.0314
     22 H           0.2199   -1.5991   -0.4295 H       1  UNL1        0.0316
     23 H           0.1552   -0.2567   -1.6426 H       1  UNL1        0.0316
     24 H          -1.5458   -2.0654    0.9624 H       1  UNL1        0.0621
     25 H          -3.9631   -1.9485    1.3891 H       1  UNL1        0.0646
     26 H          -4.2584    1.4148   -1.2973 H       1  UNL1        0.0646
     27 H          -1.8120    1.2402   -1.6832 H       1  UNL1        0.0621
@<TRIPOS>BOND
     1     1     2    1
     2     2     3    1
     3     3     4    2
     4     4     5    1
     5     3     6    1
     6     6     7    1
     7     7     8    1
     8     8     9   ar
     9     9    10   ar
    10    10    11   ar
    11    11    12    1
    12    11    13   ar
    13    13    14   ar
    14    14     8   ar
    15     1    15    1
    16     1    16    1
    17     2    17    1
    18     2    18    1
    19     4    19    1
    20     6    20    1
    21     6    21    1
    22     7    22    1
    23     7    23    1
    24     9    24    1
    25    10    25    1
    26    13    26    1
    27    14    27    1
