@<TRIPOS>MOLECULE
*****
 53 56 0 0 0
SMALL
GASTEIGER

@<TRIPOS>ATOM
      1 C          -1.3821    0.4034   -0.6732 C.3     1  UNL1       -0.0270
      2 C          -2.2105    1.4156   -1.3444 C.3     1  UNL1       -0.0467
      3 C          -3.6236    0.9124   -1.0170 C.3     1  UNL1       -0.0235
      4 C          -3.4651   -0.0302    0.1696 C.3     1  UNL1        0.0690
      5 C          -3.7219   -1.4254   -0.2968 C.3     1  UNL1       -0.0356
      6 O          -4.4007    0.2458    1.1748 O.3     1  UNL1       -0.3883
      7 C          -2.0805    0.2572    0.6374 C.3     1  UNL1        0.0021
      8 C          -2.1168    1.5200    1.4588 C.3     1  UNL1       -0.0566
      9 C          -1.3774   -0.7863    1.4028 C.3     1  UNL1       -0.0155
     10 C          -0.2472   -1.4803    0.6446 C.3     1  UNL1        0.0907
     11 O           0.2421   -2.3489    1.6042 O.3     1  UNL1       -0.3886
     12 C           0.6898   -0.6364   -0.0794 C.3     1  UNL1        0.1492
     13 F           0.8990   -1.1604   -1.3704 F       1  UNL1       -0.2380
     14 C           0.0451    0.7150   -0.3947 C.3     1  UNL1       -0.0000
     15 C           0.6487    1.2993   -1.6274 C.3     1  UNL1       -0.0432
     16 C           2.1199    1.3463   -1.5654 C.3     1  UNL1       -0.0304
     17 C           2.7644    0.4594   -0.5780 C.2     1  UNL1       -0.0572
     18 C           4.1099    0.4733   -0.6457 C.2     1  UNL1       -0.0194
     19 C           4.9071   -0.3311    0.2417 C.2     1  UNL1        0.1561
     20 O           6.1633   -0.2398    0.3912 O.2     1  UNL1       -0.2927
     21 C           4.2619   -1.3704    1.0770 C.3     1  UNL1        0.0107
     22 C           2.9073   -1.6326    0.5120 C.3     1  UNL1       -0.0339
     23 C           2.0527   -0.3946    0.4240 C.3     1  UNL1        0.0263
     24 C           2.0685    0.4370    1.6885 C.3     1  UNL1       -0.0528
     25 H          -1.4517   -0.5452   -1.2072 H       1  UNL1        0.0311
     26 H          -2.0484    2.4567   -1.0693 H       1  UNL1        0.0269
     27 H          -2.0698    1.3660   -2.4597 H       1  UNL1        0.0269
     28 H          -4.0108    0.3631   -1.9019 H       1  UNL1        0.0293
     29 H          -4.3037    1.7435   -0.7928 H       1  UNL1        0.0293
     30 H          -3.7780   -2.1480    0.5212 H       1  UNL1        0.0257
     31 H          -3.0527   -1.8055   -1.0745 H       1  UNL1        0.0257
     32 H          -4.7399   -1.4169   -0.7585 H       1  UNL1        0.0257
     33 H          -4.8166    1.1410    1.0389 H       1  UNL1        0.2102
     34 H          -2.4431    2.4152    0.9344 H       1  UNL1        0.0236
     35 H          -1.1690    1.6442    2.0428 H       1  UNL1        0.0236
     36 H          -2.8835    1.3220    2.2589 H       1  UNL1        0.0236
     37 H          -2.1162   -1.5704    1.6740 H       1  UNL1        0.0297
     38 H          -1.0114   -0.4181    2.3960 H       1  UNL1        0.0297
     39 H          -0.8045   -2.1440   -0.0675 H       1  UNL1        0.0625
     40 H           0.1485   -3.3000    1.4023 H       1  UNL1        0.2099
     41 H           0.0871    1.4225    0.4396 H       1  UNL1        0.0335
     42 H           0.2798    2.3482   -1.7101 H       1  UNL1        0.0272
     43 H           0.2690    0.7837   -2.5374 H       1  UNL1        0.0272
     44 H           2.5370    2.3780   -1.3775 H       1  UNL1        0.0310
     45 H           2.5204    1.0547   -2.5660 H       1  UNL1        0.0310
     46 H           4.6673    1.0739   -1.3527 H       1  UNL1        0.0652
     47 H           4.8260   -2.3430    0.9691 H       1  UNL1        0.0345
     48 H           4.2924   -1.1649    2.1582 H       1  UNL1        0.0345
     49 H           3.0694   -1.9686   -0.5464 H       1  UNL1        0.0279
     50 H           2.5112   -2.4735    1.0573 H       1  UNL1        0.0279
     51 H           3.0398    0.4495    2.1839 H       1  UNL1        0.0239
     52 H           1.8819    1.5164    1.4106 H       1  UNL1        0.0239
     53 H           1.3155    0.1714    2.4256 H       1  UNL1        0.0239
@<TRIPOS>BOND
     1     1     2    1
     2     2     3    1
     3     3     4    1
     4     4     5    1
     5     4     6    1
     6     4     7    1
     7     7     8    1
     8     7     9    1
     9     9    10    1
    10    10    11    1
    11    10    12    1
    12    12    13    1
    13    12    14    1
    14    14    15    1
    15    15    16    1
    16    16    17    1
    17    17    18    2
    18    18    19    1
    19    19    20    2
    20    19    21    1
    21    21    22    1
    22    22    23    1
    23    23    24    1
    24     7     1    1
    25    23    12    1
    26    14     1    1
    27    23    17    1
    28     1    25    1
    29     2    26    1
    30     2    27    1
    31     3    28    1
    32     3    29    1
    33     5    30    1
    34     5    31    1
    35     5    32    1
    36     6    33    1
    37     8    34    1
    38     8    35    1
    39     8    36    1
    40     9    37    1
    41     9    38    1
    42    10    39    1
    43    11    40    1
    44    14    41    1
    45    15    42    1
    46    15    43    1
    47    16    44    1
    48    16    45    1
    49    18    46    1
    50    21    47    1
    51    21    48    1
    52    22    49    1
    53    22    50    1
    54    24    51    1
    55    24    52    1
    56    24    53    1
