@<TRIPOS>MOLECULE
*****
 95 97 0 0 0
SMALL
GASTEIGER

@<TRIPOS>ATOM
      1 C          -2.9962   -0.8595    3.4792 C.3     1  UNL1       -0.0626
      2 C          -2.8619    0.3072    2.4722 C.3     1  UNL1       -0.0450
      3 C          -3.9779    1.2369    2.8406 C.3     1  UNL1       -0.0626
      4 C          -2.9565   -0.3038    1.1319 C.3     1  UNL1       -0.0297
      5 C          -2.8331    0.5092   -0.0887 C.3     1  UNL1        0.0498
      6 N          -1.4504    1.1604   -0.0417 N.am    1  UNL1       -0.3085
      7 C          -0.3452    0.4960   -0.6166 C.2     1  UNL1        0.2334
      8 O          -0.5790   -0.6339   -1.1274 O.2     1  UNL1       -0.2738
      9 C           0.9719    1.1265   -0.5965 C.3     1  UNL1        0.0966
     10 C           0.8609    2.4022   -1.4510 C.3     1  UNL1       -0.0381
     11 N           2.0341    0.2914   -1.0682 N.am    1  UNL1       -0.3027
     12 C           3.3751    0.3774   -0.6266 C.2     1  UNL1        0.2341
     13 O           3.6661    1.2516    0.2124 O.2     1  UNL1       -0.2738
     14 C           4.4456   -0.5389   -1.1288 C.3     1  UNL1        0.1028
     15 C           4.2385   -1.9346   -0.6166 C.3     1  UNL1       -0.0219
     16 C           5.2915   -2.8411   -1.1725 C.3     1  UNL1       -0.0255
     17 C           5.2466   -2.9743   -2.6309 C.ar    1  UNL1       -0.0473
     18 C           4.4559   -3.9039   -3.2832 C.ar    1  UNL1       -0.0586
     19 C           4.4225   -4.0285   -4.6308 C.ar    1  UNL1       -0.0615
     20 C           5.2131   -3.1923   -5.4114 C.ar    1  UNL1       -0.0617
     21 C           6.0142   -2.2539   -4.8085 C.ar    1  UNL1       -0.0615
     22 C           6.0139   -2.1647   -3.4289 C.ar    1  UNL1       -0.0586
     23 N           5.7480   -0.0642   -0.6516 N.am    1  UNL1       -0.2698
     24 C           6.0631    0.0657    0.7289 C.2     1  UNL1        0.4012
     25 O           5.2612   -0.2192    1.6244 O.2     1  UNL1       -0.2265
     26 O           7.3257    0.5354    1.1413 O.3     1  UNL1       -0.4456
     27 C           7.5920    0.6530    2.5444 C.3     1  UNL1        0.1191
     28 C           8.9504    1.1708    2.7733 C.ar    1  UNL1       -0.0103
     29 C           9.1389    2.5472    2.8806 C.ar    1  UNL1       -0.0554
     30 C          10.4052    3.0438    3.0969 C.ar    1  UNL1       -0.0614
     31 C          11.4961    2.2161    3.2104 C.ar    1  UNL1       -0.0617
     32 C          11.2905    0.8660    3.1017 C.ar    1  UNL1       -0.0614
     33 C          10.0397    0.3505    2.8867 C.ar    1  UNL1       -0.0554
     34 C          -3.7675    1.5459   -0.5017 C.3     1  UNL1        0.0817
     35 O          -3.1125    2.0402   -1.7651 O.3     1  UNL1       -0.3895
     36 C          -5.1127    1.2543   -1.0289 C.3     1  UNL1        0.0517
     37 C          -6.1442    0.5666   -0.3039 C.2     1  UNL1        0.2158
     38 O          -6.0044    0.0160    0.7872 O.2     1  UNL1       -0.2757
     39 N          -7.4833    0.4907   -0.8660 N.am    1  UNL1       -0.3124
     40 C          -8.4960   -0.2064   -0.1291 C.3     1  UNL1        0.0231
     41 C          -9.4232    0.7323    0.6138 C.3     1  UNL1       -0.0345
     42 C         -10.7690    0.0184    0.7195 C.3     1  UNL1       -0.0514
     43 C         -11.3729    0.1298   -0.6734 C.3     1  UNL1       -0.0529
     44 C         -10.4452   -0.5306   -1.6735 C.3     1  UNL1       -0.0514
     45 C          -9.2631   -1.1803   -0.9971 C.3     1  UNL1       -0.0345
     46 H          -2.8489   -1.8312    2.9921 H       1  UNL1        0.0232
     47 H          -2.2050   -0.7962    4.2718 H       1  UNL1        0.0232
     48 H          -3.9525   -0.8640    3.9970 H       1  UNL1        0.0232
     49 H          -1.8625    0.7488    2.6996 H       1  UNL1        0.0296
     50 H          -4.8305    0.6047    3.2521 H       1  UNL1        0.0232
     51 H          -3.6609    1.8705    3.7111 H       1  UNL1        0.0232
     52 H          -4.4218    1.8374    2.0691 H       1  UNL1        0.0232
     53 H          -3.7331   -1.0790    1.1354 H       1  UNL1        0.0286
     54 H          -2.0084   -1.0097    1.0612 H       1  UNL1        0.0286
     55 H          -2.6956   -0.2146   -0.9179 H       1  UNL1        0.0524
     56 H          -1.4232    2.0862    0.4299 H       1  UNL1        0.1491
     57 H           1.2189    1.5025    0.4028 H       1  UNL1        0.0592
     58 H           1.8243    2.9205   -1.3212 H       1  UNL1        0.0252
     59 H           0.6076    2.1692   -2.4998 H       1  UNL1        0.0252
     60 H           0.0741    3.0163   -0.9617 H       1  UNL1        0.0252
     61 H           1.8238   -0.4449   -1.7956 H       1  UNL1        0.1495
     62 H           4.4322   -0.5299   -2.2125 H       1  UNL1        0.0596
     63 H           3.2053   -2.2931   -0.8199 H       1  UNL1        0.0291
     64 H           4.3256   -1.9918    0.4993 H       1  UNL1        0.0291
     65 H           5.3225   -3.8149   -0.6268 H       1  UNL1        0.0314
     66 H           6.2786   -2.3441   -0.9185 H       1  UNL1        0.0314
     67 H           3.8472   -4.5475   -2.6670 H       1  UNL1        0.0620
     68 H           3.7933   -4.7639   -5.1436 H       1  UNL1        0.0618
     69 H           5.1559   -3.3257   -6.4825 H       1  UNL1        0.0618
     70 H           6.6327   -1.5955   -5.4280 H       1  UNL1        0.0618
     71 H           6.6817   -1.3982   -3.0214 H       1  UNL1        0.0620
     72 H           6.5044    0.2051   -1.3114 H       1  UNL1        0.1528
     73 H           6.8599    1.3492    2.9801 H       1  UNL1        0.0749
     74 H           7.4570   -0.3338    3.0450 H       1  UNL1        0.0749
     75 H           8.3032    3.2180    2.7935 H       1  UNL1        0.0621
     76 H          10.5350    4.1190    3.1785 H       1  UNL1        0.0618
     77 H          12.4827    2.6328    3.3795 H       1  UNL1        0.0618
     78 H          12.1511    0.2000    3.1912 H       1  UNL1        0.0618
     79 H           9.9282   -0.7209    2.8069 H       1  UNL1        0.0621
     80 H          -3.7516    2.5136    0.0493 H       1  UNL1        0.0616
     81 H          -2.1627    2.0826   -1.5940 H       1  UNL1        0.2099
     82 H          -4.9349    0.6492   -2.0074 H       1  UNL1        0.0384
     83 H          -5.5949    2.1963   -1.4584 H       1  UNL1        0.0384
     84 H          -7.6061    0.9629   -1.7868 H       1  UNL1        0.1490
     85 H          -8.0137   -0.7990    0.6647 H       1  UNL1        0.0498
     86 H          -9.0786    0.9314    1.6397 H       1  UNL1        0.0283
     87 H          -9.5507    1.6970    0.0979 H       1  UNL1        0.0283
     88 H         -10.6306   -1.0413    0.9738 H       1  UNL1        0.0266
     89 H         -11.4094    0.5508    1.4224 H       1  UNL1        0.0266
     90 H         -11.4688    1.2024   -0.8938 H       1  UNL1        0.0265
     91 H         -12.3778   -0.3116   -0.6337 H       1  UNL1        0.0265
     92 H         -10.1304    0.1662   -2.4795 H       1  UNL1        0.0266
     93 H         -11.0287   -1.3256   -2.1735 H       1  UNL1        0.0266
     94 H          -8.6063   -1.5645   -1.8155 H       1  UNL1        0.0283
     95 H          -9.6239   -2.0631   -0.4420 H       1  UNL1        0.0283
@<TRIPOS>BOND
     1     1     2    1
     2     2     3    1
     3     2     4    1
     4     4     5    1
     5     5     6    1
     6     6     7   am
     7     7     8    2
     8     7     9    1
     9     9    10    1
    10     9    11    1
    11    11    12   am
    12    12    13    2
    13    12    14    1
    14    14    15    1
    15    15    16    1
    16    16    17    1
    17    17    18   ar
    18    18    19   ar
    19    19    20   ar
    20    20    21   ar
    21    21    22   ar
    22    14    23    1
    23    23    24   am
    24    24    25    2
    25    24    26    1
    26    26    27    1
    27    27    28    1
    28    28    29   ar
    29    29    30   ar
    30    30    31   ar
    31    31    32   ar
    32    32    33   ar
    33     5    34    1
    34    34    35    1
    35    34    36    1
    36    36    37    1
    37    37    38    2
    38    37    39   am
    39    39    40    1
    40    40    41    1
    41    41    42    1
    42    42    43    1
    43    43    44    1
    44    44    45    1
    45    22    17   ar
    46    33    28   ar
    47    45    40    1
    48     1    46    1
    49     1    47    1
    50     1    48    1
    51     2    49    1
    52     3    50    1
    53     3    51    1
    54     3    52    1
    55     4    53    1
    56     4    54    1
    57     5    55    1
    58     6    56    1
    59     9    57    1
    60    10    58    1
    61    10    59    1
    62    10    60    1
    63    11    61    1
    64    14    62    1
    65    15    63    1
    66    15    64    1
    67    16    65    1
    68    16    66    1
    69    18    67    1
    70    19    68    1
    71    20    69    1
    72    21    70    1
    73    22    71    1
    74    23    72    1
    75    27    73    1
    76    27    74    1
    77    29    75    1
    78    30    76    1
    79    31    77    1
    80    32    78    1
    81    33    79    1
    82    34    80    1
    83    35    81    1
    84    36    82    1
    85    36    83    1
    86    39    84    1
    87    40    85    1
    88    41    86    1
    89    41    87    1
    90    42    88    1
    91    42    89    1
    92    43    90    1
    93    43    91    1
    94    44    92    1
    95    44    93    1
    96    45    94    1
    97    45    95    1
