
     RDKit          3D

 95 97  0  0  0  0  0  0  0  0999 V2000
   -2.9962   -0.8595    3.4792 C   0  0  0  0  0  0  0  0  0  0  0  0
   -2.8619    0.3072    2.4722 C   0  0  0  0  0  0  0  0  0  0  0  0
   -3.9779    1.2369    2.8406 C   0  0  0  0  0  0  0  0  0  0  0  0
   -2.9565   -0.3038    1.1319 C   0  0  0  0  0  0  0  0  0  0  0  0
   -2.8331    0.5092   -0.0887 C   0  0  2  0  0  0  0  0  0  0  0  0
   -1.4504    1.1604   -0.0417 N   0  0  0  0  0  0  0  0  0  0  0  0
   -0.3452    0.4960   -0.6166 C   0  0  0  0  0  0  0  0  0  0  0  0
   -0.5790   -0.6339   -1.1274 O   0  0  0  0  0  0  0  0  0  0  0  0
    0.9719    1.1265   -0.5965 C   0  0  2  0  0  0  0  0  0  0  0  0
    0.8609    2.4022   -1.4510 C   0  0  0  0  0  0  0  0  0  0  0  0
    2.0341    0.2914   -1.0682 N   0  0  0  0  0  0  0  0  0  0  0  0
    3.3751    0.3774   -0.6266 C   0  0  0  0  0  0  0  0  0  0  0  0
    3.6661    1.2516    0.2124 O   0  0  0  0  0  0  0  0  0  0  0  0
    4.4456   -0.5389   -1.1288 C   0  0  2  0  0  0  0  0  0  0  0  0
    4.2385   -1.9346   -0.6166 C   0  0  0  0  0  0  0  0  0  0  0  0
    5.2915   -2.8411   -1.1725 C   0  0  0  0  0  0  0  0  0  0  0  0
    5.2466   -2.9743   -2.6309 C   0  0  0  0  0  0  0  0  0  0  0  0
    4.4559   -3.9039   -3.2832 C   0  0  0  0  0  0  0  0  0  0  0  0
    4.4225   -4.0285   -4.6308 C   0  0  0  0  0  0  0  0  0  0  0  0
    5.2131   -3.1923   -5.4114 C   0  0  0  0  0  0  0  0  0  0  0  0
    6.0142   -2.2539   -4.8085 C   0  0  0  0  0  0  0  0  0  0  0  0
    6.0139   -2.1647   -3.4289 C   0  0  0  0  0  0  0  0  0  0  0  0
    5.7480   -0.0642   -0.6516 N   0  0  0  0  0  0  0  0  0  0  0  0
    6.0631    0.0657    0.7289 C   0  0  0  0  0  0  0  0  0  0  0  0
    5.2612   -0.2192    1.6244 O   0  0  0  0  0  0  0  0  0  0  0  0
    7.3257    0.5354    1.1413 O   0  0  0  0  0  0  0  0  0  0  0  0
    7.5920    0.6530    2.5444 C   0  0  0  0  0  0  0  0  0  0  0  0
    8.9504    1.1708    2.7733 C   0  0  0  0  0  0  0  0  0  0  0  0
    9.1389    2.5472    2.8806 C   0  0  0  0  0  0  0  0  0  0  0  0
   10.4052    3.0438    3.0969 C   0  0  0  0  0  0  0  0  0  0  0  0
   11.4961    2.2161    3.2104 C   0  0  0  0  0  0  0  0  0  0  0  0
   11.2905    0.8660    3.1017 C   0  0  0  0  0  0  0  0  0  0  0  0
   10.0397    0.3505    2.8867 C   0  0  0  0  0  0  0  0  0  0  0  0
   -3.7675    1.5459   -0.5017 C   0  0  1  0  0  0  0  0  0  0  0  0
   -3.1125    2.0402   -1.7651 O   0  0  0  0  0  0  0  0  0  0  0  0
   -5.1127    1.2543   -1.0289 C   0  0  0  0  0  0  0  0  0  0  0  0
   -6.1442    0.5666   -0.3039 C   0  0  0  0  0  0  0  0  0  0  0  0
   -6.0044    0.0160    0.7872 O   0  0  0  0  0  0  0  0  0  0  0  0
   -7.4833    0.4907   -0.8660 N   0  0  0  0  0  0  0  0  0  0  0  0
   -8.4960   -0.2064   -0.1291 C   0  0  0  0  0  0  0  0  0  0  0  0
   -9.4232    0.7323    0.6138 C   0  0  0  0  0  0  0  0  0  0  0  0
  -10.7690    0.0184    0.7195 C   0  0  0  0  0  0  0  0  0  0  0  0
  -11.3729    0.1298   -0.6734 C   0  0  0  0  0  0  0  0  0  0  0  0
  -10.4452   -0.5306   -1.6735 C   0  0  0  0  0  0  0  0  0  0  0  0
   -9.2631   -1.1803   -0.9971 C   0  0  0  0  0  0  0  0  0  0  0  0
   -2.8489   -1.8312    2.9921 H   0  0  0  0  0  0  0  0  0  0  0  0
   -2.2050   -0.7962    4.2718 H   0  0  0  0  0  0  0  0  0  0  0  0
   -3.9525   -0.8640    3.9970 H   0  0  0  0  0  0  0  0  0  0  0  0
   -1.8625    0.7488    2.6996 H   0  0  0  0  0  0  0  0  0  0  0  0
   -4.8305    0.6047    3.2521 H   0  0  0  0  0  0  0  0  0  0  0  0
   -3.6609    1.8705    3.7111 H   0  0  0  0  0  0  0  0  0  0  0  0
   -4.4218    1.8374    2.0691 H   0  0  0  0  0  0  0  0  0  0  0  0
   -3.7331   -1.0790    1.1354 H   0  0  0  0  0  0  0  0  0  0  0  0
   -2.0084   -1.0097    1.0612 H   0  0  0  0  0  0  0  0  0  0  0  0
   -2.6956   -0.2146   -0.9179 H   0  0  0  0  0  0  0  0  0  0  0  0
   -1.4232    2.0862    0.4299 H   0  0  0  0  0  0  0  0  0  0  0  0
    1.2189    1.5025    0.4028 H   0  0  0  0  0  0  0  0  0  0  0  0
    1.8243    2.9205   -1.3212 H   0  0  0  0  0  0  0  0  0  0  0  0
    0.6076    2.1692   -2.4998 H   0  0  0  0  0  0  0  0  0  0  0  0
    0.0741    3.0163   -0.9617 H   0  0  0  0  0  0  0  0  0  0  0  0
    1.8238   -0.4449   -1.7956 H   0  0  0  0  0  0  0  0  0  0  0  0
    4.4322   -0.5299   -2.2125 H   0  0  0  0  0  0  0  0  0  0  0  0
    3.2053   -2.2931   -0.8199 H   0  0  0  0  0  0  0  0  0  0  0  0
    4.3256   -1.9918    0.4993 H   0  0  0  0  0  0  0  0  0  0  0  0
    5.3225   -3.8149   -0.6268 H   0  0  0  0  0  0  0  0  0  0  0  0
    6.2786   -2.3441   -0.9185 H   0  0  0  0  0  0  0  0  0  0  0  0
    3.8472   -4.5475   -2.6670 H   0  0  0  0  0  0  0  0  0  0  0  0
    3.7933   -4.7639   -5.1436 H   0  0  0  0  0  0  0  0  0  0  0  0
    5.1559   -3.3257   -6.4825 H   0  0  0  0  0  0  0  0  0  0  0  0
    6.6327   -1.5955   -5.4280 H   0  0  0  0  0  0  0  0  0  0  0  0
    6.6817   -1.3982   -3.0214 H   0  0  0  0  0  0  0  0  0  0  0  0
    6.5044    0.2051   -1.3114 H   0  0  0  0  0  0  0  0  0  0  0  0
    6.8599    1.3492    2.9801 H   0  0  0  0  0  0  0  0  0  0  0  0
    7.4570   -0.3338    3.0450 H   0  0  0  0  0  0  0  0  0  0  0  0
    8.3032    3.2180    2.7935 H   0  0  0  0  0  0  0  0  0  0  0  0
   10.5350    4.1190    3.1785 H   0  0  0  0  0  0  0  0  0  0  0  0
   12.4827    2.6328    3.3795 H   0  0  0  0  0  0  0  0  0  0  0  0
   12.1511    0.2000    3.1912 H   0  0  0  0  0  0  0  0  0  0  0  0
    9.9282   -0.7209    2.8069 H   0  0  0  0  0  0  0  0  0  0  0  0
   -3.7516    2.5136    0.0493 H   0  0  0  0  0  0  0  0  0  0  0  0
   -2.1627    2.0826   -1.5940 H   0  0  0  0  0  0  0  0  0  0  0  0
   -4.9349    0.6492   -2.0074 H   0  0  0  0  0  0  0  0  0  0  0  0
   -5.5949    2.1963   -1.4584 H   0  0  0  0  0  0  0  0  0  0  0  0
   -7.6061    0.9629   -1.7868 H   0  0  0  0  0  0  0  0  0  0  0  0
   -8.0137   -0.7990    0.6647 H   0  0  0  0  0  0  0  0  0  0  0  0
   -9.0786    0.9314    1.6397 H   0  0  0  0  0  0  0  0  0  0  0  0
   -9.5507    1.6970    0.0979 H   0  0  0  0  0  0  0  0  0  0  0  0
  -10.6306   -1.0413    0.9738 H   0  0  0  0  0  0  0  0  0  0  0  0
  -11.4094    0.5508    1.4224 H   0  0  0  0  0  0  0  0  0  0  0  0
  -11.4688    1.2024   -0.8938 H   0  0  0  0  0  0  0  0  0  0  0  0
  -12.3778   -0.3116   -0.6337 H   0  0  0  0  0  0  0  0  0  0  0  0
  -10.1304    0.1662   -2.4795 H   0  0  0  0  0  0  0  0  0  0  0  0
  -11.0287   -1.3256   -2.1735 H   0  0  0  0  0  0  0  0  0  0  0  0
   -8.6063   -1.5645   -1.8155 H   0  0  0  0  0  0  0  0  0  0  0  0
   -9.6239   -2.0631   -0.4420 H   0  0  0  0  0  0  0  0  0  0  0  0
  1  2  1  0
  2  3  1  0
  2  4  1  0
  4  5  1  0
  5  6  1  0
  6  7  1  0
  7  8  2  0
  7  9  1  0
  9 10  1  0
  9 11  1  0
 11 12  1  0
 12 13  2  0
 12 14  1  0
 14 15  1  0
 15 16  1  0
 16 17  1  0
 17 18  2  0
 18 19  1  0
 19 20  2  0
 20 21  1  0
 21 22  2  0
 14 23  1  0
 23 24  1  0
 24 25  2  0
 24 26  1  0
 26 27  1  0
 27 28  1  0
 28 29  2  0
 29 30  1  0
 30 31  2  0
 31 32  1  0
 32 33  2  0
  5 34  1  0
 34 35  1  0
 34 36  1  0
 36 37  1  0
 37 38  2  0
 37 39  1  0
 39 40  1  0
 40 41  1  0
 41 42  1  0
 42 43  1  0
 43 44  1  0
 44 45  1  0
 22 17  1  0
 33 28  1  0
 45 40  1  0
  1 46  1  0
  1 47  1  0
  1 48  1  0
  2 49  1  0
  3 50  1  0
  3 51  1  0
  3 52  1  0
  4 53  1  0
  4 54  1  0
  5 55  1  6
  6 56  1  0
  9 57  1  1
 10 58  1  0
 10 59  1  0
 10 60  1  0
 11 61  1  0
 14 62  1  6
 15 63  1  0
 15 64  1  0
 16 65  1  0
 16 66  1  0
 18 67  1  0
 19 68  1  0
 20 69  1  0
 21 70  1  0
 22 71  1  0
 23 72  1  0
 27 73  1  0
 27 74  1  0
 29 75  1  0
 30 76  1  0
 31 77  1  0
 32 78  1  0
 33 79  1  0
 34 80  1  1
 35 81  1  0
 36 82  1  0
 36 83  1  0
 39 84  1  0
 40 85  1  0
 41 86  1  0
 41 87  1  0
 42 88  1  0
 42 89  1  0
 43 90  1  0
 43 91  1  0
 44 92  1  0
 44 93  1  0
 45 94  1  0
 45 95  1  0
M  END
$$$$
