@<TRIPOS>MOLECULE
*****
 41 43 0 0 0
SMALL
GASTEIGER

@<TRIPOS>ATOM
      1 O           5.5630   -1.0133    3.2524 O.2     1  UNL1       -0.2399
      2 C           5.4879    0.1264    2.7363 C.2     1  UNL1        0.3926
      3 O           6.1780    1.1604    3.3466 O.3     1  UNL1       -0.4740
      4 C           4.6978    0.3609    1.5281 C.2     1  UNL1        0.3254
      5 O           4.6324    1.5114    1.0218 O.2     1  UNL1       -0.2627
      6 N           3.9776   -0.6673    0.8729 N.am    1  UNL1       -0.2761
      7 C           3.2025   -0.4596   -0.3045 C.ar    1  UNL1        0.0357
      8 C           3.7868   -0.6012   -1.5525 C.ar    1  UNL1       -0.0404
      9 C           3.0800   -0.4110   -2.7264 C.ar    1  UNL1       -0.0582
     10 C           1.7479   -0.0689   -2.6271 C.ar    1  UNL1       -0.0352
     11 C           1.1157    0.0852   -1.4083 C.ar    1  UNL1        0.1072
     12 S          -0.5549    0.5150   -1.3977 S.O2    1  UNL1        0.0612
     13 O          -0.8353    1.3483   -2.6165 O.2     1  UNL1       -0.1528
     14 O          -0.8834    1.3995   -0.2043 O.2     1  UNL1       -0.1528
     15 N          -1.6085   -0.8310   -1.4061 N.3     1  UNL1       -0.1720
     16 C          -1.4806   -1.6871   -0.2742 C.3     1  UNL1        0.0248
     17 C          -2.2368   -1.2594    0.9356 C.3     1  UNL1       -0.0129
     18 C          -3.2033   -0.1650    0.6837 C.ar    1  UNL1       -0.0416
     19 C          -3.7485    0.4523    1.7996 C.ar    1  UNL1       -0.0582
     20 C          -4.6515    1.4747    1.6071 C.ar    1  UNL1       -0.0615
     21 C          -5.0361    1.9102    0.3552 C.ar    1  UNL1       -0.0614
     22 C          -4.4639    1.2624   -0.7245 C.ar    1  UNL1       -0.0570
     23 C          -3.5522    0.2301   -0.5716 C.ar    1  UNL1       -0.0285
     24 C          -2.9487   -0.4533   -1.7350 C.3     1  UNL1        0.0458
     25 C           1.8686   -0.1166   -0.2660 C.ar    1  UNL1       -0.0141
     26 H           7.0932    1.0066    3.7982 H       1  UNL1        0.2956
     27 H           4.0244   -1.6261    1.2839 H       1  UNL1        0.1553
     28 H           4.8406   -0.8722   -1.5732 H       1  UNL1        0.0636
     29 H           3.5369   -0.5218   -3.7014 H       1  UNL1        0.0619
     30 H           1.1834    0.0829   -3.5572 H       1  UNL1        0.0637
     31 H          -1.8555   -2.7051   -0.5700 H       1  UNL1        0.0447
     32 H          -0.4042   -1.7533   -0.0122 H       1  UNL1        0.0447
     33 H          -1.5605   -0.9115    1.7672 H       1  UNL1        0.0326
     34 H          -2.8168   -2.0991    1.3769 H       1  UNL1        0.0326
     35 H          -3.4631    0.1291    2.7980 H       1  UNL1        0.0620
     36 H          -5.0997    1.9822    2.4524 H       1  UNL1        0.0618
     37 H          -5.7484    2.7168    0.2528 H       1  UNL1        0.0618
     38 H          -4.7538    1.5906   -1.7289 H       1  UNL1        0.0621
     39 H          -2.9058    0.1976   -2.6322 H       1  UNL1        0.0493
     40 H          -3.5676   -1.3268   -2.0176 H       1  UNL1        0.0493
     41 H           1.3621    0.0071    0.6780 H       1  UNL1        0.0656
@<TRIPOS>BOND
     1     1     2    2
     2     2     3    1
     3     2     4    1
     4     4     5    2
     5     4     6   am
     6     6     7    1
     7     7     8   ar
     8     8     9   ar
     9     9    10   ar
    10    10    11   ar
    11    11    12    1
    12    12    13    2
    13    12    14    2
    14    12    15    1
    15    15    16    1
    16    16    17    1
    17    17    18    1
    18    18    19   ar
    19    19    20   ar
    20    20    21   ar
    21    21    22   ar
    22    22    23   ar
    23    23    24    1
    24    11    25   ar
    25    25     7   ar
    26    24    15    1
    27    23    18   ar
    28     3    26    1
    29     6    27    1
    30     8    28    1
    31     9    29    1
    32    10    30    1
    33    16    31    1
    34    16    32    1
    35    17    33    1
    36    17    34    1
    37    19    35    1
    38    20    36    1
    39    21    37    1
    40    22    38    1
    41    24    39    1
    42    24    40    1
    43    25    41    1
