
     RDKit          3D

 26 27  0  0  0  0  0  0  0  0999 V2000
   -3.6958   -2.5219    0.3009 O   0  0  0  0  0  0  0  0  0  0  0  0
   -2.4537   -1.9533    0.1857 C   0  0  0  0  0  0  0  0  0  0  0  0
   -1.7304   -2.9535   -0.0327 O   0  0  0  0  0  0  0  0  0  0  0  0
   -2.2156   -0.5191    0.3143 C   0  0  0  0  0  0  0  0  0  0  0  0
   -0.9905    0.0881    0.1985 C   0  0  0  0  0  0  0  0  0  0  0  0
    0.1744   -0.6658   -0.0722 N   0  0  0  0  0  0  0  0  0  0  0  0
    1.4994   -0.2411   -0.2220 C   0  0  0  0  0  0  0  0  0  0  0  0
    1.9151    1.0679   -0.1129 C   0  0  0  0  0  0  0  0  0  0  0  0
    3.2104    1.4948   -0.2583 C   0  0  0  0  0  0  0  0  0  0  0  0
    4.1969    0.5747   -0.5346 C   0  0  0  0  0  0  0  0  0  0  0  0
    5.8768    1.0141   -0.7385 Cl  0  0  0  0  0  0  0  0  0  0  0  0
    3.8549   -0.7401   -0.6561 C   0  0  0  0  0  0  0  0  0  0  0  0
    2.5411   -1.0999   -0.4989 C   0  0  0  0  0  0  0  0  0  0  0  0
   -0.9738    1.4035    0.3535 N   0  0  0  0  0  0  0  0  0  0  0  0
   -2.0340    2.1634    0.6076 C   0  0  0  0  0  0  0  0  0  0  0  0
   -3.2791    1.6203    0.7342 C   0  0  0  0  0  0  0  0  0  0  0  0
   -3.3242    0.2569    0.5778 C   0  0  0  0  0  0  0  0  0  0  0  0
   -4.0505   -3.2381   -0.3180 H   0  0  0  0  0  0  0  0  0  0  0  0
    0.0803   -1.6946   -0.1850 H   0  0  0  0  0  0  0  0  0  0  0  0
    1.2588    1.8730    0.0969 H   0  0  0  0  0  0  0  0  0  0  0  0
    3.5507    2.5153   -0.1757 H   0  0  0  0  0  0  0  0  0  0  0  0
    4.6067   -1.4805   -0.8719 H   0  0  0  0  0  0  0  0  0  0  0  0
    2.3306   -2.1750   -0.6089 H   0  0  0  0  0  0  0  0  0  0  0  0
   -1.8699    3.2263    0.7097 H   0  0  0  0  0  0  0  0  0  0  0  0
   -4.1568    2.1921    0.9377 H   0  0  0  0  0  0  0  0  0  0  0  0
   -4.3219   -0.2076    0.6757 H   0  0  0  0  0  0  0  0  0  0  0  0
  1  2  1  0
  2  3  2  0
  2  4  1  0
  4  5  2  0
  5  6  1  0
  6  7  1  0
  7  8  2  0
  8  9  1  0
  9 10  2  0
 10 11  1  0
 10 12  1  0
 12 13  2  0
  5 14  1  0
 14 15  2  0
 15 16  1  0
 16 17  2  0
 17  4  1  0
 13  7  1  0
  1 18  1  0
  6 19  1  0
  8 20  1  0
  9 21  1  0
 12 22  1  0
 13 23  1  0
 15 24  1  0
 16 25  1  0
 17 26  1  0
M  END
$$$$
