@<TRIPOS>MOLECULE
*****
 26 27 0 0 0
SMALL
GASTEIGER

@<TRIPOS>ATOM
      1 O          -3.6958   -2.5219    0.3009 O.3     1  UNL1       -0.4770
      2 C          -2.4537   -1.9533    0.1857 C.2     1  UNL1        0.3402
      3 O          -1.7304   -2.9535   -0.0327 O.2     1  UNL1       -0.2450
      4 C          -2.2156   -0.5191    0.3143 C.ar    1  UNL1        0.0987
      5 C          -0.9905    0.0881    0.1985 C.ar    1  UNL1        0.1369
      6 N           0.1744   -0.6658   -0.0722 N.pl3   1  UNL1       -0.2988
      7 C           1.4994   -0.2411   -0.2220 C.ar    1  UNL1        0.0325
      8 C           1.9151    1.0679   -0.1129 C.ar    1  UNL1       -0.0391
      9 C           3.2104    1.4948   -0.2583 C.ar    1  UNL1       -0.0416
     10 C           4.1969    0.5747   -0.5346 C.ar    1  UNL1        0.0411
     11 CL          5.8768    1.0141   -0.7385 Cl      1  UNL1       -0.0835
     12 C           3.8549   -0.7401   -0.6561 C.ar    1  UNL1       -0.0416
     13 C           2.5411   -1.0999   -0.4989 C.ar    1  UNL1       -0.0391
     14 N          -0.9738    1.4035    0.3535 N.ar    1  UNL1       -0.2394
     15 C          -2.0340    2.1634    0.6076 C.ar    1  UNL1        0.0297
     16 C          -3.2791    1.6203    0.7342 C.ar    1  UNL1       -0.0427
     17 C          -3.3242    0.2569    0.5778 C.ar    1  UNL1       -0.0430
     18 H          -4.0505   -3.2381   -0.3180 H       1  UNL1        0.2954
     19 H           0.0803   -1.6946   -0.1850 H       1  UNL1        0.1536
     20 H           1.2588    1.8730    0.0969 H       1  UNL1        0.0636
     21 H           3.5507    2.5153   -0.1757 H       1  UNL1        0.0633
     22 H           4.6067   -1.4805   -0.8719 H       1  UNL1        0.0633
     23 H           2.3306   -2.1750   -0.6089 H       1  UNL1        0.0636
     24 H          -1.8699    3.2263    0.7097 H       1  UNL1        0.0830
     25 H          -4.1568    2.1921    0.9377 H       1  UNL1        0.0633
     26 H          -4.3219   -0.2076    0.6757 H       1  UNL1        0.0627
@<TRIPOS>BOND
     1     1     2    1
     2     2     3    2
     3     2     4    1
     4     4     5   ar
     5     5     6    1
     6     6     7    1
     7     7     8   ar
     8     8     9   ar
     9     9    10   ar
    10    10    11    1
    11    10    12   ar
    12    12    13   ar
    13     5    14   ar
    14    14    15   ar
    15    15    16   ar
    16    16    17   ar
    17    17     4   ar
    18    13     7   ar
    19     1    18    1
    20     6    19    1
    21     8    20    1
    22     9    21    1
    23    12    22    1
    24    13    23    1
    25    15    24    1
    26    16    25    1
    27    17    26    1
