@<TRIPOS>MOLECULE
*****
 46 49 0 0 0
SMALL
GASTEIGER

@<TRIPOS>ATOM
      1 C           1.4872    0.6280   -0.4561 C.3     1  UNL1        0.0334
      2 N           2.7072    1.0504   -1.0449 N.3     1  UNL1       -0.3253
      3 C           0.4798    0.1609   -1.5422 C.3     1  UNL1        0.0310
      4 N          -0.4753   -0.4775   -0.6110 N.am    1  UNL1       -0.2940
      5 C           0.3892   -1.4873   -0.0097 C.3     1  UNL1        0.0277
      6 C           1.6048   -0.6820    0.3493 C.3     1  UNL1        0.0680
      7 C           2.8859   -1.3428   -0.0196 C.2     1  UNL1        0.2217
      8 O           2.9002   -2.4061   -0.7258 O.2     1  UNL1       -0.2752
      9 N           4.1035   -0.7541    0.4396 N.am    1  UNL1       -0.3012
     10 C           4.4568    0.3810    1.2941 C.3     1  UNL1        0.0147
     11 C           5.5526    1.1020    0.5576 C.3     1  UNL1       -0.0357
     12 C           6.1325    0.0522   -0.4004 C.3     1  UNL1       -0.0357
     13 C           5.4325   -1.2442    0.0437 C.3     1  UNL1        0.0147
     14 C          -1.7860   -0.0050   -0.5605 C.2     1  UNL1        0.2665
     15 O          -1.7412    0.9214   -1.4461 O.2     1  UNL1       -0.2683
     16 C          -3.1568    0.1533   -0.1930 C.ar    1  UNL1        0.1442
     17 C          -3.2850    0.9227    0.9611 C.ar    1  UNL1        0.0588
     18 N          -4.5587    1.1394    1.4156 N.ar    1  UNL1       -0.2512
     19 C          -5.5783    0.5874    0.7036 C.ar    1  UNL1        0.0892
     20 C          -6.8107    0.8667    1.2496 C.ar    1  UNL1       -0.0342
     21 C          -7.8894    0.3189    0.5511 C.ar    1  UNL1       -0.0596
     22 C          -7.7997   -0.4471   -0.5962 C.ar    1  UNL1       -0.0596
     23 C          -6.5284   -0.6955   -1.1010 C.ar    1  UNL1       -0.0342
     24 C          -5.4429   -0.1727   -0.4401 C.ar    1  UNL1        0.0900
     25 N          -4.1821   -0.3759   -0.8735 N.ar    1  UNL1       -0.2390
     26 H           1.0678    1.3870    0.1980 H       1  UNL1        0.0482
     27 H           2.8992    2.0526   -0.9519 H       1  UNL1        0.1185
     28 H           2.9923    0.5774   -1.9040 H       1  UNL1        0.1185
     29 H           0.9646   -0.6452   -2.0859 H       1  UNL1        0.0480
     30 H           0.0620    0.9874   -2.1004 H       1  UNL1        0.0480
     31 H          -0.0970   -1.9618    0.8698 H       1  UNL1        0.0472
     32 H           0.5906   -2.2192   -0.8261 H       1  UNL1        0.0472
     33 H           1.6054   -0.4954    1.4264 H       1  UNL1        0.0426
     34 H           4.9506   -0.0967    2.1784 H       1  UNL1        0.0464
     35 H           3.6029    1.0024    1.5775 H       1  UNL1        0.0464
     36 H           5.1635    1.9708    0.0000 H       1  UNL1        0.0281
     37 H           6.3821    1.4009    1.2514 H       1  UNL1        0.0281
     38 H           5.8760    0.2812   -1.4515 H       1  UNL1        0.0281
     39 H           7.2176   -0.0389   -0.3093 H       1  UNL1        0.0281
     40 H           5.8979   -1.6509    0.9489 H       1  UNL1        0.0464
     41 H           5.3636   -1.9431   -0.7923 H       1  UNL1        0.0464
     42 H          -2.4705    1.3643    1.5318 H       1  UNL1        0.0853
     43 H          -6.9759    1.4540    2.1393 H       1  UNL1        0.0639
     44 H          -8.8925    0.4953    0.9243 H       1  UNL1        0.0618
     45 H          -8.6864   -0.8297   -1.0691 H       1  UNL1        0.0618
     46 H          -6.4115   -1.2870   -1.9926 H       1  UNL1        0.0639
@<TRIPOS>BOND
     1     1     2    1
     2     1     3    1
     3     3     4    1
     4     4     5    1
     5     5     6    1
     6     6     7    1
     7     7     8    2
     8     7     9   am
     9     9    10    1
    10    10    11    1
    11    11    12    1
    12    12    13    1
    13     4    14   am
    14    14    15    2
    15    14    16    1
    16    16    17   ar
    17    17    18   ar
    18    18    19   ar
    19    19    20   ar
    20    20    21   ar
    21    21    22   ar
    22    22    23   ar
    23    23    24   ar
    24    24    25   ar
    25     6     1    1
    26    13     9    1
    27    25    16   ar
    28    24    19   ar
    29     1    26    1
    30     2    27    1
    31     2    28    1
    32     3    29    1
    33     3    30    1
    34     5    31    1
    35     5    32    1
    36     6    33    1
    37    10    34    1
    38    10    35    1
    39    11    36    1
    40    11    37    1
    41    12    38    1
    42    12    39    1
    43    13    40    1
    44    13    41    1
    45    17    42    1
    46    20    43    1
    47    21    44    1
    48    22    45    1
    49    23    46    1
