
     RDKit          3D

 46 49  0  0  0  0  0  0  0  0999 V2000
    1.4872    0.6280   -0.4561 C   0  0  1  0  0  0  0  0  0  0  0  0
    2.7072    1.0504   -1.0449 N   0  0  0  0  0  0  0  0  0  0  0  0
    0.4798    0.1609   -1.5422 C   0  0  0  0  0  0  0  0  0  0  0  0
   -0.4753   -0.4775   -0.6110 N   0  0  0  0  0  0  0  0  0  0  0  0
    0.3892   -1.4873   -0.0097 C   0  0  0  0  0  0  0  0  0  0  0  0
    1.6048   -0.6820    0.3493 C   0  0  1  0  0  0  0  0  0  0  0  0
    2.8859   -1.3428   -0.0196 C   0  0  0  0  0  0  0  0  0  0  0  0
    2.9002   -2.4061   -0.7258 O   0  0  0  0  0  0  0  0  0  0  0  0
    4.1035   -0.7541    0.4396 N   0  0  0  0  0  0  0  0  0  0  0  0
    4.4568    0.3810    1.2941 C   0  0  0  0  0  0  0  0  0  0  0  0
    5.5526    1.1020    0.5576 C   0  0  0  0  0  0  0  0  0  0  0  0
    6.1325    0.0522   -0.4004 C   0  0  0  0  0  0  0  0  0  0  0  0
    5.4325   -1.2442    0.0437 C   0  0  0  0  0  0  0  0  0  0  0  0
   -1.7860   -0.0050   -0.5605 C   0  0  0  0  0  0  0  0  0  0  0  0
   -1.7412    0.9214   -1.4461 O   0  0  0  0  0  0  0  0  0  0  0  0
   -3.1568    0.1533   -0.1930 C   0  0  0  0  0  0  0  0  0  0  0  0
   -3.2850    0.9227    0.9611 C   0  0  0  0  0  0  0  0  0  0  0  0
   -4.5587    1.1394    1.4156 N   0  0  0  0  0  0  0  0  0  0  0  0
   -5.5783    0.5874    0.7036 C   0  0  0  0  0  0  0  0  0  0  0  0
   -6.8107    0.8667    1.2496 C   0  0  0  0  0  0  0  0  0  0  0  0
   -7.8894    0.3189    0.5511 C   0  0  0  0  0  0  0  0  0  0  0  0
   -7.7997   -0.4471   -0.5962 C   0  0  0  0  0  0  0  0  0  0  0  0
   -6.5284   -0.6955   -1.1010 C   0  0  0  0  0  0  0  0  0  0  0  0
   -5.4429   -0.1727   -0.4401 C   0  0  0  0  0  0  0  0  0  0  0  0
   -4.1821   -0.3759   -0.8735 N   0  0  0  0  0  0  0  0  0  0  0  0
    1.0678    1.3870    0.1980 H   0  0  0  0  0  0  0  0  0  0  0  0
    2.8992    2.0526   -0.9519 H   0  0  0  0  0  0  0  0  0  0  0  0
    2.9923    0.5774   -1.9040 H   0  0  0  0  0  0  0  0  0  0  0  0
    0.9646   -0.6452   -2.0859 H   0  0  0  0  0  0  0  0  0  0  0  0
    0.0620    0.9874   -2.1004 H   0  0  0  0  0  0  0  0  0  0  0  0
   -0.0970   -1.9618    0.8698 H   0  0  0  0  0  0  0  0  0  0  0  0
    0.5906   -2.2192   -0.8261 H   0  0  0  0  0  0  0  0  0  0  0  0
    1.6054   -0.4954    1.4264 H   0  0  0  0  0  0  0  0  0  0  0  0
    4.9506   -0.0967    2.1784 H   0  0  0  0  0  0  0  0  0  0  0  0
    3.6029    1.0024    1.5775 H   0  0  0  0  0  0  0  0  0  0  0  0
    5.1635    1.9708    0.0000 H   0  0  0  0  0  0  0  0  0  0  0  0
    6.3821    1.4009    1.2514 H   0  0  0  0  0  0  0  0  0  0  0  0
    5.8760    0.2812   -1.4515 H   0  0  0  0  0  0  0  0  0  0  0  0
    7.2176   -0.0389   -0.3093 H   0  0  0  0  0  0  0  0  0  0  0  0
    5.8979   -1.6509    0.9489 H   0  0  0  0  0  0  0  0  0  0  0  0
    5.3636   -1.9431   -0.7923 H   0  0  0  0  0  0  0  0  0  0  0  0
   -2.4705    1.3643    1.5318 H   0  0  0  0  0  0  0  0  0  0  0  0
   -6.9759    1.4540    2.1393 H   0  0  0  0  0  0  0  0  0  0  0  0
   -8.8925    0.4953    0.9243 H   0  0  0  0  0  0  0  0  0  0  0  0
   -8.6864   -0.8297   -1.0691 H   0  0  0  0  0  0  0  0  0  0  0  0
   -6.4115   -1.2870   -1.9926 H   0  0  0  0  0  0  0  0  0  0  0  0
  1  2  1  0
  1  3  1  0
  3  4  1  0
  4  5  1  0
  5  6  1  0
  6  7  1  0
  7  8  2  0
  7  9  1  0
  9 10  1  0
 10 11  1  0
 11 12  1  0
 12 13  1  0
  4 14  1  0
 14 15  2  0
 14 16  1  0
 16 17  2  0
 17 18  1  0
 18 19  2  0
 19 20  1  0
 20 21  2  0
 21 22  1  0
 22 23  2  0
 23 24  1  0
 24 25  2  0
  6  1  1  0
 13  9  1  0
 25 16  1  0
 24 19  1  0
  1 26  1  1
  2 27  1  0
  2 28  1  0
  3 29  1  0
  3 30  1  0
  5 31  1  0
  5 32  1  0
  6 33  1  1
 10 34  1  0
 10 35  1  0
 11 36  1  0
 11 37  1  0
 12 38  1  0
 12 39  1  0
 13 40  1  0
 13 41  1  0
 17 42  1  0
 20 43  1  0
 21 44  1  0
 22 45  1  0
 23 46  1  0
M  END
$$$$
