@<TRIPOS>MOLECULE
*****
 49 52 0 0 0
SMALL
GASTEIGER

@<TRIPOS>ATOM
      1 C          -5.3262    1.0665    3.9634 C.3     1  UNL1        0.0001
      2 N          -4.8151    0.3861    2.8112 N.am    1  UNL1       -0.3172
      3 C          -3.9704    1.0360    1.8482 C.2     1  UNL1        0.2296
      4 O          -3.7125    2.2447    2.0917 O.2     1  UNL1       -0.2743
      5 C          -3.4885    0.2926    0.7044 C.3     1  UNL1        0.1052
      6 C          -2.6376   -0.9487    0.9587 C.3     1  UNL1       -0.0220
      7 C          -2.0736    0.2657    0.2629 C.3     1  UNL1        0.0134
      8 C          -1.8713    0.2296   -1.1960 C.3     1  UNL1        0.0935
      9 C          -2.4179    1.5383   -1.8102 C.3     1  UNL1       -0.0351
     10 C          -0.4405    0.1207   -1.5755 C.ar    1  UNL1        0.0158
     11 C           0.6036   -0.0729   -0.7292 C.ar    1  UNL1       -0.0463
     12 C           1.9126   -0.1482   -1.1779 C.ar    1  UNL1       -0.0217
     13 C           3.0514   -0.3681   -0.2949 C.2     1  UNL1       -0.0172
     14 C           4.1573    0.3004   -0.4213 C.2     1  UNL1        0.1492
     15 F           4.2073    1.2321   -1.4273 F       1  UNL1       -0.2032
     16 C           5.3619    0.1510    0.3864 C.ar    1  UNL1        0.0990
     17 C           5.4511   -0.7726    1.4033 C.ar    1  UNL1       -0.0321
     18 C           6.6128   -0.8910    2.1392 C.ar    1  UNL1       -0.0398
     19 C           7.7224   -0.0882    1.8799 C.ar    1  UNL1        0.0591
     20 CL          9.1984   -0.2384    2.8043 Cl      1  UNL1       -0.0820
     21 C           7.5861    0.8189    0.8566 C.ar    1  UNL1        0.0466
     22 N           6.4496    0.9170    0.1557 N.ar    1  UNL1       -0.2512
     23 C           2.1255   -0.0164   -2.5527 C.ar    1  UNL1       -0.0518
     24 C           1.0941    0.1807   -3.4476 C.ar    1  UNL1       -0.0255
     25 C          -0.1802    0.2469   -2.9440 C.ar    1  UNL1        0.1289
     26 F          -1.1742    0.4394   -3.8386 F       1  UNL1       -0.2051
     27 N          -2.5506   -0.8322   -1.8942 N.2     1  UNL1       -0.2521
     28 C          -3.8119   -0.9900   -1.8087 C.2     1  UNL1        0.1485
     29 N          -4.5067   -1.9920   -2.4640 N.pl3   1  UNL1       -0.3380
     30 S          -4.6407    0.1641   -0.7291 S.3     1  UNL1       -0.0746
     31 H          -6.2321    1.6472    3.6220 H       1  UNL1        0.0426
     32 H          -4.5992    1.7795    4.4030 H       1  UNL1        0.0426
     33 H          -5.6948    0.3275    4.6953 H       1  UNL1        0.0426
     34 H          -5.0675   -0.6123    2.6692 H       1  UNL1        0.1484
     35 H          -2.9016   -1.8411    0.3216 H       1  UNL1        0.0287
     36 H          -2.3511   -1.1623    2.0149 H       1  UNL1        0.0287
     37 H          -1.4094    0.9294    0.8695 H       1  UNL1        0.0346
     38 H          -2.8556    2.1624   -0.9866 H       1  UNL1        0.0256
     39 H          -1.5793    2.0869   -2.2351 H       1  UNL1        0.0256
     40 H          -3.2157    1.3449   -2.5448 H       1  UNL1        0.0256
     41 H           0.3934   -0.1706    0.3191 H       1  UNL1        0.0628
     42 H           2.9771   -1.1096    0.4888 H       1  UNL1        0.0653
     43 H           4.5999   -1.4239    1.6382 H       1  UNL1        0.0640
     44 H           6.6940   -1.6274    2.9547 H       1  UNL1        0.0633
     45 H           8.4298    1.4598    0.6246 H       1  UNL1        0.0844
     46 H           3.1520   -0.0815   -2.9136 H       1  UNL1        0.0624
     47 H           1.3382    0.2751   -4.5002 H       1  UNL1        0.0646
     48 H          -4.4271   -2.1967   -3.5049 H       1  UNL1        0.1442
     49 H          -5.1673   -2.5998   -1.8906 H       1  UNL1        0.1442
@<TRIPOS>BOND
     1     1     2    1
     2     2     3   am
     3     3     4    2
     4     5     3    1
     5     5     6    1
     6     6     7    1
     7     7     8    1
     8     8     9    1
     9     8    10    1
    10    10    11   ar
    11    11    12   ar
    12    12    13    1
    13    13    14    2
    14    14    15    1
    15    14    16    1
    16    16    17   ar
    17    17    18   ar
    18    18    19   ar
    19    19    20    1
    20    19    21   ar
    21    21    22   ar
    22    12    23   ar
    23    23    24   ar
    24    24    25   ar
    25    25    26    1
    26     8    27    1
    27    27    28    2
    28    28    29    1
    29    28    30    1
    30     7     5    1
    31    25    10   ar
    32    30     5    1
    33    22    16   ar
    34     1    31    1
    35     1    32    1
    36     1    33    1
    37     2    34    1
    38     6    35    1
    39     6    36    1
    40     7    37    1
    41     9    38    1
    42     9    39    1
    43     9    40    1
    44    11    41    1
    45    13    42    1
    46    17    43    1
    47    18    44    1
    48    21    45    1
    49    23    46    1
    50    24    47    1
    51    29    48    1
    52    29    49    1
