
     RDKit          3D

 49 52  0  0  0  0  0  0  0  0999 V2000
   -5.3262    1.0665    3.9634 C   0  0  0  0  0  0  0  0  0  0  0  0
   -4.8151    0.3861    2.8112 N   0  0  0  0  0  0  0  0  0  0  0  0
   -3.9704    1.0360    1.8482 C   0  0  0  0  0  0  0  0  0  0  0  0
   -3.7125    2.2447    2.0917 O   0  0  0  0  0  0  0  0  0  0  0  0
   -3.4885    0.2926    0.7044 C   0  0  2  0  0  0  0  0  0  0  0  0
   -2.6376   -0.9487    0.9587 C   0  0  0  0  0  0  0  0  0  0  0  0
   -2.0736    0.2657    0.2629 C   0  0  1  0  0  0  0  0  0  0  0  0
   -1.8713    0.2296   -1.1960 C   0  0  1  0  0  0  0  0  0  0  0  0
   -2.4179    1.5383   -1.8102 C   0  0  0  0  0  0  0  0  0  0  0  0
   -0.4405    0.1207   -1.5755 C   0  0  0  0  0  0  0  0  0  0  0  0
    0.6036   -0.0729   -0.7292 C   0  0  0  0  0  0  0  0  0  0  0  0
    1.9126   -0.1482   -1.1779 C   0  0  0  0  0  0  0  0  0  0  0  0
    3.0514   -0.3681   -0.2949 C   0  0  0  0  0  0  0  0  0  0  0  0
    4.1573    0.3004   -0.4213 C   0  0  0  0  0  0  0  0  0  0  0  0
    4.2073    1.2321   -1.4273 F   0  0  0  0  0  0  0  0  0  0  0  0
    5.3619    0.1510    0.3864 C   0  0  0  0  0  0  0  0  0  0  0  0
    5.4511   -0.7726    1.4033 C   0  0  0  0  0  0  0  0  0  0  0  0
    6.6128   -0.8910    2.1392 C   0  0  0  0  0  0  0  0  0  0  0  0
    7.7224   -0.0882    1.8799 C   0  0  0  0  0  0  0  0  0  0  0  0
    9.1984   -0.2384    2.8043 Cl  0  0  0  0  0  0  0  0  0  0  0  0
    7.5861    0.8189    0.8566 C   0  0  0  0  0  0  0  0  0  0  0  0
    6.4496    0.9170    0.1557 N   0  0  0  0  0  0  0  0  0  0  0  0
    2.1255   -0.0164   -2.5527 C   0  0  0  0  0  0  0  0  0  0  0  0
    1.0941    0.1807   -3.4476 C   0  0  0  0  0  0  0  0  0  0  0  0
   -0.1802    0.2469   -2.9440 C   0  0  0  0  0  0  0  0  0  0  0  0
   -1.1742    0.4394   -3.8386 F   0  0  0  0  0  0  0  0  0  0  0  0
   -2.5506   -0.8322   -1.8942 N   0  0  0  0  0  0  0  0  0  0  0  0
   -3.8119   -0.9900   -1.8087 C   0  0  0  0  0  0  0  0  0  0  0  0
   -4.5067   -1.9920   -2.4640 N   0  0  0  0  0  0  0  0  0  0  0  0
   -4.6407    0.1641   -0.7291 S   0  0  0  0  0  0  0  0  0  0  0  0
   -6.2321    1.6472    3.6220 H   0  0  0  0  0  0  0  0  0  0  0  0
   -4.5992    1.7795    4.4030 H   0  0  0  0  0  0  0  0  0  0  0  0
   -5.6948    0.3275    4.6953 H   0  0  0  0  0  0  0  0  0  0  0  0
   -5.0675   -0.6123    2.6692 H   0  0  0  0  0  0  0  0  0  0  0  0
   -2.9016   -1.8411    0.3216 H   0  0  0  0  0  0  0  0  0  0  0  0
   -2.3511   -1.1623    2.0149 H   0  0  0  0  0  0  0  0  0  0  0  0
   -1.4094    0.9294    0.8695 H   0  0  0  0  0  0  0  0  0  0  0  0
   -2.8556    2.1624   -0.9866 H   0  0  0  0  0  0  0  0  0  0  0  0
   -1.5793    2.0869   -2.2351 H   0  0  0  0  0  0  0  0  0  0  0  0
   -3.2157    1.3449   -2.5448 H   0  0  0  0  0  0  0  0  0  0  0  0
    0.3934   -0.1706    0.3191 H   0  0  0  0  0  0  0  0  0  0  0  0
    2.9771   -1.1096    0.4888 H   0  0  0  0  0  0  0  0  0  0  0  0
    4.5999   -1.4239    1.6382 H   0  0  0  0  0  0  0  0  0  0  0  0
    6.6940   -1.6274    2.9547 H   0  0  0  0  0  0  0  0  0  0  0  0
    8.4298    1.4598    0.6246 H   0  0  0  0  0  0  0  0  0  0  0  0
    3.1520   -0.0815   -2.9136 H   0  0  0  0  0  0  0  0  0  0  0  0
    1.3382    0.2751   -4.5002 H   0  0  0  0  0  0  0  0  0  0  0  0
   -4.4271   -2.1967   -3.5049 H   0  0  0  0  0  0  0  0  0  0  0  0
   -5.1673   -2.5998   -1.8906 H   0  0  0  0  0  0  0  0  0  0  0  0
  1  2  1  0
  2  3  1  0
  3  4  2  0
  5  3  1  1
  5  6  1  0
  6  7  1  0
  7  8  1  0
  8  9  1  6
  8 10  1  0
 10 11  2  0
 11 12  1  0
 12 13  1  0
 13 14  2  0
 14 15  1  0
 14 16  1  0
 16 17  2  0
 17 18  1  0
 18 19  2  0
 19 20  1  0
 19 21  1  0
 21 22  2  0
 12 23  2  0
 23 24  1  0
 24 25  2  0
 25 26  1  0
  8 27  1  0
 27 28  2  0
 28 29  1  0
 28 30  1  0
  7  5  1  0
 25 10  1  0
 30  5  1  0
 22 16  1  0
  1 31  1  0
  1 32  1  0
  1 33  1  0
  2 34  1  0
  6 35  1  0
  6 36  1  0
  7 37  1  1
  9 38  1  0
  9 39  1  0
  9 40  1  0
 11 41  1  0
 13 42  1  0
 17 43  1  0
 18 44  1  0
 21 45  1  0
 23 46  1  0
 24 47  1  0
 29 48  1  0
 29 49  1  0
M  END
$$$$
