@<TRIPOS>MOLECULE
*****
 29 30 0 0 0
SMALL
GASTEIGER

@<TRIPOS>ATOM
      1 O          -5.5076    1.6713    0.8358 O.3     1  UNL1       -0.4771
      2 C          -5.1253    0.4722    0.2519 C.2     1  UNL1        0.3368
      3 O          -6.0680   -0.2862   -0.1137 O.2     1  UNL1       -0.2451
      4 C          -3.7419    0.0600    0.0473 C.ar    1  UNL1        0.0591
      5 C          -3.5565   -1.1673   -0.5499 C.ar    1  UNL1       -0.0443
      6 C          -2.2525   -1.5776   -0.7534 C.ar    1  UNL1       -0.0192
      7 C          -1.1807   -0.8051   -0.3811 C.ar    1  UNL1        0.1206
      8 O           0.1598   -1.1865   -0.5707 O.3     1  UNL1       -0.4902
      9 C           1.2146   -0.3441   -0.1643 C.3     1  UNL1        0.1074
     10 C           2.5258   -1.0411   -0.5072 C.3     1  UNL1        0.0583
     11 N           3.6307   -0.1702   -0.0870 N.ar    1  UNL1       -0.3336
     12 C           4.2453    0.7820   -0.8094 C.ar    1  UNL1        0.0241
     13 C           5.2355    1.3691   -0.0374 C.ar    1  UNL1        0.0454
     14 N           5.2060    0.7515    1.1664 N.ar    1  UNL1       -0.2441
     15 C           4.2365   -0.1713    1.1218 C.ar    1  UNL1        0.0960
     16 C          -1.4347    0.4314    0.2207 C.ar    1  UNL1       -0.0192
     17 C          -2.7182    0.8825    0.4439 C.ar    1  UNL1       -0.0443
     18 H          -6.2819    2.1727    0.4402 H       1  UNL1        0.2954
     19 H          -4.3688   -1.8178   -0.8637 H       1  UNL1        0.0627
     20 H          -2.0552   -2.5338   -1.2188 H       1  UNL1        0.0654
     21 H           1.1979   -0.1312    0.9122 H       1  UNL1        0.0714
     22 H           1.1282    0.6071   -0.7142 H       1  UNL1        0.0714
     23 H           2.5568   -2.0153    0.0221 H       1  UNL1        0.0526
     24 H           2.5713   -1.2630   -1.5937 H       1  UNL1        0.0526
     25 H           4.0393    1.0722   -1.8130 H       1  UNL1        0.0825
     26 H           5.9007    2.1797   -0.3699 H       1  UNL1        0.0845
     27 H           3.9482   -0.8383    1.9114 H       1  UNL1        0.1029
     28 H          -0.5843    1.0570    0.5222 H       1  UNL1        0.0654
     29 H          -2.9213    1.8401    0.9100 H       1  UNL1        0.0627
@<TRIPOS>BOND
     1     1     2    1
     2     2     3    2
     3     2     4    1
     4     4     5   ar
     5     5     6   ar
     6     6     7   ar
     7     7     8    1
     8     8     9    1
     9     9    10    1
    10    10    11    1
    11    11    12   ar
    12    12    13   ar
    13    13    14   ar
    14    14    15   ar
    15     7    16   ar
    16    16    17   ar
    17    17     4   ar
    18    15    11   ar
    19     1    18    1
    20     5    19    1
    21     6    20    1
    22     9    21    1
    23     9    22    1
    24    10    23    1
    25    10    24    1
    26    12    25    1
    27    13    26    1
    28    15    27    1
    29    16    28    1
    30    17    29    1
