
     RDKit          3D

 29 30  0  0  0  0  0  0  0  0999 V2000
   -5.5076    1.6713    0.8358 O   0  0  0  0  0  0  0  0  0  0  0  0
   -5.1253    0.4722    0.2519 C   0  0  0  0  0  0  0  0  0  0  0  0
   -6.0680   -0.2862   -0.1137 O   0  0  0  0  0  0  0  0  0  0  0  0
   -3.7419    0.0600    0.0473 C   0  0  0  0  0  0  0  0  0  0  0  0
   -3.5565   -1.1673   -0.5499 C   0  0  0  0  0  0  0  0  0  0  0  0
   -2.2525   -1.5776   -0.7534 C   0  0  0  0  0  0  0  0  0  0  0  0
   -1.1807   -0.8051   -0.3811 C   0  0  0  0  0  0  0  0  0  0  0  0
    0.1598   -1.1865   -0.5707 O   0  0  0  0  0  0  0  0  0  0  0  0
    1.2146   -0.3441   -0.1643 C   0  0  0  0  0  0  0  0  0  0  0  0
    2.5258   -1.0411   -0.5072 C   0  0  0  0  0  0  0  0  0  0  0  0
    3.6307   -0.1702   -0.0870 N   0  0  0  0  0  0  0  0  0  0  0  0
    4.2453    0.7820   -0.8094 C   0  0  0  0  0  0  0  0  0  0  0  0
    5.2355    1.3691   -0.0374 C   0  0  0  0  0  0  0  0  0  0  0  0
    5.2060    0.7515    1.1664 N   0  0  0  0  0  0  0  0  0  0  0  0
    4.2365   -0.1713    1.1218 C   0  0  0  0  0  0  0  0  0  0  0  0
   -1.4347    0.4314    0.2207 C   0  0  0  0  0  0  0  0  0  0  0  0
   -2.7182    0.8825    0.4439 C   0  0  0  0  0  0  0  0  0  0  0  0
   -6.2819    2.1727    0.4402 H   0  0  0  0  0  0  0  0  0  0  0  0
   -4.3688   -1.8178   -0.8637 H   0  0  0  0  0  0  0  0  0  0  0  0
   -2.0552   -2.5338   -1.2188 H   0  0  0  0  0  0  0  0  0  0  0  0
    1.1979   -0.1312    0.9122 H   0  0  0  0  0  0  0  0  0  0  0  0
    1.1282    0.6071   -0.7142 H   0  0  0  0  0  0  0  0  0  0  0  0
    2.5568   -2.0153    0.0221 H   0  0  0  0  0  0  0  0  0  0  0  0
    2.5713   -1.2630   -1.5937 H   0  0  0  0  0  0  0  0  0  0  0  0
    4.0393    1.0722   -1.8130 H   0  0  0  0  0  0  0  0  0  0  0  0
    5.9007    2.1797   -0.3699 H   0  0  0  0  0  0  0  0  0  0  0  0
    3.9482   -0.8383    1.9114 H   0  0  0  0  0  0  0  0  0  0  0  0
   -0.5843    1.0570    0.5222 H   0  0  0  0  0  0  0  0  0  0  0  0
   -2.9213    1.8401    0.9100 H   0  0  0  0  0  0  0  0  0  0  0  0
  1  2  1  0
  2  3  2  0
  2  4  1  0
  4  5  2  0
  5  6  1  0
  6  7  2  0
  7  8  1  0
  8  9  1  0
  9 10  1  0
 10 11  1  0
 11 12  1  0
 12 13  2  0
 13 14  1  0
 14 15  2  0
  7 16  1  0
 16 17  2  0
 17  4  1  0
 15 11  1  0
  1 18  1  0
  5 19  1  0
  6 20  1  0
  9 21  1  0
  9 22  1  0
 10 23  1  0
 10 24  1  0
 12 25  1  0
 13 26  1  0
 15 27  1  0
 16 28  1  0
 17 29  1  0
M  END
$$$$
