@<TRIPOS>MOLECULE
*****
 67 70 0 0 0
SMALL
GASTEIGER

@<TRIPOS>ATOM
      1 N          -6.8495   -2.8076   -1.6162 N.am    1  UNL1       -0.3291
      2 C          -6.7248   -1.4093   -1.4253 C.2     1  UNL1        0.2148
      3 O          -6.5393   -0.6659   -2.3988 O.2     1  UNL1       -0.2757
      4 C          -6.8219   -0.8521   -0.0355 C.3     1  UNL1        0.0491
      5 C          -6.6887    0.6004   -0.1186 C.ar    1  UNL1       -0.0355
      6 C          -7.8604    1.3535   -0.0503 C.ar    1  UNL1       -0.0579
      7 C          -7.8082    2.7209   -0.1629 C.ar    1  UNL1       -0.0615
      8 C          -6.6142    3.3556   -0.3425 C.ar    1  UNL1       -0.0615
      9 C          -5.4634    2.6070   -0.4082 C.ar    1  UNL1       -0.0583
     10 C          -5.4803    1.2116   -0.2964 C.ar    1  UNL1       -0.0434
     11 C          -4.1986    0.5074   -0.3352 C.3     1  UNL1       -0.0220
     12 C          -3.6516    0.1951    1.0292 C.3     1  UNL1       -0.0057
     13 C          -2.3409   -0.4942    0.9657 C.ar    1  UNL1        0.0583
     14 N          -1.2481    0.3172    0.9927 N.ar    1  UNL1       -0.2187
     15 C           0.0119   -0.2160    0.9024 C.ar    1  UNL1        0.2198
     16 N           1.1038    0.6758    0.9213 N.pl3   1  UNL1       -0.2807
     17 C           2.4607    0.3279    0.8859 C.ar    1  UNL1        0.0761
     18 C           2.9373   -0.9619    0.9443 C.ar    1  UNL1       -0.0366
     19 C           4.3125   -1.2394    0.9323 C.ar    1  UNL1       -0.0563
     20 C           5.2428   -0.2146    0.8610 C.ar    1  UNL1       -0.0406
     21 C           6.6886   -0.4612    0.8620 C.3     1  UNL1       -0.0134
     22 C           7.4622    0.7345    0.3912 C.3     1  UNL1       -0.0336
     23 C           7.1569    0.9631   -1.0711 C.3     1  UNL1       -0.0036
     24 N           7.8495   -0.1300   -1.7800 N.3     1  UNL1       -0.3159
     25 C           7.1289   -1.3525   -1.4652 C.3     1  UNL1       -0.0036
     26 C           7.0922   -1.6428   -0.0050 C.3     1  UNL1       -0.0336
     27 C           4.7459    1.0590    0.8039 C.ar    1  UNL1       -0.0143
     28 C           3.4113    1.3524    0.8138 C.ar    1  UNL1        0.1514
     29 O           2.9471    2.6611    0.7512 O.3     1  UNL1       -0.4038
     30 C           2.7325    3.2130   -0.5346 C.3     1  UNL1        0.5753
     31 F           2.2617    4.5235   -0.4250 F       1  UNL1       -0.1328
     32 F           1.9365    2.4375   -1.3462 F       1  UNL1       -0.1328
     33 F           3.9747    3.2734   -1.1797 F       1  UNL1       -0.1328
     34 N           0.1179   -1.5436    0.7890 N.ar    1  UNL1       -0.2221
     35 C          -0.9091   -2.3731    0.7587 C.ar    1  UNL1        0.0446
     36 C          -2.2063   -1.8474    0.8502 C.ar    1  UNL1        0.0942
     37 C          -3.3714   -2.7506    0.8457 C.3     1  UNL1        0.4205
     38 F          -4.1589   -2.5993    1.9788 F       1  UNL1       -0.1658
     39 F          -2.8273   -4.0626    0.9948 F       1  UNL1       -0.1658
     40 F          -4.0639   -2.8128   -0.3231 F       1  UNL1       -0.1658
     41 H          -6.6609   -3.4320   -0.8046 H       1  UNL1        0.1449
     42 H          -7.1208   -3.2026   -2.5367 H       1  UNL1        0.1449
     43 H          -7.8411   -1.0929    0.3891 H       1  UNL1        0.0407
     44 H          -6.1194   -1.3669    0.6102 H       1  UNL1        0.0407
     45 H          -8.8083    0.8446    0.0919 H       1  UNL1        0.0620
     46 H          -8.7157    3.2998   -0.1102 H       1  UNL1        0.0618
     47 H          -6.5845    4.4428   -0.4318 H       1  UNL1        0.0618
     48 H          -4.5302    3.1408   -0.5513 H       1  UNL1        0.0620
     49 H          -3.4586    1.2058   -0.8658 H       1  UNL1        0.0317
     50 H          -4.2011   -0.3758   -0.9904 H       1  UNL1        0.0317
     51 H          -4.3281   -0.3485    1.6912 H       1  UNL1        0.0331
     52 H          -3.4951    1.1913    1.5543 H       1  UNL1        0.0331
     53 H           0.8565    1.7099    0.9763 H       1  UNL1        0.1551
     54 H           2.2443   -1.7979    1.0069 H       1  UNL1        0.0637
     55 H           4.6397   -2.2503    0.9792 H       1  UNL1        0.0621
     56 H           7.0229   -0.7548    1.8941 H       1  UNL1        0.0350
     57 H           8.5534    0.4531    0.4285 H       1  UNL1        0.0283
     58 H           7.3439    1.6388    1.0216 H       1  UNL1        0.0283
     59 H           6.0687    0.8239   -1.2245 H       1  UNL1        0.0424
     60 H           7.5049    1.9398   -1.4314 H       1  UNL1        0.0424
     61 H           8.7884   -0.1963   -1.3119 H       1  UNL1        0.1219
     62 H           6.1502   -1.3937   -1.9740 H       1  UNL1        0.0424
     63 H           7.7360   -2.1784   -1.9394 H       1  UNL1        0.0424
     64 H           6.4800   -2.5332    0.1615 H       1  UNL1        0.0283
     65 H           8.1273   -1.9280    0.3259 H       1  UNL1        0.0283
     66 H           5.4021    1.9486    0.7500 H       1  UNL1        0.0657
     67 H          -0.8029   -3.4407    0.6662 H       1  UNL1        0.0837
@<TRIPOS>BOND
     1     1     2   am
     2     2     3    2
     3     2     4    1
     4     4     5    1
     5     5     6   ar
     6     6     7   ar
     7     7     8   ar
     8     8     9   ar
     9     9    10   ar
    10    10    11    1
    11    11    12    1
    12    12    13    1
    13    13    14   ar
    14    14    15   ar
    15    15    16    1
    16    16    17    1
    17    17    18   ar
    18    18    19   ar
    19    19    20   ar
    20    20    21    1
    21    21    22    1
    22    22    23    1
    23    23    24    1
    24    24    25    1
    25    25    26    1
    26    20    27   ar
    27    27    28   ar
    28    28    29    1
    29    29    30    1
    30    30    31    1
    31    30    32    1
    32    30    33    1
    33    15    34   ar
    34    34    35   ar
    35    35    36   ar
    36    36    37    1
    37    37    38    1
    38    37    39    1
    39    37    40    1
    40    10     5   ar
    41    36    13   ar
    42    28    17   ar
    43    26    21    1
    44     1    41    1
    45     1    42    1
    46     4    43    1
    47     4    44    1
    48     6    45    1
    49     7    46    1
    50     8    47    1
    51     9    48    1
    52    11    49    1
    53    11    50    1
    54    12    51    1
    55    12    52    1
    56    16    53    1
    57    18    54    1
    58    19    55    1
    59    21    56    1
    60    22    57    1
    61    22    58    1
    62    23    59    1
    63    23    60    1
    64    24    61    1
    65    25    62    1
    66    25    63    1
    67    26    64    1
    68    26    65    1
    69    27    66    1
    70    35    67    1
