
     RDKit          3D

 67 70  0  0  0  0  0  0  0  0999 V2000
   -6.8495   -2.8076   -1.6162 N   0  0  0  0  0  0  0  0  0  0  0  0
   -6.7248   -1.4093   -1.4253 C   0  0  0  0  0  0  0  0  0  0  0  0
   -6.5393   -0.6659   -2.3988 O   0  0  0  0  0  0  0  0  0  0  0  0
   -6.8219   -0.8521   -0.0355 C   0  0  0  0  0  0  0  0  0  0  0  0
   -6.6887    0.6004   -0.1186 C   0  0  0  0  0  0  0  0  0  0  0  0
   -7.8604    1.3535   -0.0503 C   0  0  0  0  0  0  0  0  0  0  0  0
   -7.8082    2.7209   -0.1629 C   0  0  0  0  0  0  0  0  0  0  0  0
   -6.6142    3.3556   -0.3425 C   0  0  0  0  0  0  0  0  0  0  0  0
   -5.4634    2.6070   -0.4082 C   0  0  0  0  0  0  0  0  0  0  0  0
   -5.4803    1.2116   -0.2964 C   0  0  0  0  0  0  0  0  0  0  0  0
   -4.1986    0.5074   -0.3352 C   0  0  0  0  0  0  0  0  0  0  0  0
   -3.6516    0.1951    1.0292 C   0  0  0  0  0  0  0  0  0  0  0  0
   -2.3409   -0.4942    0.9657 C   0  0  0  0  0  0  0  0  0  0  0  0
   -1.2481    0.3172    0.9927 N   0  0  0  0  0  0  0  0  0  0  0  0
    0.0119   -0.2160    0.9024 C   0  0  0  0  0  0  0  0  0  0  0  0
    1.1038    0.6758    0.9213 N   0  0  0  0  0  0  0  0  0  0  0  0
    2.4607    0.3279    0.8859 C   0  0  0  0  0  0  0  0  0  0  0  0
    2.9373   -0.9619    0.9443 C   0  0  0  0  0  0  0  0  0  0  0  0
    4.3125   -1.2394    0.9323 C   0  0  0  0  0  0  0  0  0  0  0  0
    5.2428   -0.2146    0.8610 C   0  0  0  0  0  0  0  0  0  0  0  0
    6.6886   -0.4612    0.8620 C   0  0  0  0  0  0  0  0  0  0  0  0
    7.4622    0.7345    0.3912 C   0  0  0  0  0  0  0  0  0  0  0  0
    7.1569    0.9631   -1.0711 C   0  0  0  0  0  0  0  0  0  0  0  0
    7.8495   -0.1300   -1.7800 N   0  0  0  0  0  0  0  0  0  0  0  0
    7.1289   -1.3525   -1.4652 C   0  0  0  0  0  0  0  0  0  0  0  0
    7.0922   -1.6428   -0.0050 C   0  0  0  0  0  0  0  0  0  0  0  0
    4.7459    1.0590    0.8039 C   0  0  0  0  0  0  0  0  0  0  0  0
    3.4113    1.3524    0.8138 C   0  0  0  0  0  0  0  0  0  0  0  0
    2.9471    2.6611    0.7512 O   0  0  0  0  0  0  0  0  0  0  0  0
    2.7325    3.2130   -0.5346 C   0  0  0  0  0  0  0  0  0  0  0  0
    2.2617    4.5235   -0.4250 F   0  0  0  0  0  0  0  0  0  0  0  0
    1.9365    2.4375   -1.3462 F   0  0  0  0  0  0  0  0  0  0  0  0
    3.9747    3.2734   -1.1797 F   0  0  0  0  0  0  0  0  0  0  0  0
    0.1179   -1.5436    0.7890 N   0  0  0  0  0  0  0  0  0  0  0  0
   -0.9091   -2.3731    0.7587 C   0  0  0  0  0  0  0  0  0  0  0  0
   -2.2063   -1.8474    0.8502 C   0  0  0  0  0  0  0  0  0  0  0  0
   -3.3714   -2.7506    0.8457 C   0  0  0  0  0  0  0  0  0  0  0  0
   -4.1589   -2.5993    1.9788 F   0  0  0  0  0  0  0  0  0  0  0  0
   -2.8273   -4.0626    0.9948 F   0  0  0  0  0  0  0  0  0  0  0  0
   -4.0639   -2.8128   -0.3231 F   0  0  0  0  0  0  0  0  0  0  0  0
   -6.6609   -3.4320   -0.8046 H   0  0  0  0  0  0  0  0  0  0  0  0
   -7.1208   -3.2026   -2.5367 H   0  0  0  0  0  0  0  0  0  0  0  0
   -7.8411   -1.0929    0.3891 H   0  0  0  0  0  0  0  0  0  0  0  0
   -6.1194   -1.3669    0.6102 H   0  0  0  0  0  0  0  0  0  0  0  0
   -8.8083    0.8446    0.0919 H   0  0  0  0  0  0  0  0  0  0  0  0
   -8.7157    3.2998   -0.1102 H   0  0  0  0  0  0  0  0  0  0  0  0
   -6.5845    4.4428   -0.4318 H   0  0  0  0  0  0  0  0  0  0  0  0
   -4.5302    3.1408   -0.5513 H   0  0  0  0  0  0  0  0  0  0  0  0
   -3.4586    1.2058   -0.8658 H   0  0  0  0  0  0  0  0  0  0  0  0
   -4.2011   -0.3758   -0.9904 H   0  0  0  0  0  0  0  0  0  0  0  0
   -4.3281   -0.3485    1.6912 H   0  0  0  0  0  0  0  0  0  0  0  0
   -3.4951    1.1913    1.5543 H   0  0  0  0  0  0  0  0  0  0  0  0
    0.8565    1.7099    0.9763 H   0  0  0  0  0  0  0  0  0  0  0  0
    2.2443   -1.7979    1.0069 H   0  0  0  0  0  0  0  0  0  0  0  0
    4.6397   -2.2503    0.9792 H   0  0  0  0  0  0  0  0  0  0  0  0
    7.0229   -0.7548    1.8941 H   0  0  0  0  0  0  0  0  0  0  0  0
    8.5534    0.4531    0.4285 H   0  0  0  0  0  0  0  0  0  0  0  0
    7.3439    1.6388    1.0216 H   0  0  0  0  0  0  0  0  0  0  0  0
    6.0687    0.8239   -1.2245 H   0  0  0  0  0  0  0  0  0  0  0  0
    7.5049    1.9398   -1.4314 H   0  0  0  0  0  0  0  0  0  0  0  0
    8.7884   -0.1963   -1.3119 H   0  0  0  0  0  0  0  0  0  0  0  0
    6.1502   -1.3937   -1.9740 H   0  0  0  0  0  0  0  0  0  0  0  0
    7.7360   -2.1784   -1.9394 H   0  0  0  0  0  0  0  0  0  0  0  0
    6.4800   -2.5332    0.1615 H   0  0  0  0  0  0  0  0  0  0  0  0
    8.1273   -1.9280    0.3259 H   0  0  0  0  0  0  0  0  0  0  0  0
    5.4021    1.9486    0.7500 H   0  0  0  0  0  0  0  0  0  0  0  0
   -0.8029   -3.4407    0.6662 H   0  0  0  0  0  0  0  0  0  0  0  0
  1  2  1  0
  2  3  2  0
  2  4  1  0
  4  5  1  0
  5  6  2  0
  6  7  1  0
  7  8  2  0
  8  9  1  0
  9 10  2  0
 10 11  1  0
 11 12  1  0
 12 13  1  0
 13 14  2  0
 14 15  1  0
 15 16  1  0
 16 17  1  0
 17 18  2  0
 18 19  1  0
 19 20  2  0
 20 21  1  0
 21 22  1  0
 22 23  1  0
 23 24  1  0
 24 25  1  0
 25 26  1  0
 20 27  1  0
 27 28  2  0
 28 29  1  0
 29 30  1  0
 30 31  1  0
 30 32  1  0
 30 33  1  0
 15 34  2  0
 34 35  1  0
 35 36  2  0
 36 37  1  0
 37 38  1  0
 37 39  1  0
 37 40  1  0
 10  5  1  0
 36 13  1  0
 28 17  1  0
 26 21  1  0
  1 41  1  0
  1 42  1  0
  4 43  1  0
  4 44  1  0
  6 45  1  0
  7 46  1  0
  8 47  1  0
  9 48  1  0
 11 49  1  0
 11 50  1  0
 12 51  1  0
 12 52  1  0
 16 53  1  0
 18 54  1  0
 19 55  1  0
 21 56  1  0
 22 57  1  0
 22 58  1  0
 23 59  1  0
 23 60  1  0
 24 61  1  0
 25 62  1  0
 25 63  1  0
 26 64  1  0
 26 65  1  0
 27 66  1  0
 35 67  1  0
M  END
$$$$
