@<TRIPOS>MOLECULE
*****
 66 70 0 0 0
SMALL
GASTEIGER

@<TRIPOS>ATOM
      1 C           9.2380    0.5761    0.3495 C.3     1  UNL1       -0.0128
      2 N           8.0495    0.2777   -0.3808 N.3     1  UNL1       -0.3053
      3 C           7.0580   -0.4734    0.2980 C.3     1  UNL1       -0.0007
      4 C           6.2562    0.4312    1.2113 C.3     1  UNL1       -0.0290
      5 C           5.5772    1.5386    0.4190 C.3     1  UNL1        0.0381
      6 C           4.8686    2.4040    1.3943 C.2     1  UNL1        0.2188
      7 O           4.8976    2.2075    2.6369 O.2     1  UNL1       -0.2753
      8 N           4.1239    3.5033    0.8948 N.am    1  UNL1       -0.2988
      9 C           3.8598    4.0569   -0.4139 C.3     1  UNL1        0.0298
     10 C           2.6180    4.6733    0.1492 C.3     1  UNL1        0.0524
     11 C           1.5012    3.7068    0.0699 C.1     1  UNL1       -0.0905
     12 C           0.5963    2.9052    0.0048 C.1     1  UNL1       -0.0658
     13 C          -0.4925    1.9567   -0.0951 C.ar    1  UNL1        0.0285
     14 C          -1.0631    1.4789    1.0967 C.ar    1  UNL1       -0.0454
     15 C          -2.1157    0.6065    1.0522 C.ar    1  UNL1       -0.0462
     16 C          -2.6514    0.1675   -0.1455 C.ar    1  UNL1        0.0646
     17 C          -3.7039   -0.7004   -0.1932 C.ar    1  UNL1        0.2001
     18 O          -4.2159   -1.1290    0.8635 O.2     1  UNL1       -0.2864
     19 C          -4.2475   -1.1431   -1.4218 C.ar    1  UNL1        0.0643
     20 C          -5.3478   -2.0647   -1.3717 C.ar    1  UNL1       -0.0112
     21 C          -5.2042   -3.1623   -0.5241 C.ar    1  UNL1       -0.0520
     22 C          -6.1993   -4.0797   -0.3499 C.ar    1  UNL1       -0.0388
     23 C          -7.4121   -4.0002   -0.9871 C.ar    1  UNL1        0.0477
     24 N          -8.4777   -4.9234   -0.8120 N.pl3   1  UNL1       -0.2209
     25 S          -8.9289   -5.4641    0.7642 S.O2    1  UNL1        0.0403
     26 C          -9.4542   -4.0426    1.7200 C.3     1  UNL1        0.0736
     27 O         -10.0372   -6.4759    0.6969 O.2     1  UNL1       -0.1555
     28 O          -7.7129   -6.0212    1.4389 O.2     1  UNL1       -0.1555
     29 C          -7.5512   -2.8857   -1.8481 C.ar    1  UNL1       -0.0388
     30 C          -6.5480   -1.9622   -2.0226 C.ar    1  UNL1       -0.0520
     31 C          -3.6387   -0.6364   -2.5343 C.ar    1  UNL1        0.1038
     32 O          -2.6220    0.2019   -2.4648 O.2     1  UNL1       -0.4621
     33 C          -2.0990    0.6288   -1.3283 C.ar    1  UNL1        0.1396
     34 C          -1.0367    1.5077   -1.2744 C.ar    1  UNL1       -0.0032
     35 C           3.2905    4.5470    1.4783 C.3     1  UNL1        0.0298
     36 C           6.6798    2.3305   -0.2704 C.3     1  UNL1       -0.0290
     37 C           7.4745    1.3561   -1.1139 C.3     1  UNL1       -0.0007
     38 H           9.6400   -0.3938    0.7337 H       1  UNL1        0.0391
     39 H           9.1292    1.2633    1.1840 H       1  UNL1        0.0391
     40 H          10.0442    0.9592   -0.3369 H       1  UNL1        0.0391
     41 H           6.3690   -0.9097   -0.4563 H       1  UNL1        0.0427
     42 H           7.5386   -1.2388    0.9213 H       1  UNL1        0.0427
     43 H           5.4799   -0.1048    1.7814 H       1  UNL1        0.0285
     44 H           6.9494    0.9142    1.9245 H       1  UNL1        0.0285
     45 H           4.8859    1.1434   -0.3313 H       1  UNL1        0.0395
     46 H           4.5740    4.8380   -0.7366 H       1  UNL1        0.0477
     47 H           3.6157    3.2929   -1.2050 H       1  UNL1        0.0477
     48 H           2.3688    5.6761   -0.2120 H       1  UNL1        0.0464
     49 H          -0.6497    1.8184    2.0393 H       1  UNL1        0.0630
     50 H          -2.5917    0.2063    1.9578 H       1  UNL1        0.0626
     51 H          -4.2709   -3.2856    0.0076 H       1  UNL1        0.0624
     52 H          -6.0449   -4.9397    0.3269 H       1  UNL1        0.0637
     53 H          -9.0012   -5.2857   -1.6353 H       1  UNL1        0.1733
     54 H          -9.8935   -4.3841    2.6875 H       1  UNL1        0.0482
     55 H         -10.1378   -3.4614    1.0910 H       1  UNL1        0.0482
     56 H          -8.5533   -3.4038    1.9314 H       1  UNL1        0.0482
     57 H          -8.5084   -2.8232   -2.3514 H       1  UNL1        0.0637
     58 H          -6.6987   -1.1064   -2.7043 H       1  UNL1        0.0624
     59 H          -4.0199   -0.9467   -3.5167 H       1  UNL1        0.1037
     60 H          -0.6152    1.8567   -2.1878 H       1  UNL1        0.0667
     61 H           2.6216    4.2025    2.2976 H       1  UNL1        0.0477
     62 H           3.9197    5.4151    1.7419 H       1  UNL1        0.0477
     63 H           7.2817    2.8567    0.4677 H       1  UNL1        0.0285
     64 H           6.2324    3.0700   -0.9538 H       1  UNL1        0.0285
     65 H           6.7713    0.9370   -1.8554 H       1  UNL1        0.0427
     66 H           8.2347    1.9362   -1.6795 H       1  UNL1        0.0427
@<TRIPOS>BOND
     1     1     2    1
     2     2     3    1
     3     3     4    1
     4     4     5    1
     5     5     6    1
     6     6     7    2
     7     6     8   am
     8     8     9    1
     9     9    10    1
    10    10    11    1
    11    11    12    3
    12    12    13    1
    13    13    14   ar
    14    14    15   ar
    15    15    16   ar
    16    16    17   ar
    17    17    18    2
    18    17    19   ar
    19    19    20    1
    20    20    21   ar
    21    21    22   ar
    22    22    23   ar
    23    23    24    1
    24    24    25    1
    25    25    26    1
    26    25    27    2
    27    25    28    2
    28    23    29   ar
    29    29    30   ar
    30    19    31   ar
    31    31    32   ar
    32    32    33   ar
    33    33    34   ar
    34    10    35    1
    35     5    36    1
    36    36    37    1
    37    37     2    1
    38    35     8    1
    39    34    13   ar
    40    33    16   ar
    41    30    20   ar
    42     1    38    1
    43     1    39    1
    44     1    40    1
    45     3    41    1
    46     3    42    1
    47     4    43    1
    48     4    44    1
    49     5    45    1
    50     9    46    1
    51     9    47    1
    52    10    48    1
    53    14    49    1
    54    15    50    1
    55    21    51    1
    56    22    52    1
    57    24    53    1
    58    26    54    1
    59    26    55    1
    60    26    56    1
    61    29    57    1
    62    30    58    1
    63    31    59    1
    64    34    60    1
    65    35    61    1
    66    35    62    1
    67    36    63    1
    68    36    64    1
    69    37    65    1
    70    37    66    1
