
     RDKit          3D

 66 70  0  0  0  0  0  0  0  0999 V2000
    9.2380    0.5761    0.3495 C   0  0  0  0  0  0  0  0  0  0  0  0
    8.0495    0.2777   -0.3808 N   0  0  0  0  0  0  0  0  0  0  0  0
    7.0580   -0.4734    0.2980 C   0  0  0  0  0  0  0  0  0  0  0  0
    6.2562    0.4312    1.2113 C   0  0  0  0  0  0  0  0  0  0  0  0
    5.5772    1.5386    0.4190 C   0  0  0  0  0  0  0  0  0  0  0  0
    4.8686    2.4040    1.3943 C   0  0  0  0  0  0  0  0  0  0  0  0
    4.8976    2.2075    2.6369 O   0  0  0  0  0  0  0  0  0  0  0  0
    4.1239    3.5033    0.8948 N   0  0  0  0  0  0  0  0  0  0  0  0
    3.8598    4.0569   -0.4139 C   0  0  0  0  0  0  0  0  0  0  0  0
    2.6180    4.6733    0.1492 C   0  0  0  0  0  0  0  0  0  0  0  0
    1.5012    3.7068    0.0699 C   0  0  0  0  0  0  0  0  0  0  0  0
    0.5963    2.9052    0.0048 C   0  0  0  0  0  0  0  0  0  0  0  0
   -0.4925    1.9567   -0.0951 C   0  0  0  0  0  0  0  0  0  0  0  0
   -1.0631    1.4789    1.0967 C   0  0  0  0  0  0  0  0  0  0  0  0
   -2.1157    0.6065    1.0522 C   0  0  0  0  0  0  0  0  0  0  0  0
   -2.6514    0.1675   -0.1455 C   0  0  0  0  0  0  0  0  0  0  0  0
   -3.7039   -0.7004   -0.1932 C   0  0  0  0  0  0  0  0  0  0  0  0
   -4.2159   -1.1290    0.8635 O   0  0  0  0  0  0  0  0  0  0  0  0
   -4.2475   -1.1431   -1.4218 C   0  0  0  0  0  0  0  0  0  0  0  0
   -5.3478   -2.0647   -1.3717 C   0  0  0  0  0  0  0  0  0  0  0  0
   -5.2042   -3.1623   -0.5241 C   0  0  0  0  0  0  0  0  0  0  0  0
   -6.1993   -4.0797   -0.3499 C   0  0  0  0  0  0  0  0  0  0  0  0
   -7.4121   -4.0002   -0.9871 C   0  0  0  0  0  0  0  0  0  0  0  0
   -8.4777   -4.9234   -0.8120 N   0  0  0  0  0  0  0  0  0  0  0  0
   -8.9289   -5.4641    0.7642 S   0  0  0  0  0  6  0  0  0  0  0  0
   -9.4542   -4.0426    1.7200 C   0  0  0  0  0  0  0  0  0  0  0  0
  -10.0372   -6.4759    0.6969 O   0  0  0  0  0  0  0  0  0  0  0  0
   -7.7129   -6.0212    1.4389 O   0  0  0  0  0  0  0  0  0  0  0  0
   -7.5512   -2.8857   -1.8481 C   0  0  0  0  0  0  0  0  0  0  0  0
   -6.5480   -1.9622   -2.0226 C   0  0  0  0  0  0  0  0  0  0  0  0
   -3.6387   -0.6364   -2.5343 C   0  0  0  0  0  0  0  0  0  0  0  0
   -2.6220    0.2019   -2.4648 O   0  0  0  0  0  0  0  0  0  0  0  0
   -2.0990    0.6288   -1.3283 C   0  0  0  0  0  0  0  0  0  0  0  0
   -1.0367    1.5077   -1.2744 C   0  0  0  0  0  0  0  0  0  0  0  0
    3.2905    4.5470    1.4783 C   0  0  0  0  0  0  0  0  0  0  0  0
    6.6798    2.3305   -0.2704 C   0  0  0  0  0  0  0  0  0  0  0  0
    7.4745    1.3561   -1.1139 C   0  0  0  0  0  0  0  0  0  0  0  0
    9.6400   -0.3938    0.7337 H   0  0  0  0  0  0  0  0  0  0  0  0
    9.1292    1.2633    1.1840 H   0  0  0  0  0  0  0  0  0  0  0  0
   10.0442    0.9592   -0.3369 H   0  0  0  0  0  0  0  0  0  0  0  0
    6.3690   -0.9097   -0.4563 H   0  0  0  0  0  0  0  0  0  0  0  0
    7.5386   -1.2388    0.9213 H   0  0  0  0  0  0  0  0  0  0  0  0
    5.4799   -0.1048    1.7814 H   0  0  0  0  0  0  0  0  0  0  0  0
    6.9494    0.9142    1.9245 H   0  0  0  0  0  0  0  0  0  0  0  0
    4.8859    1.1434   -0.3313 H   0  0  0  0  0  0  0  0  0  0  0  0
    4.5740    4.8380   -0.7366 H   0  0  0  0  0  0  0  0  0  0  0  0
    3.6157    3.2929   -1.2050 H   0  0  0  0  0  0  0  0  0  0  0  0
    2.3688    5.6761   -0.2120 H   0  0  0  0  0  0  0  0  0  0  0  0
   -0.6497    1.8184    2.0393 H   0  0  0  0  0  0  0  0  0  0  0  0
   -2.5917    0.2063    1.9578 H   0  0  0  0  0  0  0  0  0  0  0  0
   -4.2709   -3.2856    0.0076 H   0  0  0  0  0  0  0  0  0  0  0  0
   -6.0449   -4.9397    0.3269 H   0  0  0  0  0  0  0  0  0  0  0  0
   -9.0012   -5.2857   -1.6353 H   0  0  0  0  0  0  0  0  0  0  0  0
   -9.8935   -4.3841    2.6875 H   0  0  0  0  0  0  0  0  0  0  0  0
  -10.1378   -3.4614    1.0910 H   0  0  0  0  0  0  0  0  0  0  0  0
   -8.5533   -3.4038    1.9314 H   0  0  0  0  0  0  0  0  0  0  0  0
   -8.5084   -2.8232   -2.3514 H   0  0  0  0  0  0  0  0  0  0  0  0
   -6.6987   -1.1064   -2.7043 H   0  0  0  0  0  0  0  0  0  0  0  0
   -4.0199   -0.9467   -3.5167 H   0  0  0  0  0  0  0  0  0  0  0  0
   -0.6152    1.8567   -2.1878 H   0  0  0  0  0  0  0  0  0  0  0  0
    2.6216    4.2025    2.2976 H   0  0  0  0  0  0  0  0  0  0  0  0
    3.9197    5.4151    1.7419 H   0  0  0  0  0  0  0  0  0  0  0  0
    7.2817    2.8567    0.4677 H   0  0  0  0  0  0  0  0  0  0  0  0
    6.2324    3.0700   -0.9538 H   0  0  0  0  0  0  0  0  0  0  0  0
    6.7713    0.9370   -1.8554 H   0  0  0  0  0  0  0  0  0  0  0  0
    8.2347    1.9362   -1.6795 H   0  0  0  0  0  0  0  0  0  0  0  0
  1  2  1  0
  2  3  1  0
  3  4  1  0
  4  5  1  0
  5  6  1  0
  6  7  2  0
  6  8  1  0
  8  9  1  0
  9 10  1  0
 10 11  1  0
 11 12  3  0
 12 13  1  0
 13 14  2  0
 14 15  1  0
 15 16  2  0
 16 17  1  0
 17 18  2  0
 17 19  1  0
 19 20  1  0
 20 21  2  0
 21 22  1  0
 22 23  2  0
 23 24  1  0
 24 25  1  0
 25 26  1  0
 25 27  2  0
 25 28  2  0
 23 29  1  0
 29 30  2  0
 19 31  2  0
 31 32  1  0
 32 33  1  0
 33 34  2  0
 10 35  1  0
  5 36  1  0
 36 37  1  0
 37  2  1  0
 35  8  1  0
 34 13  1  0
 33 16  1  0
 30 20  1  0
  1 38  1  0
  1 39  1  0
  1 40  1  0
  3 41  1  0
  3 42  1  0
  4 43  1  0
  4 44  1  0
  5 45  1  0
  9 46  1  0
  9 47  1  0
 10 48  1  0
 14 49  1  0
 15 50  1  0
 21 51  1  0
 22 52  1  0
 24 53  1  0
 26 54  1  0
 26 55  1  0
 26 56  1  0
 29 57  1  0
 30 58  1  0
 31 59  1  0
 34 60  1  0
 35 61  1  0
 35 62  1  0
 36 63  1  0
 36 64  1  0
 37 65  1  0
 37 66  1  0
M  END
$$$$
