@<TRIPOS>MOLECULE
*****
 49 52 0 0 0
SMALL
GASTEIGER

@<TRIPOS>ATOM
      1 N          -2.4361    1.1370    2.9756 N.3     1  UNL1       -0.3265
      2 C          -2.8412    0.9726    1.5914 C.3     1  UNL1        0.0172
      3 C          -1.5872    0.5517    0.8317 C.3     1  UNL1        0.0396
      4 C          -0.5307    1.6084    0.9581 C.2     1  UNL1        0.2176
      5 O          -0.8024    2.6466    1.6322 O.2     1  UNL1       -0.2755
      6 N           0.7303    1.4799    0.3594 N.am    1  UNL1       -0.2912
      7 C           1.8087    2.4242    0.4169 C.3     1  UNL1        0.0155
      8 C           2.2999    2.4148   -1.0295 C.3     1  UNL1       -0.0350
      9 C           1.9076    1.0568   -1.5721 C.3     1  UNL1       -0.0256
     10 C           1.1893    0.3722   -0.4307 C.3     1  UNL1        0.0890
     11 C           2.1822   -0.4060    0.3771 C.ar    1  UNL1        0.1920
     12 N           2.1186   -0.7970    1.6558 N.ar    1  UNL1       -0.0594
     13 O           3.2085   -1.4563    1.9556 O.2     1  UNL1       -0.3377
     14 C           4.0031   -1.5236    0.9265 C.ar    1  UNL1        0.2305
     15 C           5.3460   -2.1826    0.8324 C.3     1  UNL1        0.0382
     16 C           6.3951   -1.3212    0.1614 C.3     1  UNL1       -0.0410
     17 C           5.8406   -2.5468   -0.5588 C.3     1  UNL1       -0.0410
     18 N           3.3814   -0.8729   -0.0731 N.ar    1  UNL1       -0.1939
     19 C          -3.7958   -0.2049    1.5552 C.3     1  UNL1       -0.0092
     20 C          -4.2914   -0.4844    0.1898 C.ar    1  UNL1       -0.0078
     21 C          -3.8256   -1.5348   -0.5733 C.ar    1  UNL1       -0.0176
     22 C          -4.3017   -1.7867   -1.8594 C.ar    1  UNL1        0.1588
     23 F          -3.8121   -2.8278   -2.5628 F       1  UNL1       -0.2025
     24 C          -5.2718   -0.9664   -2.4012 C.ar    1  UNL1        0.1611
     25 F          -5.7454   -1.2081   -3.6674 F       1  UNL1       -0.2024
     26 C          -5.7447    0.0778   -1.6613 C.ar    1  UNL1        0.0119
     27 C          -5.2668    0.3298   -0.3715 C.ar    1  UNL1        0.1295
     28 F          -5.7260    1.3575    0.3689 F       1  UNL1       -0.2051
     29 H          -2.3504    0.2365    3.4654 H       1  UNL1        0.1185
     30 H          -2.9718    1.8645    3.4741 H       1  UNL1        0.1185
     31 H          -3.3097    1.8727    1.1818 H       1  UNL1        0.0466
     32 H          -1.1875   -0.3441    1.3428 H       1  UNL1        0.0374
     33 H          -1.8195    0.3800   -0.2386 H       1  UNL1        0.0374
     34 H           2.6672    2.0464    1.0267 H       1  UNL1        0.0465
     35 H           1.4860    3.4395    0.7225 H       1  UNL1        0.0465
     36 H           1.7771    3.2079   -1.5946 H       1  UNL1        0.0281
     37 H           3.4021    2.5158   -1.0547 H       1  UNL1        0.0281
     38 H           1.1631    1.1374   -2.4055 H       1  UNL1        0.0288
     39 H           2.8027    0.4781   -1.8846 H       1  UNL1        0.0288
     40 H           0.3661   -0.2780   -0.7881 H       1  UNL1        0.0583
     41 H           5.7231   -2.7039    1.7170 H       1  UNL1        0.0396
     42 H           6.1012   -0.3410   -0.2275 H       1  UNL1        0.0273
     43 H           7.4511   -1.3912    0.5073 H       1  UNL1        0.0273
     44 H           5.1115   -2.3289   -1.3893 H       1  UNL1        0.0273
     45 H           6.5089   -3.4092   -0.6958 H       1  UNL1        0.0273
     46 H          -3.1821   -1.0972    1.8637 H       1  UNL1        0.0329
     47 H          -4.6020   -0.1268    2.2888 H       1  UNL1        0.0329
     48 H          -3.0680   -2.1999   -0.1872 H       1  UNL1        0.0651
     49 H          -6.5021    0.7316   -2.0637 H       1  UNL1        0.0676
@<TRIPOS>BOND
     1     1     2    1
     2     2     3    1
     3     3     4    1
     4     4     5    2
     5     4     6   am
     6     6     7    1
     7     7     8    1
     8     8     9    1
     9     9    10    1
    10    10    11    1
    11    11    12   ar
    12    12    13   ar
    13    13    14   ar
    14    14    15    1
    15    15    16    1
    16    16    17    1
    17    14    18   ar
    18     2    19    1
    19    19    20    1
    20    20    21   ar
    21    21    22   ar
    22    22    23    1
    23    22    24   ar
    24    24    25    1
    25    24    26   ar
    26    26    27   ar
    27    27    28    1
    28    10     6    1
    29    18    11   ar
    30    27    20   ar
    31    17    15    1
    32     1    29    1
    33     1    30    1
    34     2    31    1
    35     3    32    1
    36     3    33    1
    37     7    34    1
    38     7    35    1
    39     8    36    1
    40     8    37    1
    41     9    38    1
    42     9    39    1
    43    10    40    1
    44    15    41    1
    45    16    42    1
    46    16    43    1
    47    17    44    1
    48    17    45    1
    49    19    46    1
    50    19    47    1
    51    21    48    1
    52    26    49    1
