
     RDKit          3D

 49 52  0  0  0  0  0  0  0  0999 V2000
   -2.4361    1.1370    2.9756 N   0  0  0  0  0  0  0  0  0  0  0  0
   -2.8412    0.9726    1.5914 C   0  0  1  0  0  0  0  0  0  0  0  0
   -1.5872    0.5517    0.8317 C   0  0  0  0  0  0  0  0  0  0  0  0
   -0.5307    1.6084    0.9581 C   0  0  0  0  0  0  0  0  0  0  0  0
   -0.8024    2.6466    1.6322 O   0  0  0  0  0  0  0  0  0  0  0  0
    0.7303    1.4799    0.3594 N   0  0  0  0  0  0  0  0  0  0  0  0
    1.8087    2.4242    0.4169 C   0  0  0  0  0  0  0  0  0  0  0  0
    2.2999    2.4148   -1.0295 C   0  0  0  0  0  0  0  0  0  0  0  0
    1.9076    1.0568   -1.5721 C   0  0  0  0  0  0  0  0  0  0  0  0
    1.1893    0.3722   -0.4307 C   0  0  1  0  0  0  0  0  0  0  0  0
    2.1822   -0.4060    0.3771 C   0  0  0  0  0  0  0  0  0  0  0  0
    2.1186   -0.7970    1.6558 N   0  0  0  0  0  0  0  0  0  0  0  0
    3.2085   -1.4563    1.9556 O   0  0  0  0  0  0  0  0  0  0  0  0
    4.0031   -1.5236    0.9265 C   0  0  0  0  0  0  0  0  0  0  0  0
    5.3460   -2.1826    0.8324 C   0  0  0  0  0  0  0  0  0  0  0  0
    6.3951   -1.3212    0.1614 C   0  0  0  0  0  0  0  0  0  0  0  0
    5.8406   -2.5468   -0.5588 C   0  0  0  0  0  0  0  0  0  0  0  0
    3.3814   -0.8729   -0.0731 N   0  0  0  0  0  0  0  0  0  0  0  0
   -3.7958   -0.2049    1.5552 C   0  0  0  0  0  0  0  0  0  0  0  0
   -4.2914   -0.4844    0.1898 C   0  0  0  0  0  0  0  0  0  0  0  0
   -3.8256   -1.5348   -0.5733 C   0  0  0  0  0  0  0  0  0  0  0  0
   -4.3017   -1.7867   -1.8594 C   0  0  0  0  0  0  0  0  0  0  0  0
   -3.8121   -2.8278   -2.5628 F   0  0  0  0  0  0  0  0  0  0  0  0
   -5.2718   -0.9664   -2.4012 C   0  0  0  0  0  0  0  0  0  0  0  0
   -5.7454   -1.2081   -3.6674 F   0  0  0  0  0  0  0  0  0  0  0  0
   -5.7447    0.0778   -1.6613 C   0  0  0  0  0  0  0  0  0  0  0  0
   -5.2668    0.3298   -0.3715 C   0  0  0  0  0  0  0  0  0  0  0  0
   -5.7260    1.3575    0.3689 F   0  0  0  0  0  0  0  0  0  0  0  0
   -2.3504    0.2365    3.4654 H   0  0  0  0  0  0  0  0  0  0  0  0
   -2.9718    1.8645    3.4741 H   0  0  0  0  0  0  0  0  0  0  0  0
   -3.3097    1.8727    1.1818 H   0  0  0  0  0  0  0  0  0  0  0  0
   -1.1875   -0.3441    1.3428 H   0  0  0  0  0  0  0  0  0  0  0  0
   -1.8195    0.3800   -0.2386 H   0  0  0  0  0  0  0  0  0  0  0  0
    2.6672    2.0464    1.0267 H   0  0  0  0  0  0  0  0  0  0  0  0
    1.4860    3.4395    0.7225 H   0  0  0  0  0  0  0  0  0  0  0  0
    1.7771    3.2079   -1.5946 H   0  0  0  0  0  0  0  0  0  0  0  0
    3.4021    2.5158   -1.0547 H   0  0  0  0  0  0  0  0  0  0  0  0
    1.1631    1.1374   -2.4055 H   0  0  0  0  0  0  0  0  0  0  0  0
    2.8027    0.4781   -1.8846 H   0  0  0  0  0  0  0  0  0  0  0  0
    0.3661   -0.2780   -0.7881 H   0  0  0  0  0  0  0  0  0  0  0  0
    5.7231   -2.7039    1.7170 H   0  0  0  0  0  0  0  0  0  0  0  0
    6.1012   -0.3410   -0.2275 H   0  0  0  0  0  0  0  0  0  0  0  0
    7.4511   -1.3912    0.5073 H   0  0  0  0  0  0  0  0  0  0  0  0
    5.1115   -2.3289   -1.3893 H   0  0  0  0  0  0  0  0  0  0  0  0
    6.5089   -3.4092   -0.6958 H   0  0  0  0  0  0  0  0  0  0  0  0
   -3.1821   -1.0972    1.8637 H   0  0  0  0  0  0  0  0  0  0  0  0
   -4.6020   -0.1268    2.2888 H   0  0  0  0  0  0  0  0  0  0  0  0
   -3.0680   -2.1999   -0.1872 H   0  0  0  0  0  0  0  0  0  0  0  0
   -6.5021    0.7316   -2.0637 H   0  0  0  0  0  0  0  0  0  0  0  0
  1  2  1  0
  2  3  1  0
  3  4  1  0
  4  5  2  0
  4  6  1  0
  6  7  1  0
  7  8  1  0
  8  9  1  0
  9 10  1  0
 10 11  1  0
 11 12  2  0
 12 13  1  0
 13 14  1  0
 14 15  1  0
 15 16  1  0
 16 17  1  0
 14 18  2  0
  2 19  1  0
 19 20  1  0
 20 21  2  0
 21 22  1  0
 22 23  1  0
 22 24  2  0
 24 25  1  0
 24 26  1  0
 26 27  2  0
 27 28  1  0
 10  6  1  0
 18 11  1  0
 27 20  1  0
 17 15  1  0
  1 29  1  0
  1 30  1  0
  2 31  1  6
  3 32  1  0
  3 33  1  0
  7 34  1  0
  7 35  1  0
  8 36  1  0
  8 37  1  0
  9 38  1  0
  9 39  1  0
 10 40  1  6
 15 41  1  0
 16 42  1  0
 16 43  1  0
 17 44  1  0
 17 45  1  0
 19 46  1  0
 19 47  1  0
 21 48  1  0
 26 49  1  0
M  END
$$$$
