@<TRIPOS>MOLECULE
*****
 53 55 0 0 0
SMALL
GASTEIGER

@<TRIPOS>ATOM
      1 C          -9.3434    1.8916   -0.1681 C.3     1  UNL1       -0.0306
      2 C          -8.3613    2.7550    0.5517 C.3     1  UNL1        0.0900
      3 O          -7.0118    2.4357    0.2843 O.3     1  UNL1       -0.4614
      4 C          -6.4910    1.2046    0.5644 C.2     1  UNL1        0.3410
      5 O          -7.2271    0.3237    1.0753 O.2     1  UNL1       -0.2449
      6 C          -5.0919    0.8367    0.2997 C.ar    1  UNL1        0.0813
      7 C          -4.6473   -0.4186    0.6090 C.ar    1  UNL1       -0.0253
      8 C          -3.3386   -0.7816    0.3670 C.ar    1  UNL1        0.0924
      9 C          -2.8834   -2.1076    0.7038 C.1     1  UNL1        0.1026
     10 N          -2.5248   -3.1888    0.9609 N.1     1  UNL1       -0.1908
     11 C          -2.4240    0.0907   -0.1920 C.ar    1  UNL1        0.1391
     12 N          -1.0857   -0.2612   -0.4527 N.pl3   1  UNL1       -0.3126
     13 C           0.0422    0.4726   -0.9898 C.3     1  UNL1        0.0262
     14 C           0.8758   -0.7600   -1.0845 C.3     1  UNL1        0.0683
     15 C           2.1551   -0.6455   -0.3995 C.2     1  UNL1        0.2378
     16 O           2.4573    0.4236    0.1847 O.2     1  UNL1       -0.2738
     17 N           3.0829   -1.7113   -0.3686 N.am    1  UNL1       -0.1893
     18 S           4.6008   -1.6749    0.4030 S.O2    1  UNL1        0.0493
     19 O           4.9731   -3.0977    0.7955 O.2     1  UNL1       -0.1548
     20 O           4.6052   -0.8828    1.6797 O.2     1  UNL1       -0.1548
     21 C           5.8928   -1.1068   -0.6833 C.3     1  UNL1        0.1098
     22 C           7.1707   -1.1103    0.0699 C.ar    1  UNL1       -0.0246
     23 C           7.5265    0.0304    0.7514 C.ar    1  UNL1       -0.0543
     24 C           8.7224    0.0642    1.4714 C.ar    1  UNL1       -0.0261
     25 C           9.5383   -1.0421    1.4958 C.ar    1  UNL1        0.1234
     26 F          10.6837   -0.9832    2.1963 F       1  UNL1       -0.2055
     27 C           9.1961   -2.1947    0.8175 C.ar    1  UNL1       -0.0261
     28 C           8.0134   -2.1914    0.1206 C.ar    1  UNL1       -0.0543
     29 C          -0.2536   -1.4097   -0.3337 C.3     1  UNL1        0.0262
     30 N          -2.9160    1.3294   -0.4820 N.ar    1  UNL1       -0.2351
     31 C          -4.1827    1.6988   -0.2538 C.ar    1  UNL1        0.0544
     32 C          -4.6201    3.0701   -0.6041 C.3     1  UNL1       -0.0215
     33 H          -8.8725    1.3190   -1.0000 H       1  UNL1        0.0262
     34 H         -10.1193    2.5377   -0.6732 H       1  UNL1        0.0262
     35 H          -9.9373    1.2303    0.5068 H       1  UNL1        0.0262
     36 H          -8.5298    3.8173    0.2805 H       1  UNL1        0.0695
     37 H          -8.5482    2.6220    1.6561 H       1  UNL1        0.0695
     38 H          -5.3411   -1.1336    1.0514 H       1  UNL1        0.0640
     39 H           0.4530    1.2350   -0.2902 H       1  UNL1        0.0472
     40 H          -0.2048    0.9618   -1.9762 H       1  UNL1        0.0472
     41 H           0.9507   -1.1561   -2.1348 H       1  UNL1        0.0426
     42 H           2.7896   -2.5893   -0.8705 H       1  UNL1        0.1761
     43 H           5.9682   -1.7269   -1.5835 H       1  UNL1        0.0568
     44 H           5.6962   -0.0614   -1.0231 H       1  UNL1        0.0568
     45 H           6.8765    0.8894    0.7226 H       1  UNL1        0.0622
     46 H           8.9973    0.9624    2.0049 H       1  UNL1        0.0646
     47 H           9.8691   -3.0316    0.8691 H       1  UNL1        0.0646
     48 H           7.7075   -3.0821   -0.4285 H       1  UNL1        0.0622
     49 H          -0.6811   -2.2809   -0.9121 H       1  UNL1        0.0472
     50 H           0.0092   -1.7593    0.6729 H       1  UNL1        0.0472
     51 H          -3.7780    3.6283   -1.0703 H       1  UNL1        0.0293
     52 H          -5.4433    2.9740   -1.3456 H       1  UNL1        0.0293
     53 H          -4.9955    3.5848    0.3093 H       1  UNL1        0.0293
@<TRIPOS>BOND
     1     1     2    1
     2     2     3    1
     3     3     4    1
     4     4     5    2
     5     4     6    1
     6     6     7   ar
     7     7     8   ar
     8     8     9    1
     9     9    10    3
    10     8    11   ar
    11    11    12    1
    12    12    13    1
    13    13    14    1
    14    14    15    1
    15    15    16    2
    16    15    17   am
    17    17    18    1
    18    18    19    2
    19    18    20    2
    20    18    21    1
    21    21    22    1
    22    22    23   ar
    23    23    24   ar
    24    24    25   ar
    25    25    26    1
    26    25    27   ar
    27    27    28   ar
    28    14    29    1
    29    11    30   ar
    30    30    31   ar
    31    31    32    1
    32    31     6   ar
    33    29    12    1
    34    28    22   ar
    35     1    33    1
    36     1    34    1
    37     1    35    1
    38     2    36    1
    39     2    37    1
    40     7    38    1
    41    13    39    1
    42    13    40    1
    43    14    41    1
    44    17    42    1
    45    21    43    1
    46    21    44    1
    47    23    45    1
    48    24    46    1
    49    27    47    1
    50    28    48    1
    51    29    49    1
    52    29    50    1
    53    32    51    1
    54    32    52    1
    55    32    53    1
