
     RDKit          3D

 53 55  0  0  0  0  0  0  0  0999 V2000
   -9.3434    1.8916   -0.1681 C   0  0  0  0  0  0  0  0  0  0  0  0
   -8.3613    2.7550    0.5517 C   0  0  0  0  0  0  0  0  0  0  0  0
   -7.0118    2.4357    0.2843 O   0  0  0  0  0  0  0  0  0  0  0  0
   -6.4910    1.2046    0.5644 C   0  0  0  0  0  0  0  0  0  0  0  0
   -7.2271    0.3237    1.0753 O   0  0  0  0  0  0  0  0  0  0  0  0
   -5.0919    0.8367    0.2997 C   0  0  0  0  0  0  0  0  0  0  0  0
   -4.6473   -0.4186    0.6090 C   0  0  0  0  0  0  0  0  0  0  0  0
   -3.3386   -0.7816    0.3670 C   0  0  0  0  0  0  0  0  0  0  0  0
   -2.8834   -2.1076    0.7038 C   0  0  0  0  0  0  0  0  0  0  0  0
   -2.5248   -3.1888    0.9609 N   0  0  0  0  0  0  0  0  0  0  0  0
   -2.4240    0.0907   -0.1920 C   0  0  0  0  0  0  0  0  0  0  0  0
   -1.0857   -0.2612   -0.4527 N   0  0  0  0  0  0  0  0  0  0  0  0
    0.0422    0.4726   -0.9898 C   0  0  0  0  0  0  0  0  0  0  0  0
    0.8758   -0.7600   -1.0845 C   0  0  0  0  0  0  0  0  0  0  0  0
    2.1551   -0.6455   -0.3995 C   0  0  0  0  0  0  0  0  0  0  0  0
    2.4573    0.4236    0.1847 O   0  0  0  0  0  0  0  0  0  0  0  0
    3.0829   -1.7113   -0.3686 N   0  0  0  0  0  0  0  0  0  0  0  0
    4.6008   -1.6749    0.4030 S   0  0  0  0  0  6  0  0  0  0  0  0
    4.9731   -3.0977    0.7955 O   0  0  0  0  0  0  0  0  0  0  0  0
    4.6052   -0.8828    1.6797 O   0  0  0  0  0  0  0  0  0  0  0  0
    5.8928   -1.1068   -0.6833 C   0  0  0  0  0  0  0  0  0  0  0  0
    7.1707   -1.1103    0.0699 C   0  0  0  0  0  0  0  0  0  0  0  0
    7.5265    0.0304    0.7514 C   0  0  0  0  0  0  0  0  0  0  0  0
    8.7224    0.0642    1.4714 C   0  0  0  0  0  0  0  0  0  0  0  0
    9.5383   -1.0421    1.4958 C   0  0  0  0  0  0  0  0  0  0  0  0
   10.6837   -0.9832    2.1963 F   0  0  0  0  0  0  0  0  0  0  0  0
    9.1961   -2.1947    0.8175 C   0  0  0  0  0  0  0  0  0  0  0  0
    8.0134   -2.1914    0.1206 C   0  0  0  0  0  0  0  0  0  0  0  0
   -0.2536   -1.4097   -0.3337 C   0  0  0  0  0  0  0  0  0  0  0  0
   -2.9160    1.3294   -0.4820 N   0  0  0  0  0  0  0  0  0  0  0  0
   -4.1827    1.6988   -0.2538 C   0  0  0  0  0  0  0  0  0  0  0  0
   -4.6201    3.0701   -0.6041 C   0  0  0  0  0  0  0  0  0  0  0  0
   -8.8725    1.3190   -1.0000 H   0  0  0  0  0  0  0  0  0  0  0  0
  -10.1193    2.5377   -0.6732 H   0  0  0  0  0  0  0  0  0  0  0  0
   -9.9373    1.2303    0.5068 H   0  0  0  0  0  0  0  0  0  0  0  0
   -8.5298    3.8173    0.2805 H   0  0  0  0  0  0  0  0  0  0  0  0
   -8.5482    2.6220    1.6561 H   0  0  0  0  0  0  0  0  0  0  0  0
   -5.3411   -1.1336    1.0514 H   0  0  0  0  0  0  0  0  0  0  0  0
    0.4530    1.2350   -0.2902 H   0  0  0  0  0  0  0  0  0  0  0  0
   -0.2048    0.9618   -1.9762 H   0  0  0  0  0  0  0  0  0  0  0  0
    0.9507   -1.1561   -2.1348 H   0  0  0  0  0  0  0  0  0  0  0  0
    2.7896   -2.5893   -0.8705 H   0  0  0  0  0  0  0  0  0  0  0  0
    5.9682   -1.7269   -1.5835 H   0  0  0  0  0  0  0  0  0  0  0  0
    5.6962   -0.0614   -1.0231 H   0  0  0  0  0  0  0  0  0  0  0  0
    6.8765    0.8894    0.7226 H   0  0  0  0  0  0  0  0  0  0  0  0
    8.9973    0.9624    2.0049 H   0  0  0  0  0  0  0  0  0  0  0  0
    9.8691   -3.0316    0.8691 H   0  0  0  0  0  0  0  0  0  0  0  0
    7.7075   -3.0821   -0.4285 H   0  0  0  0  0  0  0  0  0  0  0  0
   -0.6811   -2.2809   -0.9121 H   0  0  0  0  0  0  0  0  0  0  0  0
    0.0092   -1.7593    0.6729 H   0  0  0  0  0  0  0  0  0  0  0  0
   -3.7780    3.6283   -1.0703 H   0  0  0  0  0  0  0  0  0  0  0  0
   -5.4433    2.9740   -1.3456 H   0  0  0  0  0  0  0  0  0  0  0  0
   -4.9955    3.5848    0.3093 H   0  0  0  0  0  0  0  0  0  0  0  0
  1  2  1  0
  2  3  1  0
  3  4  1  0
  4  5  2  0
  4  6  1  0
  6  7  2  0
  7  8  1  0
  8  9  1  0
  9 10  3  0
  8 11  2  0
 11 12  1  0
 12 13  1  0
 13 14  1  0
 14 15  1  0
 15 16  2  0
 15 17  1  0
 17 18  1  0
 18 19  2  0
 18 20  2  0
 18 21  1  0
 21 22  1  0
 22 23  2  0
 23 24  1  0
 24 25  2  0
 25 26  1  0
 25 27  1  0
 27 28  2  0
 14 29  1  0
 11 30  1  0
 30 31  2  0
 31 32  1  0
 31  6  1  0
 29 12  1  0
 28 22  1  0
  1 33  1  0
  1 34  1  0
  1 35  1  0
  2 36  1  0
  2 37  1  0
  7 38  1  0
 13 39  1  0
 13 40  1  0
 14 41  1  0
 17 42  1  0
 21 43  1  0
 21 44  1  0
 23 45  1  0
 24 46  1  0
 27 47  1  0
 28 48  1  0
 29 49  1  0
 29 50  1  0
 32 51  1  0
 32 52  1  0
 32 53  1  0
M  END
$$$$
