
     RDKit          3D

 66 71  0  0  0  0  0  0  0  0999 V2000
    0.0108    0.1587   -2.0487 C   0  0  0  0  0  0  0  0  0  0  0  0
   -1.1334   -0.2042   -1.2602 N   0  0  0  0  0  0  0  0  0  0  0  0
   -2.4063   -0.0040   -1.6773 C   0  0  0  0  0  0  0  0  0  0  0  0
   -2.9737    0.5188   -2.8205 C   0  0  0  0  0  0  0  0  0  0  0  0
   -4.3487    0.5732   -2.9138 C   0  0  0  0  0  0  0  0  0  0  0  0
   -5.0992    0.1183   -1.8946 N   0  0  0  0  0  0  0  0  0  0  0  0
   -4.5998   -0.3995   -0.7608 C   0  0  0  0  0  0  0  0  0  0  0  0
   -5.3879   -0.8792    0.3068 N   0  0  0  0  0  0  0  0  0  0  0  0
   -6.8449   -0.7938    0.1515 C   0  0  0  0  0  0  0  0  0  0  0  0
   -7.3178    0.5978    0.0017 C   0  0  0  0  0  0  0  0  0  0  0  0
   -7.6357    1.3098    1.1462 C   0  0  0  0  0  0  0  0  0  0  0  0
   -8.0863    2.6125    1.0587 C   0  0  0  0  0  0  0  0  0  0  0  0
   -8.2232    3.2166   -0.1804 C   0  0  0  0  0  0  0  0  0  0  0  0
   -7.8952    2.4680   -1.2816 C   0  0  0  0  0  0  0  0  0  0  0  0
   -7.4610    1.2094   -1.1787 N   0  0  0  0  0  0  0  0  0  0  0  0
   -3.2248   -0.4586   -0.6575 C   0  0  0  0  0  0  0  0  0  0  0  0
   -2.4209   -0.9266    0.3598 C   0  0  0  0  0  0  0  0  0  0  0  0
   -2.6727   -1.4660    1.5738 N   0  0  0  0  0  0  0  0  0  0  0  0
   -1.6486   -1.8242    2.3599 C   0  0  0  0  0  0  0  0  0  0  0  0
   -0.3783   -1.6673    1.9852 N   0  0  0  0  0  0  0  0  0  0  0  0
   -0.0386   -1.1316    0.7767 C   0  0  0  0  0  0  0  0  0  0  0  0
    1.3241   -1.0155    0.4167 N   0  0  0  0  0  0  0  0  0  0  0  0
    2.0128   -1.7962   -0.5723 C   0  0  0  0  0  0  0  0  0  0  0  0
    3.2715   -2.4261    0.0259 C   0  0  0  0  0  0  0  0  0  0  0  0
    4.0458   -1.2993    0.5880 N   0  0  0  0  0  0  0  0  0  0  0  0
    5.3268   -1.8138    0.8967 C   0  0  0  0  0  0  0  0  0  0  0  0
    6.3301   -0.8769    1.4552 C   0  0  0  0  0  0  0  0  0  0  0  0
    6.6718    0.2596    0.5831 C   0  0  0  0  0  0  0  0  0  0  0  0
    7.6919    0.2088   -0.3479 C   0  0  0  0  0  0  0  0  0  0  0  0
    8.0090    1.2765   -1.1610 C   0  0  0  0  0  0  0  0  0  0  0  0
    7.2959    2.4508   -1.0605 C   0  0  0  0  0  0  0  0  0  0  0  0
    7.5909    3.5022   -1.8450 F   0  0  0  0  0  0  0  0  0  0  0  0
    6.2775    2.5329   -0.1461 C   0  0  0  0  0  0  0  0  0  0  0  0
    5.5718    3.6963   -0.0472 F   0  0  0  0  0  0  0  0  0  0  0  0
    5.9701    1.4393    0.6704 C   0  0  0  0  0  0  0  0  0  0  0  0
    3.2945   -0.8239    1.7170 C   0  0  0  0  0  0  0  0  0  0  0  0
    2.1239   -0.0132    1.1324 C   0  0  0  0  0  0  0  0  0  0  0  0
   -1.0903   -0.7572   -0.0423 C   0  0  0  0  0  0  0  0  0  0  0  0
    0.4112   -0.6388   -2.6718 H   0  0  0  0  0  0  0  0  0  0  0  0
   -0.3154    0.9690   -2.7652 H   0  0  0  0  0  0  0  0  0  0  0  0
    0.7860    0.6570   -1.4249 H   0  0  0  0  0  0  0  0  0  0  0  0
   -2.3226    0.8695   -3.6076 H   0  0  0  0  0  0  0  0  0  0  0  0
   -4.8397    0.9821   -3.8072 H   0  0  0  0  0  0  0  0  0  0  0  0
   -4.9586   -1.2705    1.1542 H   0  0  0  0  0  0  0  0  0  0  0  0
   -7.1040   -1.3284   -0.7959 H   0  0  0  0  0  0  0  0  0  0  0  0
   -7.3570   -1.2773    1.0067 H   0  0  0  0  0  0  0  0  0  0  0  0
   -7.5312    0.8468    2.1039 H   0  0  0  0  0  0  0  0  0  0  0  0
   -8.3390    3.1829    1.9440 H   0  0  0  0  0  0  0  0  0  0  0  0
   -8.5758    4.2285   -0.2057 H   0  0  0  0  0  0  0  0  0  0  0  0
   -8.0100    2.9625   -2.2515 H   0  0  0  0  0  0  0  0  0  0  0  0
   -1.8368   -2.2608    3.3432 H   0  0  0  0  0  0  0  0  0  0  0  0
    2.4044   -1.1989   -1.4355 H   0  0  0  0  0  0  0  0  0  0  0  0
    1.3775   -2.6098   -0.9458 H   0  0  0  0  0  0  0  0  0  0  0  0
    3.8272   -2.8978   -0.7902 H   0  0  0  0  0  0  0  0  0  0  0  0
    3.0251   -3.1802    0.7978 H   0  0  0  0  0  0  0  0  0  0  0  0
    5.7512   -2.2818   -0.0134 H   0  0  0  0  0  0  0  0  0  0  0  0
    5.2012   -2.6480    1.6301 H   0  0  0  0  0  0  0  0  0  0  0  0
    6.0916   -0.5424    2.5009 H   0  0  0  0  0  0  0  0  0  0  0  0
    7.2863   -1.4690    1.5813 H   0  0  0  0  0  0  0  0  0  0  0  0
    8.2740   -0.6937   -0.4571 H   0  0  0  0  0  0  0  0  0  0  0  0
    8.7983    1.2285   -1.8772 H   0  0  0  0  0  0  0  0  0  0  0  0
    5.1806    1.5219    1.3715 H   0  0  0  0  0  0  0  0  0  0  0  0
    2.8919   -1.7303    2.2438 H   0  0  0  0  0  0  0  0  0  0  0  0
    3.8185   -0.1475    2.3930 H   0  0  0  0  0  0  0  0  0  0  0  0
    2.5781    0.6655    0.3808 H   0  0  0  0  0  0  0  0  0  0  0  0
    1.5548    0.4885    1.9141 H   0  0  0  0  0  0  0  0  0  0  0  0
  1  2  1  0
  2  3  1  0
  3  4  2  0
  4  5  1  0
  5  6  2  0
  6  7  1  0
  7  8  1  0
  8  9  1  0
  9 10  1  0
 10 11  2  0
 11 12  1  0
 12 13  2  0
 13 14  1  0
 14 15  2  0
  7 16  2  0
 16 17  1  0
 17 18  2  0
 18 19  1  0
 19 20  2  0
 20 21  1  0
 21 22  1  0
 22 23  1  0
 23 24  1  0
 24 25  1  0
 25 26  1  0
 26 27  1  0
 27 28  1  0
 28 29  2  0
 29 30  1  0
 30 31  2  0
 31 32  1  0
 31 33  1  0
 33 34  1  0
 33 35  2  0
 25 36  1  0
 36 37  1  0
 21 38  2  0
 38  2  1  0
 16  3  1  0
 38 17  1  0
 15 10  1  0
 37 22  1  0
 35 28  1  0
  1 39  1  0
  1 40  1  0
  1 41  1  0
  4 42  1  0
  5 43  1  0
  8 44  1  0
  9 45  1  0
  9 46  1  0
 11 47  1  0
 12 48  1  0
 13 49  1  0
 14 50  1  0
 19 51  1  0
 23 52  1  0
 23 53  1  0
 24 54  1  0
 24 55  1  0
 26 56  1  0
 26 57  1  0
 27 58  1  0
 27 59  1  0
 29 60  1  0
 30 61  1  0
 35 62  1  0
 36 63  1  0
 36 64  1  0
 37 65  1  0
 37 66  1  0
M  END
$$$$
