@<TRIPOS>MOLECULE
*****
 66 71 0 0 0
SMALL
GASTEIGER

@<TRIPOS>ATOM
      1 C           0.0108    0.1587   -2.0487 C.3     1  UNL1        0.0126
      2 N          -1.1334   -0.2042   -1.2602 N.ar    1  UNL1       -0.3389
      3 C          -2.4063   -0.0040   -1.6773 C.ar    1  UNL1        0.0562
      4 C          -2.9737    0.5188   -2.8205 C.ar    1  UNL1       -0.0193
      5 C          -4.3487    0.5732   -2.9138 C.ar    1  UNL1        0.0317
      6 N          -5.0992    0.1183   -1.8946 N.ar    1  UNL1       -0.2397
      7 C          -4.5998   -0.3995   -0.7608 C.ar    1  UNL1        0.1303
      8 N          -5.3879   -0.8792    0.3068 N.pl3   1  UNL1       -0.3229
      9 C          -6.8449   -0.7938    0.1515 C.3     1  UNL1        0.0528
     10 C          -7.3178    0.5978    0.0017 C.ar    1  UNL1        0.0583
     11 C          -7.6357    1.3098    1.1462 C.ar    1  UNL1       -0.0388
     12 C          -8.0863    2.6125    1.0587 C.ar    1  UNL1       -0.0586
     13 C          -8.2232    3.2166   -0.1804 C.ar    1  UNL1       -0.0436
     14 C          -7.8952    2.4680   -1.2816 C.ar    1  UNL1        0.0279
     15 N          -7.4610    1.2094   -1.1787 N.ar    1  UNL1       -0.2583
     16 C          -3.2248   -0.4586   -0.6575 C.ar    1  UNL1        0.0657
     17 C          -2.4209   -0.9266    0.3598 C.ar    1  UNL1        0.1048
     18 N          -2.6727   -1.4660    1.5738 N.ar    1  UNL1       -0.2330
     19 C          -1.6486   -1.8242    2.3599 C.ar    1  UNL1        0.1189
     20 N          -0.3783   -1.6673    1.9852 N.ar    1  UNL1       -0.2186
     21 C          -0.0386   -1.1316    0.7767 C.ar    1  UNL1        0.1489
     22 N           1.3241   -1.0155    0.4167 N.pl3   1  UNL1       -0.3110
     23 C           2.0128   -1.7962   -0.5723 C.3     1  UNL1        0.0264
     24 C           3.2715   -2.4261    0.0259 C.3     1  UNL1        0.0147
     25 N           4.0458   -1.2993    0.5880 N.3     1  UNL1       -0.2990
     26 C           5.3268   -1.8138    0.8967 C.3     1  UNL1        0.0030
     27 C           6.3301   -0.8769    1.4552 C.3     1  UNL1       -0.0148
     28 C           6.6718    0.2596    0.5831 C.ar    1  UNL1       -0.0433
     29 C           7.6919    0.2088   -0.3479 C.ar    1  UNL1       -0.0556
     30 C           8.0090    1.2765   -1.1610 C.ar    1  UNL1       -0.0233
     31 C           7.2959    2.4508   -1.0605 C.ar    1  UNL1        0.1584
     32 F           7.5909    3.5022   -1.8450 F       1  UNL1       -0.2025
     33 C           6.2775    2.5329   -0.1461 C.ar    1  UNL1        0.1587
     34 F           5.5718    3.6963   -0.0472 F       1  UNL1       -0.2025
     35 C           5.9701    1.4393    0.6704 C.ar    1  UNL1       -0.0204
     36 C           3.2945   -0.8239    1.7170 C.3     1  UNL1        0.0147
     37 C           2.1239   -0.0132    1.1324 C.3     1  UNL1        0.0264
     38 C          -1.0903   -0.7572   -0.0423 C.ar    1  UNL1        0.1089
     39 H           0.4112   -0.6388   -2.6718 H       1  UNL1        0.0456
     40 H          -0.3154    0.9690   -2.7652 H       1  UNL1        0.0456
     41 H           0.7860    0.6570   -1.4249 H       1  UNL1        0.0456
     42 H          -2.3226    0.8695   -3.6076 H       1  UNL1        0.0653
     43 H          -4.8397    0.9821   -3.8072 H       1  UNL1        0.0831
     44 H          -4.9586   -1.2705    1.1542 H       1  UNL1        0.1479
     45 H          -7.1040   -1.3284   -0.7959 H       1  UNL1        0.0526
     46 H          -7.3570   -1.2773    1.0067 H       1  UNL1        0.0526
     47 H          -7.5312    0.8468    2.1039 H       1  UNL1        0.0636
     48 H          -8.3390    3.1829    1.9440 H       1  UNL1        0.0619
     49 H          -8.5758    4.2285   -0.2057 H       1  UNL1        0.0633
     50 H          -8.0100    2.9625   -2.2515 H       1  UNL1        0.0829
     51 H          -1.8368   -2.2608    3.3432 H       1  UNL1        0.1048
     52 H           2.4044   -1.1989   -1.4355 H       1  UNL1        0.0477
     53 H           1.3775   -2.6098   -0.9458 H       1  UNL1        0.0477
     54 H           3.8272   -2.8978   -0.7902 H       1  UNL1        0.0442
     55 H           3.0251   -3.1802    0.7978 H       1  UNL1        0.0442
     56 H           5.7512   -2.2818   -0.0134 H       1  UNL1        0.0430
     57 H           5.2012   -2.6480    1.6301 H       1  UNL1        0.0430
     58 H           6.0916   -0.5424    2.5009 H       1  UNL1        0.0326
     59 H           7.2863   -1.4690    1.5813 H       1  UNL1        0.0326
     60 H           8.2740   -0.6937   -0.4571 H       1  UNL1        0.0621
     61 H           8.7983    1.2285   -1.8772 H       1  UNL1        0.0647
     62 H           5.1806    1.5219    1.3715 H       1  UNL1        0.0650
     63 H           2.8919   -1.7303    2.2438 H       1  UNL1        0.0442
     64 H           3.8185   -0.1475    2.3930 H       1  UNL1        0.0442
     65 H           2.5781    0.6655    0.3808 H       1  UNL1        0.0477
     66 H           1.5548    0.4885    1.9141 H       1  UNL1        0.0477
@<TRIPOS>BOND
     1     1     2    1
     2     2     3   ar
     3     3     4   ar
     4     4     5   ar
     5     5     6   ar
     6     6     7   ar
     7     7     8    1
     8     8     9    1
     9     9    10    1
    10    10    11   ar
    11    11    12   ar
    12    12    13   ar
    13    13    14   ar
    14    14    15   ar
    15     7    16   ar
    16    16    17   ar
    17    17    18   ar
    18    18    19   ar
    19    19    20   ar
    20    20    21   ar
    21    21    22    1
    22    22    23    1
    23    23    24    1
    24    24    25    1
    25    25    26    1
    26    26    27    1
    27    27    28    1
    28    28    29   ar
    29    29    30   ar
    30    30    31   ar
    31    31    32    1
    32    31    33   ar
    33    33    34    1
    34    33    35   ar
    35    25    36    1
    36    36    37    1
    37    21    38   ar
    38    38     2   ar
    39    16     3   ar
    40    38    17   ar
    41    15    10   ar
    42    37    22    1
    43    35    28   ar
    44     1    39    1
    45     1    40    1
    46     1    41    1
    47     4    42    1
    48     5    43    1
    49     8    44    1
    50     9    45    1
    51     9    46    1
    52    11    47    1
    53    12    48    1
    54    13    49    1
    55    14    50    1
    56    19    51    1
    57    23    52    1
    58    23    53    1
    59    24    54    1
    60    24    55    1
    61    26    56    1
    62    26    57    1
    63    27    58    1
    64    27    59    1
    65    29    60    1
    66    30    61    1
    67    35    62    1
    68    36    63    1
    69    36    64    1
    70    37    65    1
    71    37    66    1
