
     RDKit          3D

 61 68  0  0  0  0  0  0  0  0999 V2000
    4.5596   -2.0568   -1.4512 C   0  0  0  0  0  0  0  0  0  0  0  0
    4.0615   -0.7195   -1.2457 N   0  0  0  0  0  0  0  0  0  0  0  0
    3.1837   -0.7361   -0.0953 C   0  0  2  0  0  0  0  0  0  0  0  0
    2.0439   -1.7076   -0.4072 C   0  0  0  0  0  0  0  0  0  0  0  0
    1.1422   -1.7635    0.8000 C   0  0  1  0  0  0  0  0  0  0  0  0
    1.3285   -0.7759    1.6993 O   0  0  0  0  0  0  0  0  0  0  0  0
    1.5796    0.5057    1.2586 C   0  0  1  0  0  0  0  0  0  0  0  0
    2.2134    1.1806    2.4944 C   0  0  0  0  0  0  0  0  0  0  0  0
    2.4926    0.6180    0.0843 C   0  0  2  0  0  0  0  0  0  0  0  0
    1.7199    0.7988   -1.0603 O   0  0  0  0  0  0  0  0  0  0  0  0
    2.1141    1.9260   -1.7770 C   0  0  0  0  0  0  0  0  0  0  0  0
    0.2993    1.1212    0.9119 N   0  0  0  0  0  0  0  0  0  0  0  0
    0.0225    2.4559    0.9720 C   0  0  0  0  0  0  0  0  0  0  0  0
    0.7910    3.5404    1.2967 C   0  0  0  0  0  0  0  0  0  0  0  0
    0.2200    4.8194    1.2533 C   0  0  0  0  0  0  0  0  0  0  0  0
   -1.0924    5.0287    0.8934 C   0  0  0  0  0  0  0  0  0  0  0  0
   -1.8758    3.9323    0.5618 C   0  0  0  0  0  0  0  0  0  0  0  0
   -1.2830    2.6831    0.6146 C   0  0  0  0  0  0  0  0  0  0  0  0
   -1.8475    1.4757    0.3171 C   0  0  0  0  0  0  0  0  0  0  0  0
   -3.0934    1.0640   -0.1063 C   0  0  0  0  0  0  0  0  0  0  0  0
   -3.3552   -0.2777   -0.3448 C   0  0  0  0  0  0  0  0  0  0  0  0
   -2.3431   -1.2050   -0.1517 C   0  0  0  0  0  0  0  0  0  0  0  0
   -2.2652   -2.5535   -0.3065 C   0  0  0  0  0  0  0  0  0  0  0  0
   -3.1430   -3.5301   -0.6955 C   0  0  0  0  0  0  0  0  0  0  0  0
   -2.7252   -4.8555   -0.7471 C   0  0  0  0  0  0  0  0  0  0  0  0
   -1.4323   -5.1850   -0.4080 C   0  0  0  0  0  0  0  0  0  0  0  0
   -0.5264   -4.2274   -0.0132 C   0  0  0  0  0  0  0  0  0  0  0  0
   -0.9561   -2.9173    0.0329 C   0  0  0  0  0  0  0  0  0  0  0  0
   -0.2697   -1.8396    0.3789 N   0  0  0  0  0  0  0  0  0  0  0  0
   -1.0876   -0.7995    0.2751 C   0  0  0  0  0  0  0  0  0  0  0  0
   -0.8705    0.5448    0.5026 C   0  0  0  0  0  0  0  0  0  0  0  0
   -4.7305   -0.3765   -0.7721 C   0  0  0  0  0  0  0  0  0  0  0  0
   -5.3903   -1.3931   -1.0919 O   0  0  0  0  0  0  0  0  0  0  0  0
   -5.2785    0.9639   -0.7788 N   0  0  0  0  0  0  0  0  0  0  0  0
   -4.2756    1.8978   -0.3579 C   0  0  0  0  0  0  0  0  0  0  0  0
    4.4358   -2.7126   -0.5780 H   0  0  0  0  0  0  0  0  0  0  0  0
    3.9418   -2.5118   -2.2771 H   0  0  0  0  0  0  0  0  0  0  0  0
    5.6394   -2.0700   -1.7215 H   0  0  0  0  0  0  0  0  0  0  0  0
    4.8615   -0.0848   -1.1425 H   0  0  0  0  0  0  0  0  0  0  0  0
    3.7093   -1.0174    0.8219 H   0  0  0  0  0  0  0  0  0  0  0  0
    1.4819   -1.2474   -1.2474 H   0  0  0  0  0  0  0  0  0  0  0  0
    2.4028   -2.6774   -0.7474 H   0  0  0  0  0  0  0  0  0  0  0  0
    1.3379   -2.7386    1.2958 H   0  0  0  0  0  0  0  0  0  0  0  0
    2.5699    0.3737    3.2278 H   0  0  0  0  0  0  0  0  0  0  0  0
    1.4779    1.7353    3.0921 H   0  0  0  0  0  0  0  0  0  0  0  0
    3.1515    1.7002    2.2492 H   0  0  0  0  0  0  0  0  0  0  0  0
    3.2647    1.4059    0.1953 H   0  0  0  0  0  0  0  0  0  0  0  0
    1.4859    2.0488   -2.6816 H   0  0  0  0  0  0  0  0  0  0  0  0
    3.1536    1.7108   -2.1591 H   0  0  0  0  0  0  0  0  0  0  0  0
    2.0869    2.8526   -1.2045 H   0  0  0  0  0  0  0  0  0  0  0  0
    1.8108    3.4075    1.5571 H   0  0  0  0  0  0  0  0  0  0  0  0
    0.8295    5.6805    1.5119 H   0  0  0  0  0  0  0  0  0  0  0  0
   -1.5475    6.0093    0.8554 H   0  0  0  0  0  0  0  0  0  0  0  0
   -2.8930    4.0357    0.2763 H   0  0  0  0  0  0  0  0  0  0  0  0
   -4.1503   -3.3644   -0.9714 H   0  0  0  0  0  0  0  0  0  0  0  0
   -3.4023   -5.6278   -1.0496 H   0  0  0  0  0  0  0  0  0  0  0  0
   -1.0908   -6.2204   -0.4439 H   0  0  0  0  0  0  0  0  0  0  0  0
    0.5030   -4.4860    0.2573 H   0  0  0  0  0  0  0  0  0  0  0  0
   -6.2606    1.1549   -1.0576 H   0  0  0  0  0  0  0  0  0  0  0  0
   -4.1462    2.6234   -1.1923 H   0  0  0  0  0  0  0  0  0  0  0  0
   -4.5835    2.3835    0.5972 H   0  0  0  0  0  0  0  0  0  0  0  0
  1  2  1  0
  2  3  1  0
  3  4  1  0
  4  5  1  0
  5  6  1  0
  6  7  1  0
  7  8  1  1
  7  9  1  0
  9 10  1  0
 10 11  1  0
  7 12  1  0
 12 13  1  0
 13 14  2  0
 14 15  1  0
 15 16  2  0
 16 17  1  0
 17 18  2  0
 18 19  1  0
 19 20  2  0
 20 21  1  0
 21 22  2  0
 22 23  1  0
 23 24  2  0
 24 25  1  0
 25 26  2  0
 26 27  1  0
 27 28  2  0
 28 29  1  0
 29 30  1  0
 30 31  2  0
 21 32  1  0
 32 33  2  0
 32 34  1  0
 34 35  1  0
  9  3  1  0
 31 12  1  0
 29  5  1  0
 18 13  1  0
 31 19  1  0
 35 20  1  0
 30 22  1  0
 28 23  1  0
  1 36  1  0
  1 37  1  0
  1 38  1  0
  2 39  1  0
  3 40  1  1
  4 41  1  0
  4 42  1  0
  5 43  1  1
  8 44  1  0
  8 45  1  0
  8 46  1  0
  9 47  1  1
 11 48  1  0
 11 49  1  0
 11 50  1  0
 14 51  1  0
 15 52  1  0
 16 53  1  0
 17 54  1  0
 24 55  1  0
 25 56  1  0
 26 57  1  0
 27 58  1  0
 34 59  1  0
 35 60  1  0
 35 61  1  0
M  END
$$$$
