@<TRIPOS>MOLECULE
*****
 61 68 0 0 0
SMALL
GASTEIGER

@<TRIPOS>ATOM
      1 C           4.5596   -2.0568   -1.4512 C.3     1  UNL1       -0.0155
      2 N           4.0615   -0.7195   -1.2457 N.3     1  UNL1       -0.3136
      3 C           3.1837   -0.7361   -0.0953 C.3     1  UNL1        0.0423
      4 C           2.0439   -1.7076   -0.4072 C.3     1  UNL1        0.0107
      5 C           1.1422   -1.7635    0.8000 C.3     1  UNL1        0.1402
      6 O           1.3285   -0.7759    1.6993 O.3     1  UNL1       -0.3282
      7 C           1.5796    0.5057    1.2586 C.3     1  UNL1        0.1741
      8 C           2.2134    1.1806    2.4944 C.3     1  UNL1       -0.0136
      9 C           2.4926    0.6180    0.0843 C.3     1  UNL1        0.1214
     10 O           1.7199    0.7988   -1.0603 O.3     1  UNL1       -0.3735
     11 C           2.1141    1.9260   -1.7770 C.3     1  UNL1        0.0371
     12 N           0.2993    1.1212    0.9119 N.ar    1  UNL1       -0.3070
     13 C           0.0225    2.4559    0.9720 C.ar    1  UNL1        0.0527
     14 C           0.7910    3.5404    1.2967 C.ar    1  UNL1       -0.0375
     15 C           0.2200    4.8194    1.2533 C.ar    1  UNL1       -0.0598
     16 C          -1.0924    5.0287    0.8934 C.ar    1  UNL1       -0.0611
     17 C          -1.8758    3.9323    0.5618 C.ar    1  UNL1       -0.0520
     18 C          -1.2830    2.6831    0.6146 C.ar    1  UNL1        0.0081
     19 C          -1.8475    1.4757    0.3171 C.ar    1  UNL1        0.0151
     20 C          -3.0934    1.0640   -0.1063 C.ar    1  UNL1       -0.0078
     21 C          -3.3552   -0.2777   -0.3448 C.ar    1  UNL1        0.0518
     22 C          -2.3431   -1.2050   -0.1517 C.ar    1  UNL1        0.0221
     23 C          -2.2652   -2.5535   -0.3065 C.ar    1  UNL1        0.0085
     24 C          -3.1430   -3.5301   -0.6955 C.ar    1  UNL1       -0.0520
     25 C          -2.7252   -4.8555   -0.7471 C.ar    1  UNL1       -0.0611
     26 C          -1.4323   -5.1850   -0.4080 C.ar    1  UNL1       -0.0598
     27 C          -0.5264   -4.2274   -0.0132 C.ar    1  UNL1       -0.0375
     28 C          -0.9561   -2.9173    0.0329 C.ar    1  UNL1        0.0524
     29 N          -0.2697   -1.8396    0.3789 N.ar    1  UNL1       -0.3115
     30 C          -1.0876   -0.7995    0.2751 C.ar    1  UNL1        0.0774
     31 C          -0.8705    0.5448    0.5026 C.ar    1  UNL1        0.0772
     32 C          -4.7305   -0.3765   -0.7721 C.2     1  UNL1        0.2453
     33 O          -5.3903   -1.3931   -1.0919 O.2     1  UNL1       -0.2702
     34 N          -5.2785    0.9639   -0.7788 N.am    1  UNL1       -0.3072
     35 C          -4.2756    1.8978   -0.3579 C.3     1  UNL1        0.0385
     36 H           4.4358   -2.7126   -0.5780 H       1  UNL1        0.0388
     37 H           3.9418   -2.5118   -2.2771 H       1  UNL1        0.0388
     38 H           5.6394   -2.0700   -1.7215 H       1  UNL1        0.0388
     39 H           4.8615   -0.0848   -1.1425 H       1  UNL1        0.1220
     40 H           3.7093   -1.0174    0.8219 H       1  UNL1        0.0489
     41 H           1.4819   -1.2474   -1.2474 H       1  UNL1        0.0325
     42 H           2.4028   -2.6774   -0.7474 H       1  UNL1        0.0325
     43 H           1.3379   -2.7386    1.2958 H       1  UNL1        0.0839
     44 H           2.5699    0.3737    3.2278 H       1  UNL1        0.0277
     45 H           1.4779    1.7353    3.0921 H       1  UNL1        0.0277
     46 H           3.1515    1.7002    2.2492 H       1  UNL1        0.0277
     47 H           3.2647    1.4059    0.1953 H       1  UNL1        0.0660
     48 H           1.4859    2.0488   -2.6816 H       1  UNL1        0.0524
     49 H           3.1536    1.7108   -2.1591 H       1  UNL1        0.0524
     50 H           2.0869    2.8526   -1.2045 H       1  UNL1        0.0524
     51 H           1.8108    3.4075    1.5571 H       1  UNL1        0.0638
     52 H           0.8295    5.6805    1.5119 H       1  UNL1        0.0618
     53 H          -1.5475    6.0093    0.8554 H       1  UNL1        0.0618
     54 H          -2.8930    4.0357    0.2763 H       1  UNL1        0.0624
     55 H          -4.1503   -3.3644   -0.9714 H       1  UNL1        0.0624
     56 H          -3.4023   -5.6278   -1.0496 H       1  UNL1        0.0618
     57 H          -1.0908   -6.2204   -0.4439 H       1  UNL1        0.0618
     58 H           0.5030   -4.4860    0.2573 H       1  UNL1        0.0638
     59 H          -6.2606    1.1549   -1.0576 H       1  UNL1        0.1493
     60 H          -4.1462    2.6234   -1.1923 H       1  UNL1        0.0512
     61 H          -4.5835    2.3835    0.5972 H       1  UNL1        0.0512
@<TRIPOS>BOND
     1     1     2    1
     2     2     3    1
     3     3     4    1
     4     4     5    1
     5     5     6    1
     6     6     7    1
     7     7     8    1
     8     7     9    1
     9     9    10    1
    10    10    11    1
    11     7    12    1
    12    12    13   ar
    13    13    14   ar
    14    14    15   ar
    15    15    16   ar
    16    16    17   ar
    17    17    18   ar
    18    18    19   ar
    19    19    20   ar
    20    20    21   ar
    21    21    22   ar
    22    22    23   ar
    23    23    24   ar
    24    24    25   ar
    25    25    26   ar
    26    26    27   ar
    27    27    28   ar
    28    28    29   ar
    29    29    30   ar
    30    30    31   ar
    31    21    32    1
    32    32    33    2
    33    32    34   am
    34    34    35    1
    35     9     3    1
    36    31    12   ar
    37    29     5    1
    38    18    13   ar
    39    31    19   ar
    40    35    20    1
    41    30    22   ar
    42    28    23   ar
    43     1    36    1
    44     1    37    1
    45     1    38    1
    46     2    39    1
    47     3    40    1
    48     4    41    1
    49     4    42    1
    50     5    43    1
    51     8    44    1
    52     8    45    1
    53     8    46    1
    54     9    47    1
    55    11    48    1
    56    11    49    1
    57    11    50    1
    58    14    51    1
    59    15    52    1
    60    16    53    1
    61    17    54    1
    62    24    55    1
    63    25    56    1
    64    26    57    1
    65    27    58    1
    66    34    59    1
    67    35    60    1
    68    35    61    1
