@<TRIPOS>MOLECULE
*****
 50 52 0 0 0
SMALL
GASTEIGER

@<TRIPOS>ATOM
      1 C          -1.2004   -4.5947   -1.7082 C.3     1  UNL1        0.0365
      2 O          -0.7075   -3.4738   -1.0035 O.3     1  UNL1       -0.3808
      3 C          -1.8248   -2.6981   -0.6986 C.3     1  UNL1        0.0698
      4 C          -1.4435   -1.4483    0.0659 C.3     1  UNL1        0.0732
      5 N          -0.5232   -0.6413   -0.7495 N.am    1  UNL1       -0.2899
      6 C           0.7506   -0.2963   -0.2477 C.2     1  UNL1        0.3086
      7 O           1.0416   -0.7135    0.9112 O.2     1  UNL1       -0.2522
      8 N           1.6845    0.4794   -0.9820 N.am    1  UNL1       -0.2296
      9 C           1.3738    0.9842   -2.2933 C.3     1  UNL1        0.0993
     10 C           2.1950    2.1390   -2.7029 C.2     1  UNL1        0.2352
     11 O           1.7988    2.9384   -3.6225 O.2     1  UNL1       -0.2737
     12 N           3.4352    2.3737   -2.0781 N.am    1  UNL1       -0.2813
     13 C           3.7861    1.6555   -0.9067 C.ar    1  UNL1        0.0778
     14 C           5.0352    1.9345   -0.3302 C.ar    1  UNL1        0.0062
     15 C           5.3904    1.2485    0.8039 C.ar    1  UNL1        0.1400
     16 O           6.6286    1.4957    1.4126 O.3     1  UNL1       -0.4935
     17 C           7.0299    0.8110    2.5791 C.3     1  UNL1        0.0789
     18 C           4.5077    0.3243    1.3178 C.ar    1  UNL1        0.0714
     19 N           3.3157    0.0666    0.7567 N.ar    1  UNL1       -0.2343
     20 C           2.9411    0.7384   -0.3737 C.ar    1  UNL1        0.1507
     21 C          -2.6689   -0.6411    0.2748 C.ar    1  UNL1       -0.0220
     22 C          -3.2672   -0.5477    1.5293 C.ar    1  UNL1       -0.0531
     23 C          -4.4069    0.2066    1.7097 C.ar    1  UNL1       -0.0164
     24 C          -5.0040    0.8959    0.6762 C.ar    1  UNL1        0.1650
     25 O          -6.1625    1.6542    0.8913 O.3     1  UNL1       -0.4028
     26 C          -6.7818    1.7656    2.1335 C.3     1  UNL1        0.5753
     27 F          -7.8926    2.5891    1.9707 F       1  UNL1       -0.1328
     28 F          -5.8808    2.3412    3.0102 F       1  UNL1       -0.1328
     29 F          -7.1722    0.5027    2.5417 F       1  UNL1       -0.1328
     30 C          -4.4175    0.8078   -0.5671 C.ar    1  UNL1        0.1654
     31 F          -4.9471    1.4580   -1.6326 F       1  UNL1       -0.2016
     32 C          -3.2771    0.0536   -0.7494 C.ar    1  UNL1       -0.0178
     33 H          -1.7015   -4.1817   -2.6083 H       1  UNL1        0.0523
     34 H          -2.0028   -5.1073   -1.1169 H       1  UNL1        0.0523
     35 H          -0.3920   -5.2850   -1.9793 H       1  UNL1        0.0523
     36 H          -2.4715   -3.3266   -0.0526 H       1  UNL1        0.0581
     37 H          -2.3923   -2.4718   -1.6089 H       1  UNL1        0.0581
     38 H          -0.9573   -1.6830    1.0286 H       1  UNL1        0.0572
     39 H          -0.7973   -0.3198   -1.6999 H       1  UNL1        0.1509
     40 H           0.2769    1.2493   -2.3157 H       1  UNL1        0.0565
     41 H           1.4885    0.2086   -3.0813 H       1  UNL1        0.0565
     42 H           4.1172    3.0767   -2.4619 H       1  UNL1        0.1550
     43 H           5.6977    2.6751   -0.7755 H       1  UNL1        0.0674
     44 H           8.1276    0.8864    2.7083 H       1  UNL1        0.0660
     45 H           6.8300   -0.2962    2.4793 H       1  UNL1        0.0660
     46 H           6.5244    1.1979    3.4802 H       1  UNL1        0.0660
     47 H           4.8094   -0.2094    2.2192 H       1  UNL1        0.0868
     48 H          -2.8072   -1.0883    2.3625 H       1  UNL1        0.0622
     49 H          -4.8734    0.2801    2.6855 H       1  UNL1        0.0655
     50 H          -2.8126   -0.0140   -1.7429 H       1  UNL1        0.0651
@<TRIPOS>BOND
     1     1     2    1
     2     2     3    1
     3     3     4    1
     4     4     5    1
     5     5     6   am
     6     6     7    2
     7     6     8   am
     8     8     9    1
     9     9    10    1
    10    10    11    2
    11    10    12   am
    12    12    13    1
    13    13    14   ar
    14    14    15   ar
    15    15    16    1
    16    16    17    1
    17    15    18   ar
    18    18    19   ar
    19    19    20   ar
    20     4    21    1
    21    21    22   ar
    22    22    23   ar
    23    23    24   ar
    24    24    25    1
    25    25    26    1
    26    26    27    1
    27    26    28    1
    28    26    29    1
    29    24    30   ar
    30    30    31    1
    31    30    32   ar
    32    20     8    1
    33    32    21   ar
    34    20    13   ar
    35     1    33    1
    36     1    34    1
    37     1    35    1
    38     3    36    1
    39     3    37    1
    40     4    38    1
    41     5    39    1
    42     9    40    1
    43     9    41    1
    44    12    42    1
    45    14    43    1
    46    17    44    1
    47    17    45    1
    48    17    46    1
    49    18    47    1
    50    22    48    1
    51    23    49    1
    52    32    50    1
