
     RDKit          3D

 50 52  0  0  0  0  0  0  0  0999 V2000
   -1.2004   -4.5947   -1.7082 C   0  0  0  0  0  0  0  0  0  0  0  0
   -0.7075   -3.4738   -1.0035 O   0  0  0  0  0  0  0  0  0  0  0  0
   -1.8248   -2.6981   -0.6986 C   0  0  0  0  0  0  0  0  0  0  0  0
   -1.4435   -1.4483    0.0659 C   0  0  1  0  0  0  0  0  0  0  0  0
   -0.5232   -0.6413   -0.7495 N   0  0  0  0  0  0  0  0  0  0  0  0
    0.7506   -0.2963   -0.2477 C   0  0  0  0  0  0  0  0  0  0  0  0
    1.0416   -0.7135    0.9112 O   0  0  0  0  0  0  0  0  0  0  0  0
    1.6845    0.4794   -0.9820 N   0  0  0  0  0  0  0  0  0  0  0  0
    1.3738    0.9842   -2.2933 C   0  0  0  0  0  0  0  0  0  0  0  0
    2.1950    2.1390   -2.7029 C   0  0  0  0  0  0  0  0  0  0  0  0
    1.7988    2.9384   -3.6225 O   0  0  0  0  0  0  0  0  0  0  0  0
    3.4352    2.3737   -2.0781 N   0  0  0  0  0  0  0  0  0  0  0  0
    3.7861    1.6555   -0.9067 C   0  0  0  0  0  0  0  0  0  0  0  0
    5.0352    1.9345   -0.3302 C   0  0  0  0  0  0  0  0  0  0  0  0
    5.3904    1.2485    0.8039 C   0  0  0  0  0  0  0  0  0  0  0  0
    6.6286    1.4957    1.4126 O   0  0  0  0  0  0  0  0  0  0  0  0
    7.0299    0.8110    2.5791 C   0  0  0  0  0  0  0  0  0  0  0  0
    4.5077    0.3243    1.3178 C   0  0  0  0  0  0  0  0  0  0  0  0
    3.3157    0.0666    0.7567 N   0  0  0  0  0  0  0  0  0  0  0  0
    2.9411    0.7384   -0.3737 C   0  0  0  0  0  0  0  0  0  0  0  0
   -2.6689   -0.6411    0.2748 C   0  0  0  0  0  0  0  0  0  0  0  0
   -3.2672   -0.5477    1.5293 C   0  0  0  0  0  0  0  0  0  0  0  0
   -4.4069    0.2066    1.7097 C   0  0  0  0  0  0  0  0  0  0  0  0
   -5.0040    0.8959    0.6762 C   0  0  0  0  0  0  0  0  0  0  0  0
   -6.1625    1.6542    0.8913 O   0  0  0  0  0  0  0  0  0  0  0  0
   -6.7818    1.7656    2.1335 C   0  0  0  0  0  0  0  0  0  0  0  0
   -7.8926    2.5891    1.9707 F   0  0  0  0  0  0  0  0  0  0  0  0
   -5.8808    2.3412    3.0102 F   0  0  0  0  0  0  0  0  0  0  0  0
   -7.1722    0.5027    2.5417 F   0  0  0  0  0  0  0  0  0  0  0  0
   -4.4175    0.8078   -0.5671 C   0  0  0  0  0  0  0  0  0  0  0  0
   -4.9471    1.4580   -1.6326 F   0  0  0  0  0  0  0  0  0  0  0  0
   -3.2771    0.0536   -0.7494 C   0  0  0  0  0  0  0  0  0  0  0  0
   -1.7015   -4.1817   -2.6083 H   0  0  0  0  0  0  0  0  0  0  0  0
   -2.0028   -5.1073   -1.1169 H   0  0  0  0  0  0  0  0  0  0  0  0
   -0.3920   -5.2850   -1.9793 H   0  0  0  0  0  0  0  0  0  0  0  0
   -2.4715   -3.3266   -0.0526 H   0  0  0  0  0  0  0  0  0  0  0  0
   -2.3923   -2.4718   -1.6089 H   0  0  0  0  0  0  0  0  0  0  0  0
   -0.9573   -1.6830    1.0286 H   0  0  0  0  0  0  0  0  0  0  0  0
   -0.7973   -0.3198   -1.6999 H   0  0  0  0  0  0  0  0  0  0  0  0
    0.2769    1.2493   -2.3157 H   0  0  0  0  0  0  0  0  0  0  0  0
    1.4885    0.2086   -3.0813 H   0  0  0  0  0  0  0  0  0  0  0  0
    4.1172    3.0767   -2.4619 H   0  0  0  0  0  0  0  0  0  0  0  0
    5.6977    2.6751   -0.7755 H   0  0  0  0  0  0  0  0  0  0  0  0
    8.1276    0.8864    2.7083 H   0  0  0  0  0  0  0  0  0  0  0  0
    6.8300   -0.2962    2.4793 H   0  0  0  0  0  0  0  0  0  0  0  0
    6.5244    1.1979    3.4802 H   0  0  0  0  0  0  0  0  0  0  0  0
    4.8094   -0.2094    2.2192 H   0  0  0  0  0  0  0  0  0  0  0  0
   -2.8072   -1.0883    2.3625 H   0  0  0  0  0  0  0  0  0  0  0  0
   -4.8734    0.2801    2.6855 H   0  0  0  0  0  0  0  0  0  0  0  0
   -2.8126   -0.0140   -1.7429 H   0  0  0  0  0  0  0  0  0  0  0  0
  1  2  1  0
  2  3  1  0
  3  4  1  0
  4  5  1  0
  5  6  1  0
  6  7  2  0
  6  8  1  0
  8  9  1  0
  9 10  1  0
 10 11  2  0
 10 12  1  0
 12 13  1  0
 13 14  2  0
 14 15  1  0
 15 16  1  0
 16 17  1  0
 15 18  2  0
 18 19  1  0
 19 20  2  0
  4 21  1  0
 21 22  2  0
 22 23  1  0
 23 24  2  0
 24 25  1  0
 25 26  1  0
 26 27  1  0
 26 28  1  0
 26 29  1  0
 24 30  1  0
 30 31  1  0
 30 32  2  0
 20  8  1  0
 32 21  1  0
 20 13  1  0
  1 33  1  0
  1 34  1  0
  1 35  1  0
  3 36  1  0
  3 37  1  0
  4 38  1  1
  5 39  1  0
  9 40  1  0
  9 41  1  0
 12 42  1  0
 14 43  1  0
 17 44  1  0
 17 45  1  0
 17 46  1  0
 18 47  1  0
 22 48  1  0
 23 49  1  0
 32 50  1  0
M  END
$$$$
