@<TRIPOS>MOLECULE
*****
 66 70 0 0 0
SMALL
GASTEIGER

@<TRIPOS>ATOM
      1 C          -4.3400    2.9187   -2.6923 C.3     1  UNL1        0.0370
      2 O          -4.6962    1.9068   -1.8362 O.3     1  UNL1       -0.3760
      3 C          -3.7072    1.4128   -1.0478 C.3     1  UNL1        0.0969
      4 C          -3.9661    1.4471    0.4342 C.3     1  UNL1        0.0753
      5 O          -5.1058    0.7680    0.7732 O.3     1  UNL1       -0.3771
      6 C          -4.9701   -0.5978    0.5255 C.3     1  UNL1        0.0493
      7 C          -4.6004   -0.8623   -0.9178 C.3     1  UNL1       -0.0115
      8 C          -3.4492   -0.0771   -1.3892 C.3     1  UNL1        0.0383
      9 N          -2.1488   -0.3485   -1.0173 N.3     1  UNL1       -0.3079
     10 C          -1.5154   -1.5812   -1.0969 C.3     1  UNL1        0.0092
     11 C          -1.8940   -2.5768   -0.0470 C.3     1  UNL1       -0.0337
     12 C          -1.2826   -1.9399    1.1885 C.3     1  UNL1       -0.0256
     13 C          -1.1055   -2.9341    2.3070 C.3     1  UNL1       -0.0492
     14 C           0.3791   -3.2240    2.4016 C.3     1  UNL1       -0.0518
     15 C           0.8562   -2.8620    1.0403 C.3     1  UNL1       -0.0387
     16 C           0.1128   -1.6047    0.7207 C.3     1  UNL1        0.0514
     17 C           0.5703   -0.4120    1.4092 C.2     1  UNL1        0.2223
     18 O          -0.2311    0.1324    2.2150 O.2     1  UNL1       -0.2750
     19 N           1.8458    0.2007    1.2569 N.am    1  UNL1       -0.2964
     20 C           2.1744    1.3991    2.0066 C.3     1  UNL1        0.0190
     21 C           2.3200    2.5037    0.9634 C.3     1  UNL1       -0.0115
     22 C           3.4990    2.1245    0.1293 C.ar    1  UNL1       -0.0412
     23 C           4.3526    3.0856   -0.3842 C.ar    1  UNL1       -0.0577
     24 C           5.4401    2.7427   -1.1529 C.ar    1  UNL1       -0.0498
     25 C           5.7109    1.4084   -1.4357 C.ar    1  UNL1        0.0551
     26 C           6.8864    1.0564   -2.2653 C.3     1  UNL1        0.4174
     27 F           6.4806    0.6426   -3.5327 F       1  UNL1       -0.1659
     28 F           7.6203    0.0147   -1.7382 F       1  UNL1       -0.1659
     29 F           7.7292    2.1331   -2.3990 F       1  UNL1       -0.1659
     30 C           4.8514    0.4876   -0.9153 C.ar    1  UNL1       -0.0452
     31 C           3.7523    0.7976   -0.1409 C.ar    1  UNL1       -0.0264
     32 C           2.8749   -0.3070    0.3787 C.3     1  UNL1        0.0400
     33 C          -0.0153   -1.4055   -0.7807 C.3     1  UNL1       -0.0233
     34 H          -3.5524    2.6380   -3.4159 H       1  UNL1        0.0524
     35 H          -4.1214    3.8836   -2.1828 H       1  UNL1        0.0524
     36 H          -5.2505    3.1354   -3.3261 H       1  UNL1        0.0524
     37 H          -2.7590    1.9419   -1.2531 H       1  UNL1        0.0634
     38 H          -3.9518    2.4703    0.8520 H       1  UNL1        0.0586
     39 H          -3.1032    0.9176    0.9164 H       1  UNL1        0.0586
     40 H          -5.9675   -1.0531    0.6904 H       1  UNL1        0.0560
     41 H          -4.2392   -1.0502    1.1939 H       1  UNL1        0.0560
     42 H          -5.5078   -0.4508   -1.4929 H       1  UNL1        0.0303
     43 H          -4.6274   -1.9149   -1.1158 H       1  UNL1        0.0303
     44 H          -3.5041   -0.0728   -2.5271 H       1  UNL1        0.0487
     45 H          -1.5199    0.4243   -1.3274 H       1  UNL1        0.1225
     46 H          -1.4979   -2.0391   -2.1226 H       1  UNL1        0.0461
     47 H          -1.4347   -3.5720   -0.2516 H       1  UNL1        0.0283
     48 H          -2.9376   -2.7510    0.1409 H       1  UNL1        0.0283
     49 H          -1.8568   -1.0583    1.4666 H       1  UNL1        0.0311
     50 H          -1.7174   -3.8376    2.1862 H       1  UNL1        0.0268
     51 H          -1.4106   -2.4265    3.2640 H       1  UNL1        0.0268
     52 H           0.8715   -2.6033    3.1839 H       1  UNL1        0.0266
     53 H           0.5643   -4.3075    2.6468 H       1  UNL1        0.0266
     54 H           1.9455   -2.7893    0.9312 H       1  UNL1        0.0275
     55 H           0.5162   -3.6407    0.3269 H       1  UNL1        0.0275
     56 H           3.1332    1.2852    2.5424 H       1  UNL1        0.0468
     57 H           1.3367    1.7136    2.6619 H       1  UNL1        0.0468
     58 H           1.4459    2.4960    0.2787 H       1  UNL1        0.0328
     59 H           2.4635    3.4943    1.4392 H       1  UNL1        0.0328
     60 H           4.1629    4.1130   -0.1793 H       1  UNL1        0.0621
     61 H           6.1316    3.4735   -1.5723 H       1  UNL1        0.0623
     62 H           5.0666   -0.5684   -1.1396 H       1  UNL1        0.0626
     63 H           2.5114   -0.8435   -0.4959 H       1  UNL1        0.0514
     64 H           3.5499   -0.9193    1.0252 H       1  UNL1        0.0514
     65 H           0.5914   -2.1524   -1.3297 H       1  UNL1        0.0290
     66 H           0.2398   -0.3853   -1.0856 H       1  UNL1        0.0290
@<TRIPOS>BOND
     1     1     2    1
     2     2     3    1
     3     3     4    1
     4     4     5    1
     5     5     6    1
     6     6     7    1
     7     7     8    1
     8     8     9    1
     9     9    10    1
    10    10    11    1
    11    11    12    1
    12    12    13    1
    13    13    14    1
    14    14    15    1
    15    15    16    1
    16    16    17    1
    17    17    18    2
    18    17    19   am
    19    19    20    1
    20    20    21    1
    21    21    22    1
    22    22    23   ar
    23    23    24   ar
    24    24    25   ar
    25    25    26    1
    26    26    27    1
    27    26    28    1
    28    26    29    1
    29    25    30   ar
    30    30    31   ar
    31    31    32    1
    32    16    33    1
    33     8     3    1
    34    33    10    1
    35    16    12    1
    36    32    19    1
    37    31    22   ar
    38     1    34    1
    39     1    35    1
    40     1    36    1
    41     3    37    1
    42     4    38    1
    43     4    39    1
    44     6    40    1
    45     6    41    1
    46     7    42    1
    47     7    43    1
    48     8    44    1
    49     9    45    1
    50    10    46    1
    51    11    47    1
    52    11    48    1
    53    12    49    1
    54    13    50    1
    55    13    51    1
    56    14    52    1
    57    14    53    1
    58    15    54    1
    59    15    55    1
    60    20    56    1
    61    20    57    1
    62    21    58    1
    63    21    59    1
    64    23    60    1
    65    24    61    1
    66    30    62    1
    67    32    63    1
    68    32    64    1
    69    33    65    1
    70    33    66    1
