@<TRIPOS>MOLECULE
*****
 50 51 0 0 0
SMALL
GASTEIGER

@<TRIPOS>ATOM
      1 C          -2.7667    0.1399    0.0066 C.3     1  UNL1        0.1237
      2 N          -2.8222   -1.0862    0.6743 N.3     1  UNL1       -0.1626
      3 C          -2.4982   -1.2349    2.0297 C.3     1  UNL1        0.0304
      4 C          -2.8866   -0.1852    3.0022 C.3     1  UNL1        0.0087
      5 S          -2.5912    1.4943    2.3059 S.3     1  UNL1       -0.1511
      6 C          -3.3159    1.3667    0.6510 C.3     1  UNL1        0.0367
      7 C          -4.8136    1.3121    0.8495 C.3     1  UNL1       -0.0487
      8 C          -2.9305    2.5537   -0.2265 C.3     1  UNL1       -0.0487
      9 S          -1.7241   -2.1524   -0.1970 S.O2    1  UNL1        0.0616
     10 O          -1.8300   -3.4882    0.4626 O.2     1  UNL1       -0.1528
     11 O          -2.1198   -2.2845   -1.6382 O.2     1  UNL1       -0.1528
     12 C          -0.0925   -1.5881   -0.1748 C.ar    1  UNL1        0.1057
     13 C           0.3850   -0.7374   -1.1705 C.ar    1  UNL1       -0.0319
     14 C           1.6731   -0.2637   -1.1988 C.ar    1  UNL1       -0.0180
     15 C           2.5744   -0.6227   -0.2115 C.ar    1  UNL1        0.1220
     16 O           3.8767   -0.1703   -0.2011 O.3     1  UNL1       -0.4795
     17 C           4.4032    0.6953   -1.1927 C.3     1  UNL1        0.1499
     18 C           5.7972    1.0147   -0.9412 C.1     1  UNL1       -0.0602
     19 C           6.9515    1.2734   -0.7143 C.1     1  UNL1       -0.0838
     20 C           8.3650    1.5748   -0.4187 C.3     1  UNL1        0.0560
     21 N           9.2002    0.4190   -0.7655 N.3     1  UNL1       -0.3200
     22 C           2.1639   -1.4618    0.8011 C.ar    1  UNL1       -0.0180
     23 C           0.8581   -1.9033    0.7733 C.ar    1  UNL1       -0.0319
     24 C          -3.6357   -0.0216   -1.2406 C.2     1  UNL1        0.2557
     25 O          -3.6754    0.7609   -2.2073 O.2     1  UNL1       -0.2719
     26 N          -4.5208   -1.1411   -1.4044 N.am    1  UNL1       -0.1961
     27 O          -5.2442   -1.1993   -2.5379 O.3     1  UNL1       -0.2951
     28 H          -1.7597    0.4221   -0.3874 H       1  UNL1        0.0590
     29 H          -1.4231   -1.4723    2.2294 H       1  UNL1        0.0452
     30 H          -3.0206   -2.1807    2.3780 H       1  UNL1        0.0452
     31 H          -2.2516   -0.2404    3.9087 H       1  UNL1        0.0389
     32 H          -3.9331   -0.2378    3.3744 H       1  UNL1        0.0389
     33 H          -4.9994    0.5990    1.6678 H       1  UNL1        0.0244
     34 H          -5.3698    1.0666   -0.0726 H       1  UNL1        0.0244
     35 H          -5.1364    2.3106    1.1963 H       1  UNL1        0.0244
     36 H          -3.7698    2.7540   -0.9159 H       1  UNL1        0.0244
     37 H          -2.7081    3.4544    0.3854 H       1  UNL1        0.0244
     38 H          -2.0160    2.2966   -0.7995 H       1  UNL1        0.0244
     39 H          -0.2064   -0.3953   -1.9825 H       1  UNL1        0.0638
     40 H           2.0601    0.3958   -1.9616 H       1  UNL1        0.0655
     41 H           4.3319    0.1898   -2.1668 H       1  UNL1        0.0837
     42 H           3.8201    1.6365   -1.2893 H       1  UNL1        0.0837
     43 H           8.6308    2.4541   -1.0395 H       1  UNL1        0.0558
     44 H           8.5283    1.7630    0.6711 H       1  UNL1        0.0558
     45 H           8.8885   -0.3816   -0.1893 H       1  UNL1        0.1191
     46 H           8.9088    0.1697   -1.7580 H       1  UNL1        0.1191
     47 H           2.8399   -1.7671    1.5941 H       1  UNL1        0.0655
     48 H           0.5755   -2.5640    1.5812 H       1  UNL1        0.0638
     49 H          -4.5918   -1.8727   -0.6488 H       1  UNL1        0.1822
     50 H          -6.1789   -1.4644   -2.3445 H       1  UNL1        0.2414
@<TRIPOS>BOND
     1     1     2    1
     2     2     3    1
     3     3     4    1
     4     4     5    1
     5     5     6    1
     6     6     7    1
     7     6     8    1
     8     2     9    1
     9     9    10    2
    10     9    11    2
    11     9    12    1
    12    12    13   ar
    13    13    14   ar
    14    14    15   ar
    15    15    16    1
    16    16    17    1
    17    17    18    1
    18    18    19    3
    19    19    20    1
    20    20    21    1
    21    15    22   ar
    22    22    23   ar
    23     1    24    1
    24    24    25    2
    25    24    26   am
    26    26    27    1
    27     6     1    1
    28    23    12   ar
    29     1    28    1
    30     3    29    1
    31     3    30    1
    32     4    31    1
    33     4    32    1
    34     7    33    1
    35     7    34    1
    36     7    35    1
    37     8    36    1
    38     8    37    1
    39     8    38    1
    40    13    39    1
    41    14    40    1
    42    17    41    1
    43    17    42    1
    44    20    43    1
    45    20    44    1
    46    21    45    1
    47    21    46    1
    48    22    47    1
    49    23    48    1
    50    26    49    1
    51    27    50    1
