@<TRIPOS>MOLECULE
*****
 47 50 0 0 0
SMALL
GASTEIGER

@<TRIPOS>ATOM
      1 N           5.2935   -1.9960   -1.1970 N.am    1  UNL1       -0.3241
      2 C           3.9767   -1.5415   -0.9389 C.2     1  UNL1        0.2599
      3 O           3.0682   -1.9590   -1.6997 O.2     1  UNL1       -0.2687
      4 C           3.6408   -0.6365    0.1405 C.ar    1  UNL1        0.1280
      5 C           4.5626   -0.1131    1.0397 C.ar    1  UNL1        0.0588
      6 N           3.8524    0.6694    1.8696 N.ar    1  UNL1       -0.2353
      7 C           2.5574    0.6366    1.5086 C.ar    1  UNL1        0.1381
      8 C           1.4551    1.2791    2.0623 C.ar    1  UNL1       -0.0182
      9 C           0.2015    1.0994    1.5227 C.ar    1  UNL1       -0.0477
     10 C           0.0550    0.2738    0.4264 C.ar    1  UNL1        0.0173
     11 C          -1.2589    0.0735   -0.1552 C.ar    1  UNL1        0.0782
     12 C          -2.0330    1.0514   -0.7312 C.ar    1  UNL1        0.0967
     13 C          -1.6640    2.4670   -0.8575 C.ar    1  UNL1        0.0026
     14 C          -2.4543    3.4061   -0.2356 C.ar    1  UNL1       -0.0498
     15 C          -2.1510    4.7286   -0.3256 C.ar    1  UNL1       -0.0258
     16 C          -1.0449    5.1428   -1.0434 C.ar    1  UNL1        0.1234
     17 F          -0.7085    6.4561   -1.1565 F       1  UNL1       -0.2055
     18 C          -0.2558    4.1951   -1.6653 C.ar    1  UNL1       -0.0258
     19 C          -0.5651    2.8615   -1.5722 C.ar    1  UNL1       -0.0498
     20 N          -3.1528    0.4386   -1.1325 N.ar    1  UNL1       -0.2351
     21 C          -3.0940   -0.8759   -0.8245 C.ar    1  UNL1        0.0975
     22 N          -1.9338   -1.1124   -0.2231 N.ar    1  UNL1       -0.3220
     23 C          -1.4808   -2.3817    0.2629 C.3     1  UNL1        0.0820
     24 C          -1.3565   -2.4139    1.7728 C.3     1  UNL1        0.0671
     25 O          -0.9138   -3.6690    2.1874 O.3     1  UNL1       -0.3929
     26 C          -2.4828   -3.4502   -0.1144 C.3     1  UNL1        0.0671
     27 O          -2.6672   -3.5664   -1.4762 O.3     1  UNL1       -0.3929
     28 C           1.1811   -0.3387   -0.0829 C.ar    1  UNL1        0.0211
     29 N           2.4151   -0.1723    0.4347 N.ar    1  UNL1       -0.2949
     30 H           5.6643   -2.9271   -0.8933 H       1  UNL1        0.1453
     31 H           5.9985   -1.4024   -1.7274 H       1  UNL1        0.1453
     32 H           5.6245   -0.2639    1.1076 H       1  UNL1        0.0853
     33 H           1.5597    1.9337    2.9286 H       1  UNL1        0.0654
     34 H          -0.6772    1.5834    1.9276 H       1  UNL1        0.0626
     35 H          -3.3331    3.1139    0.3381 H       1  UNL1        0.0625
     36 H          -2.7590    5.4982    0.1569 H       1  UNL1        0.0646
     37 H           0.6332    4.4850   -2.2461 H       1  UNL1        0.0646
     38 H           0.0527    2.1098   -2.0598 H       1  UNL1        0.0625
     39 H          -3.9183   -1.5521   -1.0718 H       1  UNL1        0.1029
     40 H          -0.5384   -2.6345   -0.2356 H       1  UNL1        0.0574
     41 H          -0.5372   -1.6934    2.0282 H       1  UNL1        0.0578
     42 H          -2.2966   -2.2123    2.2813 H       1  UNL1        0.0578
     43 H          -0.3314   -4.1147    1.5483 H       1  UNL1        0.2095
     44 H          -2.2318   -4.4326    0.3454 H       1  UNL1        0.0578
     45 H          -3.4564   -3.1517    0.3764 H       1  UNL1        0.0578
     46 H          -3.5813   -3.9065   -1.6638 H       1  UNL1        0.2095
     47 H           1.0856   -0.9850   -0.9364 H       1  UNL1        0.0820
@<TRIPOS>BOND
     1     1     2   am
     2     2     3    2
     3     2     4    1
     4     4     5   ar
     5     5     6   ar
     6     6     7   ar
     7     7     8   ar
     8     8     9   ar
     9     9    10   ar
    10    10    11    1
    11    11    12   ar
    12    12    13    1
    13    13    14   ar
    14    14    15   ar
    15    15    16   ar
    16    16    17    1
    17    16    18   ar
    18    18    19   ar
    19    12    20   ar
    20    20    21   ar
    21    21    22   ar
    22    22    23    1
    23    23    24    1
    24    24    25    1
    25    23    26    1
    26    26    27    1
    27    10    28   ar
    28    28    29   ar
    29    29     4   ar
    30    29     7   ar
    31    22    11   ar
    32    19    13   ar
    33     1    30    1
    34     1    31    1
    35     5    32    1
    36     8    33    1
    37     9    34    1
    38    14    35    1
    39    15    36    1
    40    18    37    1
    41    19    38    1
    42    21    39    1
    43    23    40    1
    44    24    41    1
    45    24    42    1
    46    25    43    1
    47    26    44    1
    48    26    45    1
    49    27    46    1
    50    28    47    1
