@<TRIPOS>MOLECULE
*****
 53 56 0 0 0
SMALL
GASTEIGER

@<TRIPOS>ATOM
      1 N          -7.7285    1.1821   -0.0854 N.3     1  UNL1       -0.3272
      2 C          -7.0089    0.0675   -0.6601 C.3     1  UNL1        0.0049
      3 C          -5.9075    0.6072   -1.5505 C.3     1  UNL1       -0.0363
      4 C          -4.6269    0.6719   -0.7123 C.3     1  UNL1       -0.0361
      5 C          -4.1734   -0.7219   -0.4433 C.3     1  UNL1        0.0080
      6 N          -3.1175   -0.8278    0.5216 N.3     1  UNL1       -0.3099
      7 C          -1.9349   -0.1976    0.0625 C.3     1  UNL1        0.0153
      8 C          -1.8610    1.3056    0.0265 C.3     1  UNL1       -0.0287
      9 C          -0.9661    0.5220    0.9164 C.3     1  UNL1        0.0010
     10 C           0.4684    0.3531    0.5219 C.ar    1  UNL1       -0.0425
     11 C           1.4533    0.2811    1.4801 C.ar    1  UNL1       -0.0548
     12 C           2.7770    0.1264    1.1210 C.ar    1  UNL1       -0.0197
     13 C           3.1785    0.0369   -0.1977 C.ar    1  UNL1        0.1210
     14 O           4.5156   -0.1193   -0.5601 O.3     1  UNL1       -0.4873
     15 C           5.4669   -0.1845    0.4744 C.3     1  UNL1        0.1173
     16 C           6.8420   -0.3500   -0.0139 C.ar    1  UNL1        0.0248
     17 C           7.4759   -1.5641    0.0603 C.ar    1  UNL1       -0.0526
     18 C           8.7740   -1.6435   -0.4211 C.ar    1  UNL1       -0.0612
     19 C           9.4157   -0.5398   -0.9599 C.ar    1  UNL1       -0.0590
     20 C           8.7769    0.6770   -1.0329 C.ar    1  UNL1       -0.0261
     21 C           7.4825    0.7505   -0.5513 C.ar    1  UNL1        0.1298
     22 F           6.8724    1.9668   -0.6352 F       1  UNL1       -0.2051
     23 C           2.1786    0.1107   -1.1494 C.ar    1  UNL1       -0.0197
     24 C           0.8492    0.2658   -0.7988 C.ar    1  UNL1       -0.0548
     25 C          -5.3122   -1.6247   -0.0165 C.3     1  UNL1       -0.0361
     26 C          -6.4230   -0.7271    0.4969 C.3     1  UNL1       -0.0363
     27 H          -7.8473    1.9115   -0.8227 H       1  UNL1        0.1185
     28 H          -7.1940    1.5504    0.7418 H       1  UNL1        0.1185
     29 H          -7.6730   -0.5654   -1.2500 H       1  UNL1        0.0458
     30 H          -6.1599    1.6427   -1.8306 H       1  UNL1        0.0281
     31 H          -5.6860   -0.0335   -2.4113 H       1  UNL1        0.0281
     32 H          -3.9253    1.2662   -1.3246 H       1  UNL1        0.0281
     33 H          -4.8359    1.2460    0.2147 H       1  UNL1        0.0281
     34 H          -3.8208   -1.1367   -1.4473 H       1  UNL1        0.0460
     35 H          -3.4707   -0.4777    1.4390 H       1  UNL1        0.1225
     36 H          -1.5140   -0.7445   -0.8554 H       1  UNL1        0.0466
     37 H          -1.5047    1.7317   -0.9234 H       1  UNL1        0.0287
     38 H          -2.6310    1.9297    0.5140 H       1  UNL1        0.0287
     39 H          -1.1870    0.5993    2.0000 H       1  UNL1        0.0364
     40 H           1.1326    0.3520    2.5161 H       1  UNL1        0.0622
     41 H           3.5344    0.0724    1.8980 H       1  UNL1        0.0654
     42 H           5.4246    0.8057    1.0066 H       1  UNL1        0.0749
     43 H           5.1679   -0.9600    1.2157 H       1  UNL1        0.0749
     44 H           6.9594   -2.3964    0.4792 H       1  UNL1        0.0622
     45 H           9.2798   -2.6002   -0.3650 H       1  UNL1        0.0618
     46 H          10.4394   -0.6023   -1.3396 H       1  UNL1        0.0618
     47 H           9.2590    1.5492   -1.4488 H       1  UNL1        0.0646
     48 H           2.4712    0.0424   -2.1987 H       1  UNL1        0.0654
     49 H           0.0696    0.3233   -1.5584 H       1  UNL1        0.0622
     50 H          -4.9627   -2.2262    0.8429 H       1  UNL1        0.0281
     51 H          -5.6302   -2.2468   -0.8546 H       1  UNL1        0.0281
     52 H          -5.9900   -0.0800    1.2733 H       1  UNL1        0.0281
     53 H          -7.1728   -1.3773    0.9663 H       1  UNL1        0.0281
@<TRIPOS>BOND
     1     1     2    1
     2     2     3    1
     3     3     4    1
     4     4     5    1
     5     5     6    1
     6     6     7    1
     7     7     8    1
     8     8     9    1
     9     9    10    1
    10    10    11   ar
    11    11    12   ar
    12    12    13   ar
    13    13    14    1
    14    14    15    1
    15    15    16    1
    16    16    17   ar
    17    17    18   ar
    18    18    19   ar
    19    19    20   ar
    20    20    21   ar
    21    21    22    1
    22    13    23   ar
    23    23    24   ar
    24     5    25    1
    25    25    26    1
    26    26     2    1
    27     9     7    1
    28    24    10   ar
    29    21    16   ar
    30     1    27    1
    31     1    28    1
    32     2    29    1
    33     3    30    1
    34     3    31    1
    35     4    32    1
    36     4    33    1
    37     5    34    1
    38     6    35    1
    39     7    36    1
    40     8    37    1
    41     8    38    1
    42     9    39    1
    43    11    40    1
    44    12    41    1
    45    15    42    1
    46    15    43    1
    47    17    44    1
    48    18    45    1
    49    19    46    1
    50    20    47    1
    51    23    48    1
    52    24    49    1
    53    25    50    1
    54    25    51    1
    55    26    52    1
    56    26    53    1
