
     RDKit          3D

 53 56  0  0  0  0  0  0  0  0999 V2000
   -7.7285    1.1821   -0.0854 N   0  0  0  0  0  0  0  0  0  0  0  0
   -7.0089    0.0675   -0.6601 C   0  0  0  0  0  0  0  0  0  0  0  0
   -5.9075    0.6072   -1.5505 C   0  0  0  0  0  0  0  0  0  0  0  0
   -4.6269    0.6719   -0.7123 C   0  0  0  0  0  0  0  0  0  0  0  0
   -4.1734   -0.7219   -0.4433 C   0  0  0  0  0  0  0  0  0  0  0  0
   -3.1175   -0.8278    0.5216 N   0  0  0  0  0  0  0  0  0  0  0  0
   -1.9349   -0.1976    0.0625 C   0  0  1  0  0  0  0  0  0  0  0  0
   -1.8610    1.3056    0.0265 C   0  0  0  0  0  0  0  0  0  0  0  0
   -0.9661    0.5220    0.9164 C   0  0  2  0  0  0  0  0  0  0  0  0
    0.4684    0.3531    0.5219 C   0  0  0  0  0  0  0  0  0  0  0  0
    1.4533    0.2811    1.4801 C   0  0  0  0  0  0  0  0  0  0  0  0
    2.7770    0.1264    1.1210 C   0  0  0  0  0  0  0  0  0  0  0  0
    3.1785    0.0369   -0.1977 C   0  0  0  0  0  0  0  0  0  0  0  0
    4.5156   -0.1193   -0.5601 O   0  0  0  0  0  0  0  0  0  0  0  0
    5.4669   -0.1845    0.4744 C   0  0  0  0  0  0  0  0  0  0  0  0
    6.8420   -0.3500   -0.0139 C   0  0  0  0  0  0  0  0  0  0  0  0
    7.4759   -1.5641    0.0603 C   0  0  0  0  0  0  0  0  0  0  0  0
    8.7740   -1.6435   -0.4211 C   0  0  0  0  0  0  0  0  0  0  0  0
    9.4157   -0.5398   -0.9599 C   0  0  0  0  0  0  0  0  0  0  0  0
    8.7769    0.6770   -1.0329 C   0  0  0  0  0  0  0  0  0  0  0  0
    7.4825    0.7505   -0.5513 C   0  0  0  0  0  0  0  0  0  0  0  0
    6.8724    1.9668   -0.6352 F   0  0  0  0  0  0  0  0  0  0  0  0
    2.1786    0.1107   -1.1494 C   0  0  0  0  0  0  0  0  0  0  0  0
    0.8492    0.2658   -0.7988 C   0  0  0  0  0  0  0  0  0  0  0  0
   -5.3122   -1.6247   -0.0165 C   0  0  0  0  0  0  0  0  0  0  0  0
   -6.4230   -0.7271    0.4969 C   0  0  0  0  0  0  0  0  0  0  0  0
   -7.8473    1.9115   -0.8227 H   0  0  0  0  0  0  0  0  0  0  0  0
   -7.1940    1.5504    0.7418 H   0  0  0  0  0  0  0  0  0  0  0  0
   -7.6730   -0.5654   -1.2500 H   0  0  0  0  0  0  0  0  0  0  0  0
   -6.1599    1.6427   -1.8306 H   0  0  0  0  0  0  0  0  0  0  0  0
   -5.6860   -0.0335   -2.4113 H   0  0  0  0  0  0  0  0  0  0  0  0
   -3.9253    1.2662   -1.3246 H   0  0  0  0  0  0  0  0  0  0  0  0
   -4.8359    1.2460    0.2147 H   0  0  0  0  0  0  0  0  0  0  0  0
   -3.8208   -1.1367   -1.4473 H   0  0  0  0  0  0  0  0  0  0  0  0
   -3.4707   -0.4777    1.4390 H   0  0  0  0  0  0  0  0  0  0  0  0
   -1.5140   -0.7445   -0.8554 H   0  0  0  0  0  0  0  0  0  0  0  0
   -1.5047    1.7317   -0.9234 H   0  0  0  0  0  0  0  0  0  0  0  0
   -2.6310    1.9297    0.5140 H   0  0  0  0  0  0  0  0  0  0  0  0
   -1.1870    0.5993    2.0000 H   0  0  0  0  0  0  0  0  0  0  0  0
    1.1326    0.3520    2.5161 H   0  0  0  0  0  0  0  0  0  0  0  0
    3.5344    0.0724    1.8980 H   0  0  0  0  0  0  0  0  0  0  0  0
    5.4246    0.8057    1.0066 H   0  0  0  0  0  0  0  0  0  0  0  0
    5.1679   -0.9600    1.2157 H   0  0  0  0  0  0  0  0  0  0  0  0
    6.9594   -2.3964    0.4792 H   0  0  0  0  0  0  0  0  0  0  0  0
    9.2798   -2.6002   -0.3650 H   0  0  0  0  0  0  0  0  0  0  0  0
   10.4394   -0.6023   -1.3396 H   0  0  0  0  0  0  0  0  0  0  0  0
    9.2590    1.5492   -1.4488 H   0  0  0  0  0  0  0  0  0  0  0  0
    2.4712    0.0424   -2.1987 H   0  0  0  0  0  0  0  0  0  0  0  0
    0.0696    0.3233   -1.5584 H   0  0  0  0  0  0  0  0  0  0  0  0
   -4.9627   -2.2262    0.8429 H   0  0  0  0  0  0  0  0  0  0  0  0
   -5.6302   -2.2468   -0.8546 H   0  0  0  0  0  0  0  0  0  0  0  0
   -5.9900   -0.0800    1.2733 H   0  0  0  0  0  0  0  0  0  0  0  0
   -7.1728   -1.3773    0.9663 H   0  0  0  0  0  0  0  0  0  0  0  0
  1  2  1  0
  2  3  1  0
  3  4  1  0
  4  5  1  0
  5  6  1  0
  6  7  1  0
  7  8  1  0
  8  9  1  0
  9 10  1  0
 10 11  2  0
 11 12  1  0
 12 13  2  0
 13 14  1  0
 14 15  1  0
 15 16  1  0
 16 17  2  0
 17 18  1  0
 18 19  2  0
 19 20  1  0
 20 21  2  0
 21 22  1  0
 13 23  1  0
 23 24  2  0
  5 25  1  0
 25 26  1  0
 26  2  1  0
  9  7  1  0
 24 10  1  0
 21 16  1  0
  1 27  1  0
  1 28  1  0
  2 29  1  0
  3 30  1  0
  3 31  1  0
  4 32  1  0
  4 33  1  0
  5 34  1  0
  6 35  1  0
  7 36  1  6
  8 37  1  0
  8 38  1  0
  9 39  1  1
 11 40  1  0
 12 41  1  0
 15 42  1  0
 15 43  1  0
 17 44  1  0
 18 45  1  0
 19 46  1  0
 20 47  1  0
 23 48  1  0
 24 49  1  0
 25 50  1  0
 25 51  1  0
 26 52  1  0
 26 53  1  0
M  END
$$$$
