@<TRIPOS>MOLECULE
*****
 32 35 0 0 0
SMALL
GASTEIGER

@<TRIPOS>ATOM
      1 O          -1.1552    2.9312   -0.1983 O.2     1  UNL1       -0.4087
      2 N          -0.4837    1.7757   -0.1756 N.2     1  UNL1       -0.0851
      3 C          -0.8901    0.6079   -0.1392 C.2     1  UNL1        0.1331
      4 C          -0.2716   -0.6801   -0.1123 C.2     1  UNL1        0.0738
      5 N          -1.3556   -1.5896   -0.0744 N.pl3   1  UNL1       -0.3116
      6 C          -2.6260   -0.9509   -0.0758 C.ar    1  UNL1        0.0408
      7 C          -2.3222    0.4126   -0.1162 C.ar    1  UNL1        0.0265
      8 C          -3.4611    1.2229   -0.1238 C.ar    1  UNL1       -0.0506
      9 C          -4.7528    0.7599   -0.0953 C.ar    1  UNL1       -0.0610
     10 C          -4.9290   -0.6061   -0.0564 C.ar    1  UNL1       -0.0600
     11 C          -3.8886   -1.5038   -0.0452 C.ar    1  UNL1       -0.0399
     12 C           0.9845   -0.9892   -0.1197 C.2     1  UNL1        0.0692
     13 C           1.5316   -2.3338   -0.0904 C.2     1  UNL1        0.2508
     14 O           0.9275   -3.4341   -0.0532 O.2     1  UNL1       -0.2698
     15 N           2.9495   -2.2433   -0.1106 N.am    1  UNL1       -0.2809
     16 C           3.2157   -0.8304   -0.1519 C.ar    1  UNL1        0.0427
     17 C           2.0661   -0.0800   -0.1577 C.ar    1  UNL1        0.0102
     18 C           2.3003    1.2421   -0.1962 C.ar    1  UNL1       -0.0510
     19 C           3.5187    1.8458   -0.2277 C.ar    1  UNL1       -0.0471
     20 C           4.6749    1.0520   -0.2208 C.ar    1  UNL1        0.0197
     21 BR          6.4237    1.7984   -0.2627 Br      1  UNL1       -0.0502
     22 C           4.5168   -0.3160   -0.1820 C.ar    1  UNL1       -0.0259
     23 H          -1.1656    3.4651   -1.0569 H       1  UNL1        0.3278
     24 H          -1.2280   -2.6236   -0.0482 H       1  UNL1        0.1522
     25 H          -3.3623    2.2886   -0.1536 H       1  UNL1        0.0625
     26 H          -5.5999    1.4210   -0.1026 H       1  UNL1        0.0618
     27 H          -5.9220   -1.0100   -0.0333 H       1  UNL1        0.0618
     28 H          -4.0317   -2.5739   -0.0147 H       1  UNL1        0.0636
     29 H           3.6029   -3.0559   -0.0969 H       1  UNL1        0.1552
     30 H           1.5755    1.9885   -0.2072 H       1  UNL1        0.0625
     31 H           3.7557    2.9171   -0.2594 H       1  UNL1        0.0629
     32 H           5.4016   -0.9080   -0.1771 H       1  UNL1        0.0647
@<TRIPOS>BOND
     1     1     2    1
     2     2     3    2
     3     3     4    1
     4     4     5    1
     5     5     6    1
     6     6     7   ar
     7     7     8   ar
     8     8     9   ar
     9     9    10   ar
    10    10    11   ar
    11     4    12    2
    12    12    13    1
    13    13    14    2
    14    13    15   am
    15    15    16    1
    16    16    17   ar
    17    17    18   ar
    18    18    19   ar
    19    19    20   ar
    20    20    21    1
    21    20    22   ar
    22     7     3    1
    23    17    12    1
    24    11     6   ar
    25    22    16   ar
    26     1    23    1
    27     5    24    1
    28     8    25    1
    29     9    26    1
    30    10    27    1
    31    11    28    1
    32    15    29    1
    33    18    30    1
    34    19    31    1
    35    22    32    1
