@<TRIPOS>MOLECULE
*****
 58 61 0 0 0
SMALL
GASTEIGER

@<TRIPOS>ATOM
      1 C           7.1777   -0.6919   -1.8326 C.3     1  UNL1       -0.0253
      2 C           6.0947    0.1822   -1.2452 C.3     1  UNL1        0.1068
      3 C           5.4452    0.9739   -2.3464 C.3     1  UNL1       -0.0253
      4 C           6.7284    1.1160   -0.2333 C.3     1  UNL1       -0.0253
      5 O           5.1720   -0.6565   -0.5705 O.3     1  UNL1       -0.4447
      6 C           4.0480   -0.1757    0.0860 C.2     1  UNL1        0.4010
      7 O           3.8714    1.0818    0.0590 O.2     1  UNL1       -0.2265
      8 N           3.1314   -1.0382    0.7596 N.am    1  UNL1       -0.2767
      9 C           1.9904   -0.4246    1.4121 C.3     1  UNL1        0.0435
     10 C           2.0485   -0.8559    2.8835 C.3     1  UNL1       -0.0170
     11 C           0.5773   -0.9570    3.2957 C.3     1  UNL1        0.0196
     12 N          -0.1729   -0.7431    2.0967 N.am    1  UNL1       -0.2656
     13 C          -1.4958   -0.2975    1.9858 C.2     1  UNL1        0.4032
     14 O          -2.1438   -0.0418    3.0277 O.2     1  UNL1       -0.2262
     15 O          -2.1647   -0.1113    0.7882 O.3     1  UNL1       -0.4464
     16 C          -3.4911    0.3355    0.6784 C.3     1  UNL1        0.1103
     17 C          -3.6630    1.4751   -0.2758 C.3     1  UNL1       -0.0030
     18 C          -5.1401    1.7628   -0.4228 C.3     1  UNL1       -0.0440
     19 C          -5.9144    0.6019   -0.9610 C.3     1  UNL1       -0.0401
     20 C          -5.3331    0.2367   -2.3069 C.3     1  UNL1       -0.0473
     21 C          -3.8691   -0.0612   -2.1833 C.3     1  UNL1       -0.0401
     22 C          -3.0751    1.0645   -1.6064 C.3     1  UNL1       -0.0440
     23 C          -3.7159   -1.2540   -1.2441 C.3     1  UNL1       -0.0440
     24 C          -4.2752   -0.8483    0.1052 C.3     1  UNL1       -0.0030
     25 C          -5.7475   -0.5495    0.0304 C.3     1  UNL1       -0.0440
     26 C           0.6813   -1.0709    0.9902 C.3     1  UNL1        0.0364
     27 H           7.2181   -1.6357   -1.2832 H       1  UNL1        0.0268
     28 H           8.1502   -0.1588   -1.7255 H       1  UNL1        0.0268
     29 H           6.9895   -0.8088   -2.9141 H       1  UNL1        0.0268
     30 H           6.2528    1.4533   -2.9351 H       1  UNL1        0.0268
     31 H           4.9079    0.2800   -3.0240 H       1  UNL1        0.0268
     32 H           4.8009    1.7897   -1.9655 H       1  UNL1        0.0268
     33 H           6.1216    1.1211    0.6928 H       1  UNL1        0.0268
     34 H           7.7684    0.7817   -0.0063 H       1  UNL1        0.0268
     35 H           6.7861    2.1580   -0.6137 H       1  UNL1        0.0268
     36 H           3.2922   -2.0593    0.7706 H       1  UNL1        0.1523
     37 H           1.9764    0.6593    1.3012 H       1  UNL1        0.0515
     38 H           2.5032   -1.8651    2.9733 H       1  UNL1        0.0299
     39 H           2.6063   -0.1438    3.4994 H       1  UNL1        0.0299
     40 H           0.4198   -0.1822    4.0706 H       1  UNL1        0.0466
     41 H           0.3655   -1.9332    3.7805 H       1  UNL1        0.0466
     42 H          -3.9197    0.5155    1.6818 H       1  UNL1        0.0740
     43 H          -3.2042    2.4197    0.0827 H       1  UNL1        0.0337
     44 H          -5.2105    2.6001   -1.1776 H       1  UNL1        0.0272
     45 H          -5.5276    2.1457    0.5461 H       1  UNL1        0.0272
     46 H          -6.9633    0.8890   -1.0438 H       1  UNL1        0.0301
     47 H          -5.5447    1.0611   -3.0010 H       1  UNL1        0.0271
     48 H          -5.8389   -0.6849   -2.6630 H       1  UNL1        0.0271
     49 H          -3.4614   -0.3423   -3.1784 H       1  UNL1        0.0301
     50 H          -2.0487    0.6684   -1.3847 H       1  UNL1        0.0272
     51 H          -2.9901    1.9418   -2.2707 H       1  UNL1        0.0272
     52 H          -4.2671   -2.1247   -1.5957 H       1  UNL1        0.0272
     53 H          -2.6327   -1.4445   -1.1150 H       1  UNL1        0.0272
     54 H          -4.1652   -1.7446    0.7721 H       1  UNL1        0.0337
     55 H          -6.0737   -0.1785    1.0112 H       1  UNL1        0.0272
     56 H          -6.2597   -1.4474   -0.3136 H       1  UNL1        0.0272
     57 H           0.8455   -2.1582    0.8636 H       1  UNL1        0.0484
     58 H           0.3386   -0.6257    0.0319 H       1  UNL1        0.0484
@<TRIPOS>BOND
     1     1     2    1
     2     2     3    1
     3     2     4    1
     4     2     5    1
     5     5     6    1
     6     6     7    2
     7     6     8   am
     8     8     9    1
     9     9    10    1
    10    10    11    1
    11    11    12    1
    12    12    13   am
    13    13    14    2
    14    13    15    1
    15    15    16    1
    16    16    17    1
    17    17    18    1
    18    18    19    1
    19    19    20    1
    20    20    21    1
    21    21    22    1
    22    21    23    1
    23    23    24    1
    24    24    25    1
    25    12    26    1
    26    26     9    1
    27    24    16    1
    28    22    17    1
    29    25    19    1
    30     1    27    1
    31     1    28    1
    32     1    29    1
    33     3    30    1
    34     3    31    1
    35     3    32    1
    36     4    33    1
    37     4    34    1
    38     4    35    1
    39     8    36    1
    40     9    37    1
    41    10    38    1
    42    10    39    1
    43    11    40    1
    44    11    41    1
    45    16    42    1
    46    17    43    1
    47    18    44    1
    48    18    45    1
    49    19    46    1
    50    20    47    1
    51    20    48    1
    52    21    49    1
    53    22    50    1
    54    22    51    1
    55    23    52    1
    56    23    53    1
    57    24    54    1
    58    25    55    1
    59    25    56    1
    60    26    57    1
    61    26    58    1
