
     RDKit          3D

 58 61  0  0  0  0  0  0  0  0999 V2000
    7.1777   -0.6919   -1.8326 C   0  0  0  0  0  0  0  0  0  0  0  0
    6.0947    0.1822   -1.2452 C   0  0  0  0  0  0  0  0  0  0  0  0
    5.4452    0.9739   -2.3464 C   0  0  0  0  0  0  0  0  0  0  0  0
    6.7284    1.1160   -0.2333 C   0  0  0  0  0  0  0  0  0  0  0  0
    5.1720   -0.6565   -0.5705 O   0  0  0  0  0  0  0  0  0  0  0  0
    4.0480   -0.1757    0.0860 C   0  0  0  0  0  0  0  0  0  0  0  0
    3.8714    1.0818    0.0590 O   0  0  0  0  0  0  0  0  0  0  0  0
    3.1314   -1.0382    0.7596 N   0  0  0  0  0  0  0  0  0  0  0  0
    1.9904   -0.4246    1.4121 C   0  0  2  0  0  0  0  0  0  0  0  0
    2.0485   -0.8559    2.8835 C   0  0  0  0  0  0  0  0  0  0  0  0
    0.5773   -0.9570    3.2957 C   0  0  0  0  0  0  0  0  0  0  0  0
   -0.1729   -0.7431    2.0967 N   0  0  0  0  0  0  0  0  0  0  0  0
   -1.4958   -0.2975    1.9858 C   0  0  0  0  0  0  0  0  0  0  0  0
   -2.1438   -0.0418    3.0277 O   0  0  0  0  0  0  0  0  0  0  0  0
   -2.1647   -0.1113    0.7882 O   0  0  0  0  0  0  0  0  0  0  0  0
   -3.4911    0.3355    0.6784 C   0  0  0  0  0  0  0  0  0  0  0  0
   -3.6630    1.4751   -0.2758 C   0  0  0  0  0  0  0  0  0  0  0  0
   -5.1401    1.7628   -0.4228 C   0  0  0  0  0  0  0  0  0  0  0  0
   -5.9144    0.6019   -0.9610 C   0  0  0  0  0  0  0  0  0  0  0  0
   -5.3331    0.2367   -2.3069 C   0  0  0  0  0  0  0  0  0  0  0  0
   -3.8691   -0.0612   -2.1833 C   0  0  0  0  0  0  0  0  0  0  0  0
   -3.0751    1.0645   -1.6064 C   0  0  0  0  0  0  0  0  0  0  0  0
   -3.7159   -1.2540   -1.2441 C   0  0  0  0  0  0  0  0  0  0  0  0
   -4.2752   -0.8483    0.1052 C   0  0  0  0  0  0  0  0  0  0  0  0
   -5.7475   -0.5495    0.0304 C   0  0  0  0  0  0  0  0  0  0  0  0
    0.6813   -1.0709    0.9902 C   0  0  0  0  0  0  0  0  0  0  0  0
    7.2181   -1.6357   -1.2832 H   0  0  0  0  0  0  0  0  0  0  0  0
    8.1502   -0.1588   -1.7255 H   0  0  0  0  0  0  0  0  0  0  0  0
    6.9895   -0.8088   -2.9141 H   0  0  0  0  0  0  0  0  0  0  0  0
    6.2528    1.4533   -2.9351 H   0  0  0  0  0  0  0  0  0  0  0  0
    4.9079    0.2800   -3.0240 H   0  0  0  0  0  0  0  0  0  0  0  0
    4.8009    1.7897   -1.9655 H   0  0  0  0  0  0  0  0  0  0  0  0
    6.1216    1.1211    0.6928 H   0  0  0  0  0  0  0  0  0  0  0  0
    7.7684    0.7817   -0.0063 H   0  0  0  0  0  0  0  0  0  0  0  0
    6.7861    2.1580   -0.6137 H   0  0  0  0  0  0  0  0  0  0  0  0
    3.2922   -2.0593    0.7706 H   0  0  0  0  0  0  0  0  0  0  0  0
    1.9764    0.6593    1.3012 H   0  0  0  0  0  0  0  0  0  0  0  0
    2.5032   -1.8651    2.9733 H   0  0  0  0  0  0  0  0  0  0  0  0
    2.6063   -0.1438    3.4994 H   0  0  0  0  0  0  0  0  0  0  0  0
    0.4198   -0.1822    4.0706 H   0  0  0  0  0  0  0  0  0  0  0  0
    0.3655   -1.9332    3.7805 H   0  0  0  0  0  0  0  0  0  0  0  0
   -3.9197    0.5155    1.6818 H   0  0  0  0  0  0  0  0  0  0  0  0
   -3.2042    2.4197    0.0827 H   0  0  0  0  0  0  0  0  0  0  0  0
   -5.2105    2.6001   -1.1776 H   0  0  0  0  0  0  0  0  0  0  0  0
   -5.5276    2.1457    0.5461 H   0  0  0  0  0  0  0  0  0  0  0  0
   -6.9633    0.8890   -1.0438 H   0  0  0  0  0  0  0  0  0  0  0  0
   -5.5447    1.0611   -3.0010 H   0  0  0  0  0  0  0  0  0  0  0  0
   -5.8389   -0.6849   -2.6630 H   0  0  0  0  0  0  0  0  0  0  0  0
   -3.4614   -0.3423   -3.1784 H   0  0  0  0  0  0  0  0  0  0  0  0
   -2.0487    0.6684   -1.3847 H   0  0  0  0  0  0  0  0  0  0  0  0
   -2.9901    1.9418   -2.2707 H   0  0  0  0  0  0  0  0  0  0  0  0
   -4.2671   -2.1247   -1.5957 H   0  0  0  0  0  0  0  0  0  0  0  0
   -2.6327   -1.4445   -1.1150 H   0  0  0  0  0  0  0  0  0  0  0  0
   -4.1652   -1.7446    0.7721 H   0  0  0  0  0  0  0  0  0  0  0  0
   -6.0737   -0.1785    1.0112 H   0  0  0  0  0  0  0  0  0  0  0  0
   -6.2597   -1.4474   -0.3136 H   0  0  0  0  0  0  0  0  0  0  0  0
    0.8455   -2.1582    0.8636 H   0  0  0  0  0  0  0  0  0  0  0  0
    0.3386   -0.6257    0.0319 H   0  0  0  0  0  0  0  0  0  0  0  0
  1  2  1  0
  2  3  1  0
  2  4  1  0
  2  5  1  0
  5  6  1  0
  6  7  2  0
  6  8  1  0
  8  9  1  0
  9 10  1  0
 10 11  1  0
 11 12  1  0
 12 13  1  0
 13 14  2  0
 13 15  1  0
 15 16  1  0
 16 17  1  0
 17 18  1  0
 18 19  1  0
 19 20  1  0
 20 21  1  0
 21 22  1  0
 21 23  1  0
 23 24  1  0
 24 25  1  0
 12 26  1  0
 26  9  1  0
 24 16  1  0
 22 17  1  0
 25 19  1  0
  1 27  1  0
  1 28  1  0
  1 29  1  0
  3 30  1  0
  3 31  1  0
  3 32  1  0
  4 33  1  0
  4 34  1  0
  4 35  1  0
  8 36  1  0
  9 37  1  1
 10 38  1  0
 10 39  1  0
 11 40  1  0
 11 41  1  0
 16 42  1  0
 17 43  1  0
 18 44  1  0
 18 45  1  0
 19 46  1  0
 20 47  1  0
 20 48  1  0
 21 49  1  0
 22 50  1  0
 22 51  1  0
 23 52  1  0
 23 53  1  0
 24 54  1  0
 25 55  1  0
 25 56  1  0
 26 57  1  0
 26 58  1  0
M  END
$$$$
