
     RDKit          3D

 77 79  0  0  0  0  0  0  0  0999 V2000
    6.8557    0.0864   -2.4114 C   0  0  0  0  0  0  0  0  0  0  0  0
    6.8311   -1.0308   -1.3909 C   0  0  0  0  0  0  0  0  0  0  0  0
    7.6266   -0.8043   -0.2592 N   0  0  0  0  0  0  0  0  0  0  0  0
    9.0309   -0.7951   -0.4544 C   0  0  0  0  0  0  0  0  0  0  0  0
    9.8286   -0.5491    0.7929 C   0  0  0  0  0  0  0  0  0  0  0  0
    7.1153   -0.8772    1.0324 C   0  0  0  0  0  0  0  0  0  0  0  0
    6.1626    0.1437    1.5199 C   0  0  0  0  0  0  0  0  0  0  0  0
    4.8677    0.2691    0.7861 C   0  0  0  0  0  0  0  0  0  0  0  0
    4.0181    1.3056    1.3666 N   0  0  0  0  0  0  0  0  0  0  0  0
    2.7252    1.4800    0.8192 C   0  0  0  0  0  0  0  0  0  0  0  0
    1.5903    0.9536    1.4025 C   0  0  0  0  0  0  0  0  0  0  0  0
    0.3432    1.1250    0.8550 C   0  0  0  0  0  0  0  0  0  0  0  0
   -0.7737    0.6074    1.4394 N   0  0  0  0  0  0  0  0  0  0  0  0
   -2.0043    0.7857    0.8930 C   0  0  0  0  0  0  0  0  0  0  0  0
   -3.1248    0.2234    1.5354 N   0  0  0  0  0  0  0  0  0  0  0  0
   -3.6619   -1.0690    1.2656 C   0  0  0  0  0  0  0  0  0  0  0  0
   -3.1161   -1.7562    0.3798 O   0  0  0  0  0  0  0  0  0  0  0  0
   -4.7776   -1.5932    1.9588 N   0  0  0  0  0  0  0  0  0  0  0  0
   -5.3231   -2.8855    1.6919 C   0  0  0  0  0  0  0  0  0  0  0  0
   -6.5042   -3.1586    2.6250 C   0  0  0  0  0  0  0  0  0  0  0  0
   -5.8660   -2.8618    0.2744 C   0  0  0  0  0  0  0  0  0  0  0  0
   -4.3727   -4.0285    1.8161 C   0  0  0  0  0  0  0  0  0  0  0  0
   -2.1382    1.4929   -0.2599 C   0  0  0  0  0  0  0  0  0  0  0  0
   -3.4382    1.6995   -0.8496 C   0  0  0  0  0  0  0  0  0  0  0  0
   -4.5402    2.1951   -0.1937 C   0  0  0  0  0  0  0  0  0  0  0  0
   -5.7191    2.3274   -0.8767 C   0  0  0  0  0  0  0  0  0  0  0  0
   -6.8477    2.8234   -0.2507 O   0  0  0  0  0  0  0  0  0  0  0  0
   -6.7730    3.1942    1.0996 C   0  0  0  0  0  0  0  0  0  0  0  0
   -5.8123    1.9729   -2.2007 C   0  0  0  0  0  0  0  0  0  0  0  0
   -4.7263    1.4711   -2.8938 C   0  0  0  0  0  0  0  0  0  0  0  0
   -4.8223    1.1078   -4.2504 O   0  0  0  0  0  0  0  0  0  0  0  0
   -3.6571    0.6016   -4.8793 C   0  0  0  0  0  0  0  0  0  0  0  0
   -3.5579    1.3448   -2.2005 C   0  0  0  0  0  0  0  0  0  0  0  0
   -1.0117    2.0411   -0.8909 C   0  0  0  0  0  0  0  0  0  0  0  0
    0.2270    1.8422   -0.3091 C   0  0  0  0  0  0  0  0  0  0  0  0
    1.3803    2.3590   -0.8737 C   0  0  0  0  0  0  0  0  0  0  0  0
    2.5938    2.1734   -0.3096 N   0  0  0  0  0  0  0  0  0  0  0  0
    5.8262    0.3209   -2.7391 H   0  0  0  0  0  0  0  0  0  0  0  0
    7.2760    1.0300   -2.0044 H   0  0  0  0  0  0  0  0  0  0  0  0
    7.4329   -0.1597   -3.3226 H   0  0  0  0  0  0  0  0  0  0  0  0
    7.3008   -1.9127   -1.9424 H   0  0  0  0  0  0  0  0  0  0  0  0
    5.8248   -1.3740   -1.1628 H   0  0  0  0  0  0  0  0  0  0  0  0
    9.3281   -1.8191   -0.8307 H   0  0  0  0  0  0  0  0  0  0  0  0
    9.3266   -0.1073   -1.3001 H   0  0  0  0  0  0  0  0  0  0  0  0
    9.9257   -1.4816    1.3851 H   0  0  0  0  0  0  0  0  0  0  0  0
   10.8783   -0.3117    0.4458 H   0  0  0  0  0  0  0  0  0  0  0  0
    9.5093    0.3210    1.3743 H   0  0  0  0  0  0  0  0  0  0  0  0
    6.6147   -1.8960    1.1466 H   0  0  0  0  0  0  0  0  0  0  0  0
    7.9872   -0.9768    1.7537 H   0  0  0  0  0  0  0  0  0  0  0  0
    5.8826   -0.1633    2.5750 H   0  0  0  0  0  0  0  0  0  0  0  0
    6.6462    1.1482    1.6880 H   0  0  0  0  0  0  0  0  0  0  0  0
    4.2694   -0.6624    0.7930 H   0  0  0  0  0  0  0  0  0  0  0  0
    5.0324    0.6469   -0.2710 H   0  0  0  0  0  0  0  0  0  0  0  0
    4.3156    1.9075    2.1493 H   0  0  0  0  0  0  0  0  0  0  0  0
    1.6866    0.3896    2.3178 H   0  0  0  0  0  0  0  0  0  0  0  0
   -3.6245    0.7671    2.2931 H   0  0  0  0  0  0  0  0  0  0  0  0
   -5.2150   -0.9804    2.7093 H   0  0  0  0  0  0  0  0  0  0  0  0
   -7.3494   -3.6214    2.0811 H   0  0  0  0  0  0  0  0  0  0  0  0
   -6.1872   -3.7733    3.4892 H   0  0  0  0  0  0  0  0  0  0  0  0
   -6.8367   -2.1659    3.0184 H   0  0  0  0  0  0  0  0  0  0  0  0
   -6.6706   -3.5999    0.1498 H   0  0  0  0  0  0  0  0  0  0  0  0
   -5.0437   -3.0847   -0.4370 H   0  0  0  0  0  0  0  0  0  0  0  0
   -6.3074   -1.8666    0.0856 H   0  0  0  0  0  0  0  0  0  0  0  0
   -3.7028   -4.1741    0.9523 H   0  0  0  0  0  0  0  0  0  0  0  0
   -3.7593   -4.0071    2.7393 H   0  0  0  0  0  0  0  0  0  0  0  0
   -4.9869   -4.9670    1.8969 H   0  0  0  0  0  0  0  0  0  0  0  0
   -4.4169    2.4637    0.8424 H   0  0  0  0  0  0  0  0  0  0  0  0
   -6.4366    2.3146    1.6809 H   0  0  0  0  0  0  0  0  0  0  0  0
   -6.0292    4.0204    1.2729 H   0  0  0  0  0  0  0  0  0  0  0  0
   -7.7691    3.5828    1.4510 H   0  0  0  0  0  0  0  0  0  0  0  0
   -6.7454    2.0766   -2.7448 H   0  0  0  0  0  0  0  0  0  0  0  0
   -2.8893    1.3920   -4.8501 H   0  0  0  0  0  0  0  0  0  0  0  0
   -3.8422    0.2806   -5.9099 H   0  0  0  0  0  0  0  0  0  0  0  0
   -3.3026   -0.2506   -4.2559 H   0  0  0  0  0  0  0  0  0  0  0  0
   -2.7017    0.9574   -2.7225 H   0  0  0  0  0  0  0  0  0  0  0  0
   -1.1114    2.5998   -1.8007 H   0  0  0  0  0  0  0  0  0  0  0  0
    1.2363    2.9194   -1.7959 H   0  0  0  0  0  0  0  0  0  0  0  0
  1  2  1  0
  2  3  1  0
  3  4  1  0
  4  5  1  0
  3  6  1  0
  6  7  1  0
  7  8  1  0
  8  9  1  0
  9 10  1  0
 10 11  2  0
 11 12  1  0
 12 13  2  0
 13 14  1  0
 14 15  1  0
 15 16  1  0
 16 17  2  0
 16 18  1  0
 18 19  1  0
 19 20  1  0
 19 21  1  0
 19 22  1  0
 14 23  2  0
 23 24  1  0
 24 25  2  0
 25 26  1  0
 26 27  1  0
 27 28  1  0
 26 29  2  0
 29 30  1  0
 30 31  1  0
 31 32  1  0
 30 33  2  0
 23 34  1  0
 34 35  2  0
 35 36  1  0
 36 37  2  0
 37 10  1  0
 35 12  1  0
 33 24  1  0
  1 38  1  0
  1 39  1  0
  1 40  1  0
  2 41  1  0
  2 42  1  0
  4 43  1  0
  4 44  1  0
  5 45  1  0
  5 46  1  0
  5 47  1  0
  6 48  1  0
  6 49  1  0
  7 50  1  0
  7 51  1  0
  8 52  1  0
  8 53  1  0
  9 54  1  0
 11 55  1  0
 15 56  1  0
 18 57  1  0
 20 58  1  0
 20 59  1  0
 20 60  1  0
 21 61  1  0
 21 62  1  0
 21 63  1  0
 22 64  1  0
 22 65  1  0
 22 66  1  0
 25 67  1  0
 28 68  1  0
 28 69  1  0
 28 70  1  0
 29 71  1  0
 32 72  1  0
 32 73  1  0
 32 74  1  0
 33 75  1  0
 34 76  1  0
 36 77  1  0
M  END
$$$$
