@<TRIPOS>MOLECULE
*****
 77 79 0 0 0
SMALL
GASTEIGER

@<TRIPOS>ATOM
      1 C           6.8557    0.0864   -2.4114 C.3     1  UNL1       -0.0524
      2 C           6.8311   -1.0308   -1.3909 C.3     1  UNL1       -0.0040
      3 N           7.6266   -0.8043   -0.2592 N.3     1  UNL1       -0.3028
      4 C           9.0309   -0.7951   -0.4544 C.3     1  UNL1       -0.0040
      5 C           9.8286   -0.5491    0.7929 C.3     1  UNL1       -0.0524
      6 C           7.1153   -0.8772    1.0324 C.3     1  UNL1        0.0003
      7 C           6.1626    0.1437    1.5199 C.3     1  UNL1       -0.0246
      8 C           4.8677    0.2691    0.7861 C.3     1  UNL1        0.0116
      9 N           4.0181    1.3056    1.3666 N.pl3   1  UNL1       -0.3290
     10 C           2.7252    1.4800    0.8192 C.ar    1  UNL1        0.1207
     11 C           1.5903    0.9536    1.4025 C.ar    1  UNL1        0.0041
     12 C           0.3432    1.1250    0.8550 C.ar    1  UNL1        0.0778
     13 N          -0.7737    0.6074    1.4394 N.ar    1  UNL1       -0.2310
     14 C          -2.0043    0.7857    0.8930 C.ar    1  UNL1        0.1345
     15 N          -3.1248    0.2234    1.5354 N.am    1  UNL1       -0.2537
     16 C          -3.6619   -1.0690    1.2656 C.2     1  UNL1        0.3053
     17 O          -3.1161   -1.7562    0.3798 O.2     1  UNL1       -0.2525
     18 N          -4.7776   -1.5932    1.9588 N.am    1  UNL1       -0.2944
     19 C          -5.3231   -2.8855    1.6919 C.3     1  UNL1        0.0276
     20 C          -6.5042   -3.1586    2.6250 C.3     1  UNL1       -0.0442
     21 C          -5.8660   -2.8618    0.2744 C.3     1  UNL1       -0.0442
     22 C          -4.3727   -4.0285    1.8161 C.3     1  UNL1       -0.0442
     23 C          -2.1382    1.4929   -0.2599 C.ar    1  UNL1        0.0232
     24 C          -3.4382    1.6995   -0.8496 C.ar    1  UNL1       -0.0077
     25 C          -4.5402    2.1951   -0.1937 C.ar    1  UNL1       -0.0119
     26 C          -5.7191    2.3274   -0.8767 C.ar    1  UNL1        0.1241
     27 O          -6.8477    2.8234   -0.2507 O.3     1  UNL1       -0.4950
     28 C          -6.7730    3.1942    1.0996 C.3     1  UNL1        0.0788
     29 C          -5.8123    1.9729   -2.2007 C.ar    1  UNL1        0.0218
     30 C          -4.7263    1.4711   -2.8938 C.ar    1  UNL1        0.1241
     31 O          -4.8223    1.1078   -4.2504 O.3     1  UNL1       -0.4950
     32 C          -3.6571    0.6016   -4.8793 C.3     1  UNL1        0.0788
     33 C          -3.5579    1.3448   -2.2005 C.ar    1  UNL1       -0.0119
     34 C          -1.0117    2.0411   -0.8909 C.ar    1  UNL1       -0.0401
     35 C           0.2270    1.8422   -0.3091 C.ar    1  UNL1        0.0193
     36 C           1.3803    2.3590   -0.8737 C.ar    1  UNL1        0.0389
     37 N           2.5938    2.1734   -0.3096 N.ar    1  UNL1       -0.2398
     38 H           5.8262    0.3209   -2.7391 H       1  UNL1        0.0242
     39 H           7.2760    1.0300   -2.0044 H       1  UNL1        0.0242
     40 H           7.4329   -0.1597   -3.3226 H       1  UNL1        0.0242
     41 H           7.3008   -1.9127   -1.9424 H       1  UNL1        0.0424
     42 H           5.8248   -1.3740   -1.1628 H       1  UNL1        0.0424
     43 H           9.3281   -1.8191   -0.8307 H       1  UNL1        0.0424
     44 H           9.3266   -0.1073   -1.3001 H       1  UNL1        0.0424
     45 H           9.9257   -1.4816    1.3851 H       1  UNL1        0.0242
     46 H          10.8783   -0.3117    0.4458 H       1  UNL1        0.0242
     47 H           9.5093    0.3210    1.3743 H       1  UNL1        0.0242
     48 H           6.6147   -1.8960    1.1466 H       1  UNL1        0.0427
     49 H           7.9872   -0.9768    1.7537 H       1  UNL1        0.0427
     50 H           5.8826   -0.1633    2.5750 H       1  UNL1        0.0293
     51 H           6.6462    1.1482    1.6880 H       1  UNL1        0.0293
     52 H           4.2694   -0.6624    0.7930 H       1  UNL1        0.0462
     53 H           5.0324    0.6469   -0.2710 H       1  UNL1        0.0462
     54 H           4.3156    1.9075    2.1493 H       1  UNL1        0.1475
     55 H           1.6866    0.3896    2.3178 H       1  UNL1        0.0673
     56 H          -3.6245    0.7671    2.2931 H       1  UNL1        0.1578
     57 H          -5.2150   -0.9804    2.7093 H       1  UNL1        0.1508
     58 H          -7.3494   -3.6214    2.0811 H       1  UNL1        0.0250
     59 H          -6.1872   -3.7733    3.4892 H       1  UNL1        0.0250
     60 H          -6.8367   -2.1659    3.0184 H       1  UNL1        0.0250
     61 H          -6.6706   -3.5999    0.1498 H       1  UNL1        0.0250
     62 H          -5.0437   -3.0847   -0.4370 H       1  UNL1        0.0250
     63 H          -6.3074   -1.8666    0.0856 H       1  UNL1        0.0250
     64 H          -3.7028   -4.1741    0.9523 H       1  UNL1        0.0250
     65 H          -3.7593   -4.0071    2.7393 H       1  UNL1        0.0250
     66 H          -4.9869   -4.9670    1.8969 H       1  UNL1        0.0250
     67 H          -4.4169    2.4637    0.8424 H       1  UNL1        0.0660
     68 H          -6.4366    2.3146    1.6809 H       1  UNL1        0.0660
     69 H          -6.0292    4.0204    1.2729 H       1  UNL1        0.0660
     70 H          -7.7691    3.5828    1.4510 H       1  UNL1        0.0660
     71 H          -6.7454    2.0766   -2.7448 H       1  UNL1        0.0691
     72 H          -2.8893    1.3920   -4.8501 H       1  UNL1        0.0660
     73 H          -3.8422    0.2806   -5.9099 H       1  UNL1        0.0660
     74 H          -3.3026   -0.2506   -4.2559 H       1  UNL1        0.0660
     75 H          -2.7017    0.9574   -2.7225 H       1  UNL1        0.0660
     76 H          -1.1114    2.5998   -1.8007 H       1  UNL1        0.0632
     77 H           1.2363    2.9194   -1.7959 H       1  UNL1        0.0837
@<TRIPOS>BOND
     1     1     2    1
     2     2     3    1
     3     3     4    1
     4     4     5    1
     5     3     6    1
     6     6     7    1
     7     7     8    1
     8     8     9    1
     9     9    10    1
    10    10    11   ar
    11    11    12   ar
    12    12    13   ar
    13    13    14   ar
    14    14    15    1
    15    15    16   am
    16    16    17    2
    17    16    18   am
    18    18    19    1
    19    19    20    1
    20    19    21    1
    21    19    22    1
    22    14    23   ar
    23    23    24    1
    24    24    25   ar
    25    25    26   ar
    26    26    27    1
    27    27    28    1
    28    26    29   ar
    29    29    30   ar
    30    30    31    1
    31    31    32    1
    32    30    33   ar
    33    23    34   ar
    34    34    35   ar
    35    35    36   ar
    36    36    37   ar
    37    37    10   ar
    38    35    12   ar
    39    33    24   ar
    40     1    38    1
    41     1    39    1
    42     1    40    1
    43     2    41    1
    44     2    42    1
    45     4    43    1
    46     4    44    1
    47     5    45    1
    48     5    46    1
    49     5    47    1
    50     6    48    1
    51     6    49    1
    52     7    50    1
    53     7    51    1
    54     8    52    1
    55     8    53    1
    56     9    54    1
    57    11    55    1
    58    15    56    1
    59    18    57    1
    60    20    58    1
    61    20    59    1
    62    20    60    1
    63    21    61    1
    64    21    62    1
    65    21    63    1
    66    22    64    1
    67    22    65    1
    68    22    66    1
    69    25    67    1
    70    28    68    1
    71    28    69    1
    72    28    70    1
    73    29    71    1
    74    32    72    1
    75    32    73    1
    76    32    74    1
    77    33    75    1
    78    34    76    1
    79    36    77    1
