@<TRIPOS>MOLECULE
*****
 72 77 0 0 0
SMALL
GASTEIGER

@<TRIPOS>ATOM
      1 C          -9.5917    1.9374   -0.3458 C.3     1  UNL1        0.0032
      2 N          -8.1742    1.6771   -0.4888 N.am    1  UNL1       -0.3024
      3 C          -7.5855    1.5413   -1.8255 C.3     1  UNL1        0.0032
      4 C          -7.3869    1.5598    0.6826 C.2     1  UNL1        0.2627
      5 O          -7.9090    1.6795    1.8041 O.2     1  UNL1       -0.2684
      6 C          -5.9601    1.2972    0.5409 C.ar    1  UNL1        0.1070
      7 C          -5.1132    2.1229   -0.1364 C.ar    1  UNL1       -0.0209
      8 C          -3.8764    1.5318   -0.0356 C.ar    1  UNL1        0.0378
      9 C          -2.6444    1.9455   -0.5413 C.ar    1  UNL1        0.0419
     10 N          -1.5952    1.1846   -0.2961 N.ar    1  UNL1       -0.2219
     11 C          -1.6807    0.0500    0.4103 C.ar    1  UNL1        0.2224
     12 N          -0.5391   -0.7219    0.6483 N.pl3   1  UNL1       -0.2684
     13 C           0.7703   -0.4704    0.2202 C.ar    1  UNL1        0.1251
     14 C           1.1954    0.5879   -0.5349 C.ar    1  UNL1       -0.0197
     15 C           2.5202    0.7984   -0.9339 C.ar    1  UNL1       -0.0354
     16 C           3.4641   -0.1153   -0.5452 C.ar    1  UNL1        0.0578
     17 N           4.8414    0.0249   -0.9118 N.am    1  UNL1       -0.2320
     18 C           5.9037    0.7238   -0.2059 C.3     1  UNL1        0.0630
     19 C           7.1424    0.1008   -0.7517 C.3     1  UNL1        0.1324
     20 C           7.5886   -1.1166    0.0184 C.3     1  UNL1       -0.0100
     21 C           8.3035   -0.6271    1.2572 C.3     1  UNL1       -0.0368
     22 C           9.7219   -0.2335    1.0213 C.3     1  UNL1       -0.0040
     23 N          10.1924   -0.4294   -0.3116 N.3     1  UNL1       -0.3158
     24 C           9.5155    0.3235   -1.3095 C.3     1  UNL1       -0.0004
     25 C           8.3078    1.0666   -0.7940 C.3     1  UNL1        0.0013
     26 O           6.8076   -0.2667   -2.0500 O.3     1  UNL1       -0.4418
     27 C           5.4445   -0.5129   -2.0787 C.2     1  UNL1        0.4079
     28 O           4.8683   -1.1250   -3.0173 O.2     1  UNL1       -0.2259
     29 C           3.0259   -1.1783    0.2154 C.ar    1  UNL1        0.0512
     30 N           1.7651   -1.3583    0.5823 N.ar    1  UNL1       -0.2383
     31 N          -2.8890   -0.3570    0.9067 N.ar    1  UNL1       -0.1962
     32 C          -4.0042    0.3713    0.6949 C.ar    1  UNL1        0.1466
     33 N          -5.2862    0.2216    1.0527 N.ar    1  UNL1       -0.3180
     34 C          -5.8944   -0.8097    1.8056 C.3     1  UNL1        0.0366
     35 C          -7.0280   -1.5021    1.0706 C.3     1  UNL1       -0.0320
     36 C          -6.2850   -2.2634    0.0015 C.3     1  UNL1       -0.0511
     37 C          -5.0715   -2.7816    0.7149 C.3     1  UNL1       -0.0511
     38 C          -4.9911   -1.9821    2.0258 C.3     1  UNL1       -0.0320
     39 H         -10.0247    1.0629    0.1816 H       1  UNL1        0.0428
     40 H          -9.7625    2.8250    0.2928 H       1  UNL1        0.0428
     41 H         -10.0744    2.0162   -1.3373 H       1  UNL1        0.0428
     42 H          -6.6385    0.9800   -1.6941 H       1  UNL1        0.0428
     43 H          -7.4432    2.5492   -2.2580 H       1  UNL1        0.0428
     44 H          -8.3212    0.9839   -2.4393 H       1  UNL1        0.0428
     45 H          -5.3462    3.0631   -0.6580 H       1  UNL1        0.0647
     46 H          -2.6098    2.8815   -1.1163 H       1  UNL1        0.0838
     47 H          -0.7000   -1.6074    1.2277 H       1  UNL1        0.1564
     48 H           0.4759    1.3337   -0.8638 H       1  UNL1        0.0652
     49 H           2.7838    1.6724   -1.5407 H       1  UNL1        0.0638
     50 H           5.9256    1.8072   -0.4273 H       1  UNL1        0.0509
     51 H           5.7931    0.5565    0.8948 H       1  UNL1        0.0509
     52 H           6.6635   -1.6499    0.3528 H       1  UNL1        0.0305
     53 H           8.1906   -1.8214   -0.5570 H       1  UNL1        0.0305
     54 H           8.1852   -1.4223    2.0361 H       1  UNL1        0.0279
     55 H           7.7135    0.2444    1.6640 H       1  UNL1        0.0279
     56 H          10.3569   -0.8841    1.6883 H       1  UNL1        0.0424
     57 H           9.9510    0.8087    1.3484 H       1  UNL1        0.0424
     58 H          10.4756   -1.3797   -0.5591 H       1  UNL1        0.1219
     59 H          10.2080    1.0860   -1.7275 H       1  UNL1        0.0425
     60 H           9.1706   -0.3078   -2.1703 H       1  UNL1        0.0425
     61 H           8.4927    1.5827    0.1453 H       1  UNL1        0.0317
     62 H           8.0586    1.8370   -1.5635 H       1  UNL1        0.0317
     63 H           3.8258   -1.8889    0.5039 H       1  UNL1        0.0849
     64 H          -6.2445   -0.4376    2.8068 H       1  UNL1        0.0528
     65 H          -7.4626   -2.2326    1.7752 H       1  UNL1        0.0285
     66 H          -7.8126   -0.8558    0.7075 H       1  UNL1        0.0285
     67 H          -6.9440   -3.1216   -0.2825 H       1  UNL1        0.0266
     68 H          -6.0358   -1.6237   -0.8780 H       1  UNL1        0.0266
     69 H          -5.1688   -3.8588    0.9751 H       1  UNL1        0.0266
     70 H          -4.1774   -2.6844    0.0992 H       1  UNL1        0.0266
     71 H          -3.9555   -1.7961    2.2373 H       1  UNL1        0.0285
     72 H          -5.4216   -2.6129    2.8579 H       1  UNL1        0.0285
@<TRIPOS>BOND
     1     1     2    1
     2     2     3    1
     3     2     4   am
     4     4     5    2
     5     4     6    1
     6     6     7   ar
     7     7     8   ar
     8     8     9   ar
     9     9    10   ar
    10    10    11   ar
    11    11    12    1
    12    12    13    1
    13    13    14   ar
    14    14    15   ar
    15    15    16   ar
    16    16    17    1
    17    17    18    1
    18    18    19    1
    19    19    20    1
    20    20    21    1
    21    21    22    1
    22    22    23    1
    23    23    24    1
    24    24    25    1
    25    19    26    1
    26    26    27    1
    27    27    28    2
    28    16    29   ar
    29    29    30   ar
    30    11    31   ar
    31    31    32   ar
    32    32    33   ar
    33    33    34    1
    34    34    35    1
    35    35    36    1
    36    36    37    1
    37    37    38    1
    38    33     6   ar
    39    38    34    1
    40    32     8   ar
    41    30    13   ar
    42    27    17   am
    43    25    19    1
    44     1    39    1
    45     1    40    1
    46     1    41    1
    47     3    42    1
    48     3    43    1
    49     3    44    1
    50     7    45    1
    51     9    46    1
    52    12    47    1
    53    14    48    1
    54    15    49    1
    55    18    50    1
    56    18    51    1
    57    20    52    1
    58    20    53    1
    59    21    54    1
    60    21    55    1
    61    22    56    1
    62    22    57    1
    63    23    58    1
    64    24    59    1
    65    24    60    1
    66    25    61    1
    67    25    62    1
    68    29    63    1
    69    34    64    1
    70    35    65    1
    71    35    66    1
    72    36    67    1
    73    36    68    1
    74    37    69    1
    75    37    70    1
    76    38    71    1
    77    38    72    1
