
     RDKit          3D

 72 77  0  0  0  0  0  0  0  0999 V2000
   -9.5917    1.9374   -0.3458 C   0  0  0  0  0  0  0  0  0  0  0  0
   -8.1742    1.6771   -0.4888 N   0  0  0  0  0  0  0  0  0  0  0  0
   -7.5855    1.5413   -1.8255 C   0  0  0  0  0  0  0  0  0  0  0  0
   -7.3869    1.5598    0.6826 C   0  0  0  0  0  0  0  0  0  0  0  0
   -7.9090    1.6795    1.8041 O   0  0  0  0  0  0  0  0  0  0  0  0
   -5.9601    1.2972    0.5409 C   0  0  0  0  0  0  0  0  0  0  0  0
   -5.1132    2.1229   -0.1364 C   0  0  0  0  0  0  0  0  0  0  0  0
   -3.8764    1.5318   -0.0356 C   0  0  0  0  0  0  0  0  0  0  0  0
   -2.6444    1.9455   -0.5413 C   0  0  0  0  0  0  0  0  0  0  0  0
   -1.5952    1.1846   -0.2961 N   0  0  0  0  0  0  0  0  0  0  0  0
   -1.6807    0.0500    0.4103 C   0  0  0  0  0  0  0  0  0  0  0  0
   -0.5391   -0.7219    0.6483 N   0  0  0  0  0  0  0  0  0  0  0  0
    0.7703   -0.4704    0.2202 C   0  0  0  0  0  0  0  0  0  0  0  0
    1.1954    0.5879   -0.5349 C   0  0  0  0  0  0  0  0  0  0  0  0
    2.5202    0.7984   -0.9339 C   0  0  0  0  0  0  0  0  0  0  0  0
    3.4641   -0.1153   -0.5452 C   0  0  0  0  0  0  0  0  0  0  0  0
    4.8414    0.0249   -0.9118 N   0  0  0  0  0  0  0  0  0  0  0  0
    5.9037    0.7238   -0.2059 C   0  0  0  0  0  0  0  0  0  0  0  0
    7.1424    0.1008   -0.7517 C   0  0  0  0  0  0  0  0  0  0  0  0
    7.5886   -1.1166    0.0184 C   0  0  0  0  0  0  0  0  0  0  0  0
    8.3035   -0.6271    1.2572 C   0  0  0  0  0  0  0  0  0  0  0  0
    9.7219   -0.2335    1.0213 C   0  0  0  0  0  0  0  0  0  0  0  0
   10.1924   -0.4294   -0.3116 N   0  0  0  0  0  0  0  0  0  0  0  0
    9.5155    0.3235   -1.3095 C   0  0  0  0  0  0  0  0  0  0  0  0
    8.3078    1.0666   -0.7940 C   0  0  0  0  0  0  0  0  0  0  0  0
    6.8076   -0.2667   -2.0500 O   0  0  0  0  0  0  0  0  0  0  0  0
    5.4445   -0.5129   -2.0787 C   0  0  0  0  0  0  0  0  0  0  0  0
    4.8683   -1.1250   -3.0173 O   0  0  0  0  0  0  0  0  0  0  0  0
    3.0259   -1.1783    0.2154 C   0  0  0  0  0  0  0  0  0  0  0  0
    1.7651   -1.3583    0.5823 N   0  0  0  0  0  0  0  0  0  0  0  0
   -2.8890   -0.3570    0.9067 N   0  0  0  0  0  0  0  0  0  0  0  0
   -4.0042    0.3713    0.6949 C   0  0  0  0  0  0  0  0  0  0  0  0
   -5.2862    0.2216    1.0527 N   0  0  0  0  0  0  0  0  0  0  0  0
   -5.8944   -0.8097    1.8056 C   0  0  0  0  0  0  0  0  0  0  0  0
   -7.0280   -1.5021    1.0706 C   0  0  0  0  0  0  0  0  0  0  0  0
   -6.2850   -2.2634    0.0015 C   0  0  0  0  0  0  0  0  0  0  0  0
   -5.0715   -2.7816    0.7149 C   0  0  0  0  0  0  0  0  0  0  0  0
   -4.9911   -1.9821    2.0258 C   0  0  0  0  0  0  0  0  0  0  0  0
  -10.0247    1.0629    0.1816 H   0  0  0  0  0  0  0  0  0  0  0  0
   -9.7625    2.8250    0.2928 H   0  0  0  0  0  0  0  0  0  0  0  0
  -10.0744    2.0162   -1.3373 H   0  0  0  0  0  0  0  0  0  0  0  0
   -6.6385    0.9800   -1.6941 H   0  0  0  0  0  0  0  0  0  0  0  0
   -7.4432    2.5492   -2.2580 H   0  0  0  0  0  0  0  0  0  0  0  0
   -8.3212    0.9839   -2.4393 H   0  0  0  0  0  0  0  0  0  0  0  0
   -5.3462    3.0631   -0.6580 H   0  0  0  0  0  0  0  0  0  0  0  0
   -2.6098    2.8815   -1.1163 H   0  0  0  0  0  0  0  0  0  0  0  0
   -0.7000   -1.6074    1.2277 H   0  0  0  0  0  0  0  0  0  0  0  0
    0.4759    1.3337   -0.8638 H   0  0  0  0  0  0  0  0  0  0  0  0
    2.7838    1.6724   -1.5407 H   0  0  0  0  0  0  0  0  0  0  0  0
    5.9256    1.8072   -0.4273 H   0  0  0  0  0  0  0  0  0  0  0  0
    5.7931    0.5565    0.8948 H   0  0  0  0  0  0  0  0  0  0  0  0
    6.6635   -1.6499    0.3528 H   0  0  0  0  0  0  0  0  0  0  0  0
    8.1906   -1.8214   -0.5570 H   0  0  0  0  0  0  0  0  0  0  0  0
    8.1852   -1.4223    2.0361 H   0  0  0  0  0  0  0  0  0  0  0  0
    7.7135    0.2444    1.6640 H   0  0  0  0  0  0  0  0  0  0  0  0
   10.3569   -0.8841    1.6883 H   0  0  0  0  0  0  0  0  0  0  0  0
    9.9510    0.8087    1.3484 H   0  0  0  0  0  0  0  0  0  0  0  0
   10.4756   -1.3797   -0.5591 H   0  0  0  0  0  0  0  0  0  0  0  0
   10.2080    1.0860   -1.7275 H   0  0  0  0  0  0  0  0  0  0  0  0
    9.1706   -0.3078   -2.1703 H   0  0  0  0  0  0  0  0  0  0  0  0
    8.4927    1.5827    0.1453 H   0  0  0  0  0  0  0  0  0  0  0  0
    8.0586    1.8370   -1.5635 H   0  0  0  0  0  0  0  0  0  0  0  0
    3.8258   -1.8889    0.5039 H   0  0  0  0  0  0  0  0  0  0  0  0
   -6.2445   -0.4376    2.8068 H   0  0  0  0  0  0  0  0  0  0  0  0
   -7.4626   -2.2326    1.7752 H   0  0  0  0  0  0  0  0  0  0  0  0
   -7.8126   -0.8558    0.7075 H   0  0  0  0  0  0  0  0  0  0  0  0
   -6.9440   -3.1216   -0.2825 H   0  0  0  0  0  0  0  0  0  0  0  0
   -6.0358   -1.6237   -0.8780 H   0  0  0  0  0  0  0  0  0  0  0  0
   -5.1688   -3.8588    0.9751 H   0  0  0  0  0  0  0  0  0  0  0  0
   -4.1774   -2.6844    0.0992 H   0  0  0  0  0  0  0  0  0  0  0  0
   -3.9555   -1.7961    2.2373 H   0  0  0  0  0  0  0  0  0  0  0  0
   -5.4216   -2.6129    2.8579 H   0  0  0  0  0  0  0  0  0  0  0  0
  1  2  1  0
  2  3  1  0
  2  4  1  0
  4  5  2  0
  4  6  1  0
  6  7  2  0
  7  8  1  0
  8  9  2  0
  9 10  1  0
 10 11  2  0
 11 12  1  0
 12 13  1  0
 13 14  2  0
 14 15  1  0
 15 16  2  0
 16 17  1  0
 17 18  1  0
 18 19  1  0
 19 20  1  0
 20 21  1  0
 21 22  1  0
 22 23  1  0
 23 24  1  0
 24 25  1  0
 19 26  1  0
 26 27  1  0
 27 28  2  0
 16 29  1  0
 29 30  2  0
 11 31  1  0
 31 32  2  0
 32 33  1  0
 33 34  1  0
 34 35  1  0
 35 36  1  0
 36 37  1  0
 37 38  1  0
 33  6  1  0
 38 34  1  0
 32  8  1  0
 30 13  1  0
 27 17  1  0
 25 19  1  0
  1 39  1  0
  1 40  1  0
  1 41  1  0
  3 42  1  0
  3 43  1  0
  3 44  1  0
  7 45  1  0
  9 46  1  0
 12 47  1  0
 14 48  1  0
 15 49  1  0
 18 50  1  0
 18 51  1  0
 20 52  1  0
 20 53  1  0
 21 54  1  0
 21 55  1  0
 22 56  1  0
 22 57  1  0
 23 58  1  0
 24 59  1  0
 24 60  1  0
 25 61  1  0
 25 62  1  0
 29 63  1  0
 34 64  1  0
 35 65  1  0
 35 66  1  0
 36 67  1  0
 36 68  1  0
 37 69  1  0
 37 70  1  0
 38 71  1  0
 38 72  1  0
M  END
$$$$
