@<TRIPOS>MOLECULE
*****
 5 4 0 0 0
SMALL
GASTEIGER

@<TRIPOS>ATOM
      1 O           0.8746   -0.4359    0.1475 O.3     1  UNL1       -0.4828
      2 C          -0.4646   -0.0815    0.0369 C.2     1  UNL1        0.2919
      3 O          -0.7528    1.1313   -0.0172 O.2     1  UNL1       -0.2548
      4 H           1.6197    0.1798   -0.1616 H       1  UNL1        0.2948
      5 H          -1.2770   -0.7937   -0.0056 H       1  UNL1        0.1510
@<TRIPOS>BOND
     1     1     2    1
     2     2     3    2
     3     1     4    1
     4     2     5    1
