@<TRIPOS>MOLECULE
*****
 57 61 0 0 0
SMALL
GASTEIGER

@<TRIPOS>ATOM
      1 O          -4.9177    0.6260    0.2509 O.2     1  UNL1       -0.2522
      2 C          -4.4449   -0.2276   -0.5181 C.2     1  UNL1        0.3081
      3 N          -3.0630   -0.4350   -0.5749 N.am    1  UNL1       -0.2692
      4 C          -2.0459    0.1973    0.1577 C.ar    1  UNL1        0.0354
      5 C          -2.3351    1.0793    1.1631 C.ar    1  UNL1       -0.0404
      6 C          -1.2845    1.6979    1.8627 C.ar    1  UNL1       -0.0594
      7 C           0.0045    1.4042    1.5220 C.ar    1  UNL1       -0.0524
      8 C           0.3197    0.5195    0.5124 C.ar    1  UNL1        0.0036
      9 C           1.7136    0.2258    0.1825 C.ar    1  UNL1        0.0897
     10 C           2.1031   -0.6389   -0.8090 C.ar    1  UNL1        0.0373
     11 N           3.4069   -0.8506   -1.0426 N.ar    1  UNL1       -0.3018
     12 C           4.0249   -1.6547   -1.9666 C.ar    1  UNL1        0.0294
     13 C           5.3925   -1.5390   -1.8253 C.ar    1  UNL1        0.0465
     14 N           5.5773   -0.6593   -0.8093 N.ar    1  UNL1       -0.2330
     15 C           4.3842   -0.2737   -0.3712 C.ar    1  UNL1        0.1780
     16 C           4.0183    0.6470    0.6859 C.ar    1  UNL1        0.1629
     17 N           5.0730    1.1863    1.3435 N.pl3   1  UNL1       -0.3220
     18 C           6.1252    1.7247    2.0000 C.3     1  UNL1        0.0359
     19 C           7.4764    1.2114    1.5011 C.ar    1  UNL1       -0.0275
     20 C           8.0751    0.1123    2.0670 C.ar    1  UNL1       -0.0389
     21 C           9.2978   -0.3343    1.5856 C.ar    1  UNL1        0.0279
     22 N           9.8519    0.3457    0.5649 N.ar    1  UNL1       -0.2632
     23 C           9.2999    1.4173   -0.0095 C.ar    1  UNL1        0.0279
     24 C           8.0797    1.8768    0.4582 C.ar    1  UNL1       -0.0389
     25 N           2.7127    0.8131    0.8663 N.ar    1  UNL1       -0.2270
     26 C          -0.7055   -0.0674   -0.1509 C.ar    1  UNL1       -0.0312
     27 N          -5.3772   -0.9559   -1.3118 N.am    1  UNL1       -0.2692
     28 C          -6.7762   -0.7801   -1.3034 C.ar    1  UNL1        0.0353
     29 C          -7.4182    0.0572   -2.1817 C.ar    1  UNL1       -0.0404
     30 C          -8.7868    0.2408   -2.1962 C.ar    1  UNL1       -0.0595
     31 C          -9.5834   -0.4394   -1.2910 C.ar    1  UNL1       -0.0500
     32 C          -8.9451   -1.2840   -0.4023 C.ar    1  UNL1        0.0566
     33 C          -9.8163   -2.0131    0.5709 C.3     1  UNL1        0.4175
     34 F          -9.0111   -2.5007    1.5726 F       1  UNL1       -0.1659
     35 F         -10.7207   -1.1215    1.1097 F       1  UNL1       -0.1659
     36 F         -10.5022   -3.0399   -0.0283 F       1  UNL1       -0.1659
     37 C          -7.5787   -1.4694   -0.3863 C.ar    1  UNL1       -0.0288
     38 H          -2.7429   -1.1854   -1.2776 H       1  UNL1        0.1564
     39 H          -3.3368    1.3503    1.4856 H       1  UNL1        0.0636
     40 H          -1.5544    2.3894    2.6522 H       1  UNL1        0.0618
     41 H           0.8147    1.8761    2.0552 H       1  UNL1        0.0624
     42 H           1.3711   -1.1468   -1.3985 H       1  UNL1        0.0835
     43 H           3.4725   -2.2637   -2.6722 H       1  UNL1        0.0829
     44 H           6.1486   -2.0479   -2.4085 H       1  UNL1        0.0845
     45 H           4.2353    1.9325    2.1320 H       1  UNL1        0.1479
     46 H           6.2015    1.4925    3.1063 H       1  UNL1        0.0511
     47 H           6.2470    2.8515    1.9476 H       1  UNL1        0.0511
     48 H           7.5798   -0.3843    2.8800 H       1  UNL1        0.0636
     49 H           9.7863   -1.2073    2.0246 H       1  UNL1        0.0829
     50 H           9.8119    1.9209   -0.8421 H       1  UNL1        0.0829
     51 H           7.5922    2.7397    0.0273 H       1  UNL1        0.0636
     52 H          -0.5040   -0.7621   -0.9407 H       1  UNL1        0.0643
     53 H          -4.9742   -1.6838   -1.9579 H       1  UNL1        0.1564
     54 H          -6.7634    0.5879   -2.8928 H       1  UNL1        0.0636
     55 H          -9.2417    0.9105   -2.9116 H       1  UNL1        0.0618
     56 H         -10.6721   -0.3300   -1.2581 H       1  UNL1        0.0623
     57 H          -7.0957   -2.1377    0.3206 H       1  UNL1        0.0642
@<TRIPOS>BOND
     1     1     2    2
     2     2     3   am
     3     3     4    1
     4     4     5   ar
     5     5     6   ar
     6     6     7   ar
     7     7     8   ar
     8     8     9    1
     9     9    10   ar
    10    10    11   ar
    11    11    12   ar
    12    12    13   ar
    13    13    14   ar
    14    14    15   ar
    15    15    16   ar
    16    16    17    1
    17    17    18    1
    18    18    19    1
    19    19    20   ar
    20    20    21   ar
    21    21    22   ar
    22    22    23   ar
    23    23    24   ar
    24    16    25   ar
    25     8    26   ar
    26     2    27   am
    27    27    28    1
    28    28    29   ar
    29    29    30   ar
    30    30    31   ar
    31    31    32   ar
    32    32    33    1
    33    33    34    1
    34    33    35    1
    35    33    36    1
    36    32    37   ar
    37    26     4   ar
    38    37    28   ar
    39    25     9   ar
    40    15    11   ar
    41    24    19   ar
    42     3    38    1
    43     5    39    1
    44     6    40    1
    45     7    41    1
    46    10    42    1
    47    12    43    1
    48    13    44    1
    49    17    45    1
    50    18    46    1
    51    18    47    1
    52    20    48    1
    53    21    49    1
    54    23    50    1
    55    24    51    1
    56    26    52    1
    57    27    53    1
    58    29    54    1
    59    30    55    1
    60    31    56    1
    61    37    57    1
