
     RDKit          3D

 99105  0  0  0  0  0  0  0  0999 V2000
   -5.4526   -1.9826    1.4661 C   0  0  0  0  0  0  0  0  0  0  0  0
   -4.9038   -1.0818    2.2467 C   0  0  0  0  0  0  0  0  0  0  0  0
   -4.8870    0.3608    2.3680 C   0  0  2  0  0  0  0  0  0  0  0  0
   -5.8330    1.3992    2.0961 C   0  0  0  0  0  0  0  0  0  0  0  0
   -4.7973    1.0853    1.0798 C   0  0  1  0  0  0  0  0  0  0  0  0
   -3.4946    1.6451    0.9663 N   0  0  0  0  0  0  0  0  0  0  0  0
   -2.3959    0.9721    0.7255 C   0  0  0  0  0  0  0  0  0  0  0  0
   -1.7275    2.1879    0.7821 O   0  0  0  0  0  0  0  0  0  0  0  0
   -1.7858   -0.3602    0.4745 C   0  0  2  0  0  0  0  0  0  0  0  0
   -0.3371   -0.2644    0.9861 C   0  0  0  0  0  0  0  0  0  0  0  0
    0.4334    0.2396   -0.2375 C   0  0  2  0  0  0  0  0  0  0  0  0
   -0.1763   -0.6988   -1.2954 C   0  0  0  0  0  0  0  0  0  0  0  0
   -1.6314   -0.7787   -0.9436 C   0  0  1  0  0  0  0  0  0  0  0  0
   -2.2429   -2.1001   -1.2371 C   0  0  0  0  0  0  0  0  0  0  0  0
   -3.2479   -2.1537   -1.9763 O   0  0  0  0  0  0  0  0  0  0  0  0
   -2.3793   -3.5171   -1.1786 N   0  0  0  0  0  0  0  0  0  0  0  0
   -1.1684   -3.9024   -0.5094 C   0  0  0  0  0  0  0  0  0  0  0  0
   -3.2258   -4.6972   -1.5190 C   0  0  0  0  0  0  0  0  0  0  0  0
   -4.0102   -4.9769   -0.2001 C   0  0  0  0  0  0  0  0  0  0  0  0
   -4.5612   -3.6951    0.1943 C   0  0  0  0  0  0  0  0  0  0  0  0
   -5.3090   -3.5305    1.5230 C   0  0  0  0  0  0  0  0  0  0  0  0
    1.7344    0.1654   -0.1086 O   0  0  0  0  0  0  0  0  0  0  0  0
    2.9654    0.5229   -0.1360 C   0  0  0  0  0  0  0  0  0  0  0  0
    3.6599    1.6477   -0.5220 C   0  0  0  0  0  0  0  0  0  0  0  0
    2.8546    2.6531   -1.0087 C   0  0  0  0  0  0  0  0  0  0  0  0
    3.3764    3.8456   -1.4453 C   0  0  0  0  0  0  0  0  0  0  0  0
    4.7517    4.0637   -1.4031 C   0  0  0  0  0  0  0  0  0  0  0  0
    5.3058    5.2480   -1.8333 O   0  0  0  0  0  0  0  0  0  0  0  0
    4.5138    6.3002   -2.3390 C   0  0  0  0  0  0  0  0  0  0  0  0
    5.5663    3.0642   -0.9177 C   0  0  0  0  0  0  0  0  0  0  0  0
    7.0456    3.1882   -0.8281 C   0  0  0  0  0  0  0  0  0  0  0  0
    5.0086    1.8874   -0.4913 C   0  0  0  0  0  0  0  0  0  0  0  0
    5.7211    0.8571   -0.0098 N   0  0  0  0  0  0  0  0  0  0  0  0
    5.1642   -0.2885    0.3974 C   0  0  0  0  0  0  0  0  0  0  0  0
    3.8126   -0.4888    0.3496 C   0  0  0  0  0  0  0  0  0  0  0  0
    6.1800   -1.2517    0.8867 C   0  0  0  0  0  0  0  0  0  0  0  0
    7.3112   -1.3313    1.0409 N   0  0  0  0  0  0  0  0  0  0  0  0
    8.0406   -2.3110    1.5101 C   0  0  0  0  0  0  0  0  0  0  0  0
    7.2436   -3.4864    1.8916 C   0  0  0  0  0  0  0  0  0  0  0  0
    5.4918   -2.9167    1.4751 S   0  0  0  0  0  0  0  0  0  0  0  0
    9.5114   -2.1490    1.6088 C   0  0  0  0  0  0  0  0  0  0  0  0
   10.1104   -1.8582    0.2413 C   0  0  0  0  0  0  0  0  0  0  0  0
    9.8228   -0.9754    2.5493 C   0  0  0  0  0  0  0  0  0  0  0  0
   -5.3775    0.6692   -0.2221 C   0  0  0  0  0  0  0  0  0  0  0  0
   -5.5321   -0.2242   -1.3067 O   0  0  0  0  0  0  0  0  0  0  0  0
   -6.1492    1.6555   -0.5141 N   0  0  0  0  0  0  0  0  0  0  0  0
   -7.1483    1.9159   -1.8417 S   0  0  0  0  0  0  0  0  0  0  0  0
   -6.4286    2.4532   -3.0447 O   0  0  0  0  0  0  0  0  0  0  0  0
   -7.7489    0.5802   -2.2583 O   0  0  0  0  0  0  0  0  0  0  0  0
   -8.4688    3.0349   -1.4299 C   0  0  0  0  0  0  0  0  0  0  0  0
   -9.1160    2.9616   -0.0711 C   0  0  0  0  0  0  0  0  0  0  0  0
   -8.2593    4.1242   -0.4432 C   0  0  0  0  0  0  0  0  0  0  0  0
   -6.1411   -1.7946    0.6487 H   0  0  0  0  0  0  0  0  0  0  0  0
   -4.3161   -1.6841    2.9797 H   0  0  0  0  0  0  0  0  0  0  0  0
   -4.0740    0.6932    3.1246 H   0  0  0  0  0  0  0  0  0  0  0  0
   -6.9131    1.2237    1.8445 H   0  0  0  0  0  0  0  0  0  0  0  0
   -5.7165    2.3995    2.5580 H   0  0  0  0  0  0  0  0  0  0  0  0
   -1.7008    2.8838    0.0252 H   0  0  0  0  0  0  0  0  0  0  0  0
   -2.3176   -1.1695    1.0029 H   0  0  0  0  0  0  0  0  0  0  0  0
   -0.2405    0.5017    1.7714 H   0  0  0  0  0  0  0  0  0  0  0  0
    0.0422   -1.2129    1.3678 H   0  0  0  0  0  0  0  0  0  0  0  0
    0.0423    1.2745   -0.4365 H   0  0  0  0  0  0  0  0  0  0  0  0
   -0.0689   -0.1527   -2.2628 H   0  0  0  0  0  0  0  0  0  0  0  0
    0.3655   -1.6352   -1.3553 H   0  0  0  0  0  0  0  0  0  0  0  0
   -2.2135   -0.0423   -1.5671 H   0  0  0  0  0  0  0  0  0  0  0  0
   -0.2808   -3.8904   -1.1806 H   0  0  0  0  0  0  0  0  0  0  0  0
   -1.1764   -4.9608   -0.1227 H   0  0  0  0  0  0  0  0  0  0  0  0
   -0.9660   -3.3090    0.4061 H   0  0  0  0  0  0  0  0  0  0  0  0
   -2.5902   -5.5232   -1.7942 H   0  0  0  0  0  0  0  0  0  0  0  0
   -3.9772   -4.4708   -2.2644 H   0  0  0  0  0  0  0  0  0  0  0  0
   -3.3361   -5.4265    0.5271 H   0  0  0  0  0  0  0  0  0  0  0  0
   -4.8373   -5.6608   -0.5117 H   0  0  0  0  0  0  0  0  0  0  0  0
   -3.6506   -3.0206    0.4020 H   0  0  0  0  0  0  0  0  0  0  0  0
   -5.2258   -3.2235   -0.5558 H   0  0  0  0  0  0  0  0  0  0  0  0
   -6.2806   -4.0136    1.4451 H   0  0  0  0  0  0  0  0  0  0  0  0
   -4.7717   -3.8513    2.3914 H   0  0  0  0  0  0  0  0  0  0  0  0
    1.7885    2.5668   -1.0776 H   0  0  0  0  0  0  0  0  0  0  0  0
    2.7411    4.6453   -1.8329 H   0  0  0  0  0  0  0  0  0  0  0  0
    3.7626    6.5591   -1.5743 H   0  0  0  0  0  0  0  0  0  0  0  0
    4.0055    5.9577   -3.2669 H   0  0  0  0  0  0  0  0  0  0  0  0
    5.1455    7.1916   -2.5201 H   0  0  0  0  0  0  0  0  0  0  0  0
    7.3818    4.1943   -1.1092 H   0  0  0  0  0  0  0  0  0  0  0  0
    7.5589    2.4433   -1.4872 H   0  0  0  0  0  0  0  0  0  0  0  0
    7.3589    3.0141    0.2175 H   0  0  0  0  0  0  0  0  0  0  0  0
    3.4872   -1.4616    0.7079 H   0  0  0  0  0  0  0  0  0  0  0  0
    7.9597   -4.4108    2.3357 H   0  0  0  0  0  0  0  0  0  0  0  0
    9.9873   -3.0690    1.9834 H   0  0  0  0  0  0  0  0  0  0  0  0
   11.1118   -2.3133    0.1348 H   0  0  0  0  0  0  0  0  0  0  0  0
    9.4426   -2.1862   -0.5664 H   0  0  0  0  0  0  0  0  0  0  0  0
   10.2484   -0.7470    0.1322 H   0  0  0  0  0  0  0  0  0  0  0  0
    9.0068   -0.2402    2.4404 H   0  0  0  0  0  0  0  0  0  0  0  0
   10.7475   -0.4877    2.1673 H   0  0  0  0  0  0  0  0  0  0  0  0
    9.9654   -1.3370    3.5840 H   0  0  0  0  0  0  0  0  0  0  0  0
   -5.0281   -0.0172   -2.1790 H   0  0  0  0  0  0  0  0  0  0  0  0
   -9.1982    3.2744   -2.2580 H   0  0  0  0  0  0  0  0  0  0  0  0
   -8.7431    2.2905    0.7125 H   0  0  0  0  0  0  0  0  0  0  0  0
  -10.2111    3.1469    0.0158 H   0  0  0  0  0  0  0  0  0  0  0  0
   -7.2459    4.2285   -0.0110 H   0  0  0  0  0  0  0  0  0  0  0  0
   -8.7582    5.1151   -0.5795 H   0  0  0  0  0  0  0  0  0  0  0  0
  1  2  2  0
  2  3  1  0
  3  4  1  0
  4  5  1  0
  5  6  1  0
  6  7  2  3
  7  8  1  0
  7  9  1  0
  9 10  1  0
 10 11  1  0
 11 12  1  0
 12 13  1  0
 13 14  1  0
 14 15  2  0
 14 16  1  0
 16 17  1  0
 16 18  1  0
 18 19  1  0
 19 20  1  0
 20 21  1  0
 11 22  1  0
 22 23  1  0
 23 24  1  0
 24 25  2  0
 25 26  1  0
 26 27  2  0
 27 28  1  0
 28 29  1  0
 27 30  1  0
 30 31  1  0
 30 32  2  0
 32 33  1  0
 33 34  2  0
 34 35  1  0
 34 36  1  0
 36 37  2  0
 37 38  1  0
 38 39  2  0
 39 40  1  0
 38 41  1  0
 41 42  1  0
 41 43  1  0
  5 44  1  6
 44 45  1  0
 44 46  2  3
 46 47  1  0
 47 48  2  0
 47 49  2  0
 47 50  1  0
 50 51  1  0
 51 52  1  0
 21  1  1  0
 35 23  2  0
 40 36  1  0
 52 50  1  0
  5  3  1  0
 13  9  1  0
 32 24  1  0
  1 53  1  0
  2 54  1  0
  3 55  1  1
  4 56  1  0
  4 57  1  0
  8 58  1  0
  9 59  1  1
 10 60  1  0
 10 61  1  0
 11 62  1  6
 12 63  1  0
 12 64  1  0
 13 65  1  6
 17 66  1  0
 17 67  1  0
 17 68  1  0
 18 69  1  0
 18 70  1  0
 19 71  1  0
 19 72  1  0
 20 73  1  0
 20 74  1  0
 21 75  1  0
 21 76  1  0
 25 77  1  0
 26 78  1  0
 29 79  1  0
 29 80  1  0
 29 81  1  0
 31 82  1  0
 31 83  1  0
 31 84  1  0
 35 85  1  0
 39 86  1  0
 41 87  1  0
 42 88  1  0
 42 89  1  0
 42 90  1  0
 43 91  1  0
 43 92  1  0
 43 93  1  0
 45 94  1  0
 50 95  1  0
 51 96  1  0
 51 97  1  0
 52 98  1  0
 52 99  1  0
M  END
$$$$
