@<TRIPOS>MOLECULE
*****
 99 105 0 0 0
SMALL
GASTEIGER

@<TRIPOS>ATOM
      1 C          -5.4526   -1.9826    1.4661 C.2     1  UNL1       -0.0876
      2 C          -4.9038   -1.0818    2.2467 C.2     1  UNL1       -0.0820
      3 C          -4.8870    0.3608    2.3680 C.3     1  UNL1        0.0138
      4 C          -5.8330    1.3992    2.0961 C.3     1  UNL1       -0.0093
      5 C          -4.7973    1.0853    1.0798 C.3     1  UNL1        0.1480
      6 N          -3.4946    1.6451    0.9663 N.2     1  UNL1       -0.2376
      7 C          -2.3959    0.9721    0.7255 C.2     1  UNL1        0.1875
      8 O          -1.7275    2.1879    0.7821 O.2     1  UNL1       -0.4954
      9 C          -1.7858   -0.3602    0.4745 C.3     1  UNL1        0.0491
     10 C          -0.3371   -0.2644    0.9861 C.3     1  UNL1       -0.0038
     11 C           0.4334    0.2396   -0.2375 C.3     1  UNL1        0.1017
     12 C          -0.1763   -0.6988   -1.2954 C.3     1  UNL1       -0.0039
     13 C          -1.6314   -0.7787   -0.9436 C.3     1  UNL1        0.0503
     14 C          -2.2429   -2.1001   -1.2371 C.2     1  UNL1        0.2193
     15 O          -3.2479   -2.1537   -1.9763 O.2     1  UNL1       -0.2753
     16 N          -2.3793   -3.5171   -1.1786 N.am    1  UNL1       -0.3043
     17 C          -1.1684   -3.9024   -0.5094 C.3     1  UNL1        0.0031
     18 C          -3.2258   -4.6972   -1.5190 C.3     1  UNL1        0.0144
     19 C          -4.0102   -4.9769   -0.2001 C.3     1  UNL1       -0.0369
     20 C          -4.5612   -3.6951    0.1943 C.3     1  UNL1       -0.0482
     21 C          -5.3090   -3.5305    1.5230 C.3     1  UNL1       -0.0347
     22 O           1.7344    0.1654   -0.1086 O.3     1  UNL1       -0.4881
     23 C           2.9654    0.5229   -0.1360 C.ar    1  UNL1        0.1322
     24 C           3.6599    1.6477   -0.5220 C.ar    1  UNL1        0.0426
     25 C           2.8546    2.6531   -1.0087 C.ar    1  UNL1       -0.0456
     26 C           3.3764    3.8456   -1.4453 C.ar    1  UNL1       -0.0189
     27 C           4.7517    4.0637   -1.4031 C.ar    1  UNL1        0.1250
     28 O           5.3058    5.2480   -1.8333 O.3     1  UNL1       -0.4948
     29 C           4.5138    6.3002   -2.3390 C.3     1  UNL1        0.0788
     30 C           5.5663    3.0642   -0.9177 C.ar    1  UNL1        0.0172
     31 C           7.0456    3.1882   -0.8281 C.3     1  UNL1       -0.0342
     32 C           5.0086    1.8874   -0.4913 C.ar    1  UNL1        0.0816
     33 N           5.7211    0.8571   -0.0098 N.ar    1  UNL1       -0.2440
     34 C           5.1642   -0.2885    0.3974 C.ar    1  UNL1        0.1001
     35 C           3.8126   -0.4888    0.3496 C.ar    1  UNL1        0.0087
     36 C           6.1800   -1.2517    0.8867 C.ar    1  UNL1        0.1268
     37 N           7.3112   -1.3313    1.0409 N.ar    1  UNL1       -0.2421
     38 C           8.0406   -2.3110    1.5101 C.ar    1  UNL1        0.0517
     39 C           7.2436   -3.4864    1.8916 C.ar    1  UNL1       -0.0007
     40 S           5.4918   -2.9167    1.4751 S.2     1  UNL1       -0.0739
     41 C           9.5114   -2.1490    1.6088 C.3     1  UNL1       -0.0038
     42 C          10.1104   -1.8582    0.2413 C.3     1  UNL1       -0.0572
     43 C           9.8228   -0.9754    2.5493 C.3     1  UNL1       -0.0572
     44 C          -5.3775    0.6692   -0.2221 C.2     1  UNL1        0.2352
     45 O          -5.5321   -0.2242   -1.3067 O.2     1  UNL1       -0.4929
     46 N          -6.1492    1.6555   -0.5141 N.2     1  UNL1       -0.0977
     47 S          -7.1483    1.9159   -1.8417 S.O2    1  UNL1        0.0753
     48 O          -6.4286    2.4532   -3.0447 O.2     1  UNL1       -0.1512
     49 O          -7.7489    0.5802   -2.2583 O.2     1  UNL1       -0.1512
     50 C          -8.4688    3.0349   -1.4299 C.3     1  UNL1        0.0998
     51 C          -9.1160    2.9616   -0.0711 C.3     1  UNL1       -0.0269
     52 C          -8.2593    4.1242   -0.4432 C.3     1  UNL1       -0.0269
     53 H          -6.1411   -1.7946    0.6487 H       1  UNL1        0.0569
     54 H          -4.3161   -1.6841    2.9797 H       1  UNL1        0.0573
     55 H          -4.0740    0.6932    3.1246 H       1  UNL1        0.0372
     56 H          -6.9131    1.2237    1.8445 H       1  UNL1        0.0300
     57 H          -5.7165    2.3995    2.5580 H       1  UNL1        0.0300
     58 H          -1.7008    2.8838    0.0252 H       1  UNL1        0.2934
     59 H          -2.3176   -1.1695    1.0029 H       1  UNL1        0.0404
     60 H          -0.2405    0.5017    1.7714 H       1  UNL1        0.0308
     61 H           0.0422   -1.2129    1.3678 H       1  UNL1        0.0308
     62 H           0.0423    1.2745   -0.4365 H       1  UNL1        0.0733
     63 H          -0.0689   -0.1527   -2.2628 H       1  UNL1        0.0308
     64 H           0.3655   -1.6352   -1.3553 H       1  UNL1        0.0308
     65 H          -2.2135   -0.0423   -1.5671 H       1  UNL1        0.0403
     66 H          -0.2808   -3.8904   -1.1806 H       1  UNL1        0.0428
     67 H          -1.1764   -4.9608   -0.1227 H       1  UNL1        0.0428
     68 H          -0.9660   -3.3090    0.4061 H       1  UNL1        0.0428
     69 H          -2.5902   -5.5232   -1.7942 H       1  UNL1        0.0464
     70 H          -3.9772   -4.4708   -2.2644 H       1  UNL1        0.0464
     71 H          -3.3361   -5.4265    0.5271 H       1  UNL1        0.0280
     72 H          -4.8373   -5.6608   -0.5117 H       1  UNL1        0.0280
     73 H          -3.6506   -3.0206    0.4020 H       1  UNL1        0.0269
     74 H          -5.2258   -3.2235   -0.5558 H       1  UNL1        0.0269
     75 H          -6.2806   -4.0136    1.4451 H       1  UNL1        0.0307
     76 H          -4.7717   -3.8513    2.3914 H       1  UNL1        0.0307
     77 H           1.7885    2.5668   -1.0776 H       1  UNL1        0.0626
     78 H           2.7411    4.6453   -1.8329 H       1  UNL1        0.0654
     79 H           3.7626    6.5591   -1.5743 H       1  UNL1        0.0660
     80 H           4.0055    5.9577   -3.2669 H       1  UNL1        0.0660
     81 H           5.1455    7.1916   -2.5201 H       1  UNL1        0.0660
     82 H           7.3818    4.1943   -1.1092 H       1  UNL1        0.0279
     83 H           7.5589    2.4433   -1.4872 H       1  UNL1        0.0279
     84 H           7.3589    3.0141    0.2175 H       1  UNL1        0.0279
     85 H           3.4872   -1.4616    0.7079 H       1  UNL1        0.0676
     86 H           7.9597   -4.4108    2.3357 H       1  UNL1        0.0712
     87 H           9.9873   -3.0690    1.9834 H       1  UNL1        0.0359
     88 H          11.1118   -2.3133    0.1348 H       1  UNL1        0.0236
     89 H           9.4426   -2.1862   -0.5664 H       1  UNL1        0.0236
     90 H          10.2484   -0.7470    0.1322 H       1  UNL1        0.0236
     91 H           9.0068   -0.2402    2.4404 H       1  UNL1        0.0236
     92 H          10.7475   -0.4877    2.1673 H       1  UNL1        0.0236
     93 H           9.9654   -1.3370    3.5840 H       1  UNL1        0.0236
     94 H          -5.0281   -0.0172   -2.1790 H       1  UNL1        0.2935
     95 H          -9.1982    3.2744   -2.2580 H       1  UNL1        0.0557
     96 H          -8.7431    2.2905    0.7125 H       1  UNL1        0.0285
     97 H         -10.2111    3.1469    0.0158 H       1  UNL1        0.0285
     98 H          -7.2459    4.2285   -0.0110 H       1  UNL1        0.0285
     99 H          -8.7582    5.1151   -0.5795 H       1  UNL1        0.0285
@<TRIPOS>BOND
     1     1     2    2
     2     2     3    1
     3     3     4    1
     4     4     5    1
     5     5     6    1
     6     6     7    2
     7     7     8    1
     8     7     9    1
     9     9    10    1
    10    10    11    1
    11    11    12    1
    12    12    13    1
    13    13    14    1
    14    14    15    2
    15    14    16   am
    16    16    17    1
    17    16    18    1
    18    18    19    1
    19    19    20    1
    20    20    21    1
    21    11    22    1
    22    22    23    1
    23    23    24   ar
    24    24    25   ar
    25    25    26   ar
    26    26    27   ar
    27    27    28    1
    28    28    29    1
    29    27    30   ar
    30    30    31    1
    31    30    32   ar
    32    32    33   ar
    33    33    34   ar
    34    34    35   ar
    35    34    36    1
    36    36    37   ar
    37    37    38   ar
    38    38    39   ar
    39    39    40   ar
    40    38    41    1
    41    41    42    1
    42    41    43    1
    43     5    44    1
    44    44    45    1
    45    44    46    2
    46    46    47    1
    47    47    48    2
    48    47    49    2
    49    47    50    1
    50    50    51    1
    51    51    52    1
    52    21     1    1
    53    35    23   ar
    54    40    36   ar
    55    52    50    1
    56     5     3    1
    57    13     9    1
    58    32    24   ar
    59     1    53    1
    60     2    54    1
    61     3    55    1
    62     4    56    1
    63     4    57    1
    64     8    58    1
    65     9    59    1
    66    10    60    1
    67    10    61    1
    68    11    62    1
    69    12    63    1
    70    12    64    1
    71    13    65    1
    72    17    66    1
    73    17    67    1
    74    17    68    1
    75    18    69    1
    76    18    70    1
    77    19    71    1
    78    19    72    1
    79    20    73    1
    80    20    74    1
    81    21    75    1
    82    21    76    1
    83    25    77    1
    84    26    78    1
    85    29    79    1
    86    29    80    1
    87    29    81    1
    88    31    82    1
    89    31    83    1
    90    31    84    1
    91    35    85    1
    92    39    86    1
    93    41    87    1
    94    42    88    1
    95    42    89    1
    96    42    90    1
    97    43    91    1
    98    43    92    1
    99    43    93    1
   100    45    94    1
   101    50    95    1
   102    51    96    1
   103    51    97    1
   104    52    98    1
   105    52    99    1
