
     RDKit          3D

100106  0  0  0  0  0  0  0  0999 V2000
  -10.9464   -4.6142   -1.7971 C   0  0  0  0  0  0  0  0  0  0  0  0
  -10.6914   -3.2725   -1.2260 C   0  0  0  0  0  0  0  0  0  0  0  0
  -10.2603   -2.2149   -1.9944 C   0  0  0  0  0  0  0  0  0  0  0  0
  -10.0278   -0.9410   -1.4578 C   0  0  0  0  0  0  0  0  0  0  0  0
  -10.2296   -0.7139   -0.1217 C   0  0  0  0  0  0  0  0  0  0  0  0
  -10.0233    0.5679    0.4858 N   0  0  0  0  0  0  0  0  0  0  0  0
  -10.8236    1.6159    0.3214 N   0  0  0  0  0  0  0  0  0  0  0  0
  -10.3877    2.6769    1.0248 C   0  0  0  0  0  0  0  0  0  0  0  0
  -10.9833    4.0343    1.0990 C   0  0  0  0  0  0  0  0  0  0  0  0
  -11.2101    4.5834   -0.3035 C   0  0  0  0  0  0  0  0  0  0  0  0
  -12.3457    3.9093    1.7761 C   0  0  0  0  0  0  0  0  0  0  0  0
   -9.2440    2.2468    1.6618 C   0  0  0  0  0  0  0  0  0  0  0  0
   -9.0257    0.9091    1.3098 C   0  0  0  0  0  0  0  0  0  0  0  0
   -7.9611    0.0705    1.7380 N   0  0  0  0  0  0  0  0  0  0  0  0
   -6.7063    0.0954    1.0887 C   0  0  0  0  0  0  0  0  0  0  0  0
   -6.5890    0.9284    0.1393 O   0  0  0  0  0  0  0  0  0  0  0  0
   -5.5988   -0.7438    1.4354 N   0  0  0  0  0  0  0  0  0  0  0  0
   -4.3654   -0.6092    0.7340 C   0  0  0  0  0  0  0  0  0  0  0  0
   -4.1439   -1.2346   -0.4485 C   0  0  0  0  0  0  0  0  0  0  0  0
   -2.9484   -1.0767   -1.1219 C   0  0  0  0  0  0  0  0  0  0  0  0
   -1.9249   -0.2672   -0.6068 C   0  0  0  0  0  0  0  0  0  0  0  0
   -0.7357   -0.1075   -1.2836 O   0  0  0  0  0  0  0  0  0  0  0  0
    0.4975   -0.5165   -0.8951 C   0  0  0  0  0  0  0  0  0  0  0  0
    0.6834   -1.2757    0.2415 C   0  0  0  0  0  0  0  0  0  0  0  0
    1.9810   -1.6563    0.5648 C   0  0  0  0  0  0  0  0  0  0  0  0
    2.9791   -1.2841   -0.2144 N   0  0  0  0  0  0  0  0  0  0  0  0
    2.8281   -0.5387   -1.3339 C   0  0  0  0  0  0  0  0  0  0  0  0
    3.9473   -0.1472   -2.0865 N   0  0  0  0  0  0  0  0  0  0  0  0
    5.2397   -0.5907   -1.7108 C   0  0  0  0  0  0  0  0  0  0  0  0
    6.3002    0.3197   -1.8471 C   0  0  0  0  0  0  0  0  0  0  0  0
    7.5853   -0.0247   -1.5271 C   0  0  0  0  0  0  0  0  0  0  0  0
    8.6863    0.9090   -1.6088 C   0  0  0  0  0  0  0  0  0  0  0  0
    8.4173    2.1455   -1.8150 O   0  0  0  0  0  0  0  0  0  0  0  0
   10.0550    0.6077   -1.4820 N   0  0  0  0  0  0  0  0  0  0  0  0
   11.1054    1.5993   -1.5494 C   0  0  0  0  0  0  0  0  0  0  0  0
   12.4352    0.9044   -1.4232 C   0  0  0  0  0  0  0  0  0  0  0  0
   12.6122    0.1469   -0.2394 N   0  0  0  0  0  0  0  0  0  0  0  0
   12.7091    0.8809    0.9612 C   0  0  0  0  0  0  0  0  0  0  0  0
   14.0917    1.4365    1.2028 C   0  0  0  0  0  0  0  0  0  0  0  0
   15.0390    0.4465    1.1425 O   0  0  0  0  0  0  0  0  0  0  0  0
   14.5163   -0.8021    0.8778 C   0  0  0  0  0  0  0  0  0  0  0  0
   13.6752   -0.8275   -0.3698 C   0  0  0  0  0  0  0  0  0  0  0  0
    7.8070   -1.2963   -1.0674 C   0  0  0  0  0  0  0  0  0  0  0  0
    6.7758   -2.2221   -0.9221 C   0  0  0  0  0  0  0  0  0  0  0  0
    7.0369   -3.6080   -0.4289 C   0  0  0  0  0  0  0  0  0  0  0  0
    5.9207   -4.1525    0.1585 F   0  0  0  0  0  0  0  0  0  0  0  0
    8.0138   -3.5910    0.5658 F   0  0  0  0  0  0  0  0  0  0  0  0
    7.4496   -4.4409   -1.4713 F   0  0  0  0  0  0  0  0  0  0  0  0
    5.4788   -1.8617   -1.2480 C   0  0  0  0  0  0  0  0  0  0  0  0
    1.5644   -0.1877   -1.6225 N   0  0  0  0  0  0  0  0  0  0  0  0
   -2.1423    0.3681    0.5897 C   0  0  0  0  0  0  0  0  0  0  0  0
   -1.1632    1.1975    1.1467 C   0  0  0  0  0  0  0  0  0  0  0  0
   -1.4382    1.8171    2.3476 C   0  0  0  0  0  0  0  0  0  0  0  0
   -2.6319    1.6619    3.0288 C   0  0  0  0  0  0  0  0  0  0  0  0
   -3.5871    0.8277    2.4400 C   0  0  0  0  0  0  0  0  0  0  0  0
   -3.3456    0.2054    1.2614 C   0  0  0  0  0  0  0  0  0  0  0  0
  -10.6647   -1.7789    0.6567 C   0  0  0  0  0  0  0  0  0  0  0  0
  -10.8938   -3.0297    0.1347 C   0  0  0  0  0  0  0  0  0  0  0  0
  -10.0377   -5.2088   -1.9884 H   0  0  0  0  0  0  0  0  0  0  0  0
  -11.5998   -5.2118   -1.0900 H   0  0  0  0  0  0  0  0  0  0  0  0
  -11.5665   -4.5699   -2.7320 H   0  0  0  0  0  0  0  0  0  0  0  0
  -10.0985   -2.3884   -3.0587 H   0  0  0  0  0  0  0  0  0  0  0  0
   -9.6866   -0.1205   -2.0869 H   0  0  0  0  0  0  0  0  0  0  0  0
  -10.3280    4.6659    1.7177 H   0  0  0  0  0  0  0  0  0  0  0  0
  -10.2553    5.0396   -0.6380 H   0  0  0  0  0  0  0  0  0  0  0  0
  -11.9262    5.4381   -0.2443 H   0  0  0  0  0  0  0  0  0  0  0  0
  -11.5892    3.8230   -0.9909 H   0  0  0  0  0  0  0  0  0  0  0  0
  -12.9307    4.8437    1.5636 H   0  0  0  0  0  0  0  0  0  0  0  0
  -12.8443    3.0300    1.3395 H   0  0  0  0  0  0  0  0  0  0  0  0
  -12.1596    3.7573    2.8445 H   0  0  0  0  0  0  0  0  0  0  0  0
   -8.5726    2.7941    2.3388 H   0  0  0  0  0  0  0  0  0  0  0  0
   -8.1221   -0.5809    2.5242 H   0  0  0  0  0  0  0  0  0  0  0  0
   -5.7159   -1.4332    2.1914 H   0  0  0  0  0  0  0  0  0  0  0  0
   -4.9321   -1.8689   -0.8616 H   0  0  0  0  0  0  0  0  0  0  0  0
   -2.7718   -1.5730   -2.0627 H   0  0  0  0  0  0  0  0  0  0  0  0
   -0.1540   -1.5701    0.8716 H   0  0  0  0  0  0  0  0  0  0  0  0
    2.1194   -2.2471    1.4503 H   0  0  0  0  0  0  0  0  0  0  0  0
    3.7971    0.4704   -2.9255 H   0  0  0  0  0  0  0  0  0  0  0  0
    6.1275    1.3155   -2.2096 H   0  0  0  0  0  0  0  0  0  0  0  0
   10.3143   -0.3888   -1.3357 H   0  0  0  0  0  0  0  0  0  0  0  0
   11.0014    2.3530   -0.7209 H   0  0  0  0  0  0  0  0  0  0  0  0
   11.0486    2.1993   -2.4852 H   0  0  0  0  0  0  0  0  0  0  0  0
   12.6210    0.2206   -2.3037 H   0  0  0  0  0  0  0  0  0  0  0  0
   13.2047    1.7077   -1.5555 H   0  0  0  0  0  0  0  0  0  0  0  0
   12.4130    0.2273    1.8258 H   0  0  0  0  0  0  0  0  0  0  0  0
   11.9418    1.7035    0.9648 H   0  0  0  0  0  0  0  0  0  0  0  0
   14.1181    1.8198    2.2685 H   0  0  0  0  0  0  0  0  0  0  0  0
   14.3082    2.3318    0.5877 H   0  0  0  0  0  0  0  0  0  0  0  0
   15.3537   -1.5230    0.7481 H   0  0  0  0  0  0  0  0  0  0  0  0
   13.9160   -1.1351    1.7471 H   0  0  0  0  0  0  0  0  0  0  0  0
   13.2361   -1.8309   -0.5133 H   0  0  0  0  0  0  0  0  0  0  0  0
   14.2660   -0.5385   -1.2678 H   0  0  0  0  0  0  0  0  0  0  0  0
    8.8053   -1.6181   -0.7989 H   0  0  0  0  0  0  0  0  0  0  0  0
    4.6896   -2.5733   -1.1370 H   0  0  0  0  0  0  0  0  0  0  0  0
   -0.2563    1.3319    0.6250 H   0  0  0  0  0  0  0  0  0  0  0  0
   -0.6785    2.4550    2.7793 H   0  0  0  0  0  0  0  0  0  0  0  0
   -2.8538    2.1392    3.9668 H   0  0  0  0  0  0  0  0  0  0  0  0
   -4.5355    0.6891    2.9581 H   0  0  0  0  0  0  0  0  0  0  0  0
  -10.8195   -1.5838    1.7126 H   0  0  0  0  0  0  0  0  0  0  0  0
  -11.2396   -3.8757    0.7458 H   0  0  0  0  0  0  0  0  0  0  0  0
  1  2  1  0
  2  3  2  0
  3  4  1  0
  4  5  2  0
  5  6  1  0
  6  7  1  0
  7  8  2  0
  8  9  1  0
  9 10  1  0
  9 11  1  0
  8 12  1  0
 12 13  2  0
 13 14  1  0
 14 15  1  0
 15 16  2  0
 15 17  1  0
 17 18  1  0
 18 19  2  0
 19 20  1  0
 20 21  2  0
 21 22  1  0
 22 23  1  0
 23 24  2  0
 24 25  1  0
 25 26  2  0
 26 27  1  0
 27 28  1  0
 28 29  1  0
 29 30  2  0
 30 31  1  0
 31 32  1  0
 32 33  2  0
 32 34  1  0
 34 35  1  0
 35 36  1  0
 36 37  1  0
 37 38  1  0
 38 39  1  0
 39 40  1  0
 40 41  1  0
 41 42  1  0
 31 43  2  0
 43 44  1  0
 44 45  1  0
 45 46  1  0
 45 47  1  0
 45 48  1  0
 44 49  2  0
 27 50  2  0
 21 51  1  0
 51 52  2  0
 52 53  1  0
 53 54  2  0
 54 55  1  0
 55 56  2  0
  5 57  1  0
 57 58  2  0
 58  2  1  0
 13  6  1  0
 56 18  1  0
 50 23  1  0
 56 51  1  0
 49 29  1  0
 42 37  1  0
  1 59  1  0
  1 60  1  0
  1 61  1  0
  3 62  1  0
  4 63  1  0
  9 64  1  0
 10 65  1  0
 10 66  1  0
 10 67  1  0
 11 68  1  0
 11 69  1  0
 11 70  1  0
 12 71  1  0
 14 72  1  0
 17 73  1  0
 19 74  1  0
 20 75  1  0
 24 76  1  0
 25 77  1  0
 28 78  1  0
 30 79  1  0
 34 80  1  0
 35 81  1  0
 35 82  1  0
 36 83  1  0
 36 84  1  0
 38 85  1  0
 38 86  1  0
 39 87  1  0
 39 88  1  0
 41 89  1  0
 41 90  1  0
 42 91  1  0
 42 92  1  0
 43 93  1  0
 49 94  1  0
 52 95  1  0
 53 96  1  0
 54 97  1  0
 55 98  1  0
 57 99  1  0
 58100  1  0
M  END
$$$$
