@<TRIPOS>MOLECULE
*****
 100 106 0 0 0
SMALL
GASTEIGER

@<TRIPOS>ATOM
      1 C         -10.9464   -4.6142   -1.7971 C.3     1  UNL1       -0.0397
      2 C         -10.6914   -3.2725   -1.2260 C.ar    1  UNL1       -0.0503
      3 C         -10.2603   -2.2149   -1.9944 C.ar    1  UNL1       -0.0568
      4 C         -10.0278   -0.9410   -1.4578 C.ar    1  UNL1       -0.0359
      5 C         -10.2296   -0.7139   -0.1217 C.ar    1  UNL1        0.0674
      6 N         -10.0233    0.5679    0.4858 N.ar    1  UNL1       -0.2181
      7 N         -10.8236    1.6159    0.3214 N.ar    1  UNL1       -0.1694
      8 C         -10.3877    2.6769    1.0248 C.ar    1  UNL1        0.0679
      9 C         -10.9833    4.0343    1.0990 C.3     1  UNL1       -0.0025
     10 C         -11.2101    4.5834   -0.3035 C.3     1  UNL1       -0.0572
     11 C         -12.3457    3.9093    1.7761 C.3     1  UNL1       -0.0572
     12 C          -9.2440    2.2468    1.6618 C.ar    1  UNL1        0.0018
     13 C          -9.0257    0.9091    1.3098 C.ar    1  UNL1        0.1299
     14 N          -7.9611    0.0705    1.7380 N.am    1  UNL1       -0.2538
     15 C          -6.7063    0.0954    1.0887 C.2     1  UNL1        0.3092
     16 O          -6.5890    0.9284    0.1393 O.2     1  UNL1       -0.2521
     17 N          -5.5988   -0.7438    1.4354 N.am    1  UNL1       -0.2686
     18 C          -4.3654   -0.6092    0.7340 C.ar    1  UNL1        0.0427
     19 C          -4.1439   -1.2346   -0.4485 C.ar    1  UNL1       -0.0363
     20 C          -2.9484   -1.0767   -1.1219 C.ar    1  UNL1       -0.0169
     21 C          -1.9249   -0.2672   -0.6068 C.ar    1  UNL1        0.1381
     22 O          -0.7357   -0.1075   -1.2836 O.3     1  UNL1       -0.4373
     23 C           0.4975   -0.5165   -0.8951 C.ar    1  UNL1        0.2249
     24 C           0.6834   -1.2757    0.2415 C.ar    1  UNL1        0.0186
     25 C           1.9810   -1.6563    0.5648 C.ar    1  UNL1        0.0362
     26 N           2.9791   -1.2841   -0.2144 N.ar    1  UNL1       -0.2225
     27 C           2.8281   -0.5387   -1.3339 C.ar    1  UNL1        0.2226
     28 N           3.9473   -0.1472   -2.0865 N.pl3   1  UNL1       -0.2835
     29 C           5.2397   -0.5907   -1.7108 C.ar    1  UNL1        0.0348
     30 C           6.3002    0.3197   -1.8471 C.ar    1  UNL1       -0.0283
     31 C           7.5853   -0.0247   -1.5271 C.ar    1  UNL1        0.0390
     32 C           8.6863    0.9090   -1.6088 C.2     1  UNL1        0.2442
     33 O           8.4173    2.1455   -1.8150 O.2     1  UNL1       -0.2702
     34 N          10.0550    0.6077   -1.4820 N.am    1  UNL1       -0.3101
     35 C          11.1054    1.5993   -1.5494 C.3     1  UNL1        0.0247
     36 C          12.4352    0.9044   -1.4232 C.3     1  UNL1        0.0146
     37 N          12.6122    0.1469   -0.2394 N.3     1  UNL1       -0.2965
     38 C          12.7091    0.8809    0.9612 C.3     1  UNL1        0.0225
     39 C          14.0917    1.4365    1.2028 C.3     1  UNL1        0.0604
     40 O          15.0390    0.4465    1.1425 O.3     1  UNL1       -0.3772
     41 C          14.5163   -0.8021    0.8778 C.3     1  UNL1        0.0604
     42 C          13.6752   -0.8275   -0.3698 C.3     1  UNL1        0.0225
     43 C           7.8070   -1.2963   -1.0674 C.ar    1  UNL1       -0.0379
     44 C           6.7758   -2.2221   -0.9221 C.ar    1  UNL1        0.0573
     45 C           7.0369   -3.6080   -0.4289 C.3     1  UNL1        0.4175
     46 F           5.9207   -4.1525    0.1585 F       1  UNL1       -0.1659
     47 F           8.0138   -3.5910    0.5658 F       1  UNL1       -0.1659
     48 F           7.4496   -4.4409   -1.4713 F       1  UNL1       -0.1659
     49 C           5.4788   -1.8617   -1.2480 C.ar    1  UNL1       -0.0288
     50 N           1.5644   -0.1877   -1.6225 N.ar    1  UNL1       -0.1789
     51 C          -2.1423    0.3681    0.5897 C.ar    1  UNL1        0.0262
     52 C          -1.1632    1.1975    1.1467 C.ar    1  UNL1       -0.0505
     53 C          -1.4382    1.8171    2.3476 C.ar    1  UNL1       -0.0611
     54 C          -2.6319    1.6619    3.0288 C.ar    1  UNL1       -0.0611
     55 C          -3.5871    0.8277    2.4400 C.ar    1  UNL1       -0.0521
     56 C          -3.3456    0.2054    1.2614 C.ar    1  UNL1        0.0069
     57 C         -10.6647   -1.7789    0.6567 C.ar    1  UNL1       -0.0359
     58 C         -10.8938   -3.0297    0.1347 C.ar    1  UNL1       -0.0568
     59 H         -10.0377   -5.2088   -1.9884 H       1  UNL1        0.0278
     60 H         -11.5998   -5.2118   -1.0900 H       1  UNL1        0.0278
     61 H         -11.5665   -4.5699   -2.7320 H       1  UNL1        0.0278
     62 H         -10.0985   -2.3884   -3.0587 H       1  UNL1        0.0621
     63 H          -9.6866   -0.1205   -2.0869 H       1  UNL1        0.0639
     64 H         -10.3280    4.6659    1.7177 H       1  UNL1        0.0359
     65 H         -10.2553    5.0396   -0.6380 H       1  UNL1        0.0236
     66 H         -11.9262    5.4381   -0.2443 H       1  UNL1        0.0236
     67 H         -11.5892    3.8230   -0.9909 H       1  UNL1        0.0236
     68 H         -12.9307    4.8437    1.5636 H       1  UNL1        0.0236
     69 H         -12.8443    3.0300    1.3395 H       1  UNL1        0.0236
     70 H         -12.1596    3.7573    2.8445 H       1  UNL1        0.0236
     71 H          -8.5726    2.7941    2.3388 H       1  UNL1        0.0671
     72 H          -8.1221   -0.5809    2.5242 H       1  UNL1        0.1578
     73 H          -5.7159   -1.4332    2.1914 H       1  UNL1        0.1564
     74 H          -4.9321   -1.8689   -0.8616 H       1  UNL1        0.0637
     75 H          -2.7718   -1.5730   -2.0627 H       1  UNL1        0.0655
     76 H          -0.1540   -1.5701    0.8716 H       1  UNL1        0.0686
     77 H           2.1194   -2.2471    1.4503 H       1  UNL1        0.0832
     78 H           3.7971    0.4704   -2.9255 H       1  UNL1        0.1550
     79 H           6.1275    1.3155   -2.2096 H       1  UNL1        0.0644
     80 H          10.3143   -0.3888   -1.3357 H       1  UNL1        0.1490
     81 H          11.0014    2.3530   -0.7209 H       1  UNL1        0.0475
     82 H          11.0486    2.1993   -2.4852 H       1  UNL1        0.0475
     83 H          12.6210    0.2206   -2.3037 H       1  UNL1        0.0442
     84 H          13.2047    1.7077   -1.5555 H       1  UNL1        0.0442
     85 H          12.4130    0.2273    1.8258 H       1  UNL1        0.0449
     86 H          11.9418    1.7035    0.9648 H       1  UNL1        0.0449
     87 H          14.1181    1.8198    2.2685 H       1  UNL1        0.0572
     88 H          14.3082    2.3318    0.5877 H       1  UNL1        0.0572
     89 H          15.3537   -1.5230    0.7481 H       1  UNL1        0.0572
     90 H          13.9160   -1.1351    1.7471 H       1  UNL1        0.0572
     91 H          13.2361   -1.8309   -0.5133 H       1  UNL1        0.0449
     92 H          14.2660   -0.5385   -1.2678 H       1  UNL1        0.0449
     93 H           8.8053   -1.6181   -0.7989 H       1  UNL1        0.0631
     94 H           4.6896   -2.5733   -1.1370 H       1  UNL1        0.0642
     95 H          -0.2563    1.3319    0.6250 H       1  UNL1        0.0625
     96 H          -0.6785    2.4550    2.7793 H       1  UNL1        0.0618
     97 H          -2.8538    2.1392    3.9668 H       1  UNL1        0.0618
     98 H          -4.5355    0.6891    2.9581 H       1  UNL1        0.0624
     99 H         -10.8195   -1.5838    1.7126 H       1  UNL1        0.0639
    100 H         -11.2396   -3.8757    0.7458 H       1  UNL1        0.0621
@<TRIPOS>BOND
     1     1     2    1
     2     2     3   ar
     3     3     4   ar
     4     4     5   ar
     5     5     6    1
     6     6     7   ar
     7     7     8   ar
     8     8     9    1
     9     9    10    1
    10     9    11    1
    11     8    12   ar
    12    12    13   ar
    13    13    14    1
    14    14    15   am
    15    15    16    2
    16    15    17   am
    17    17    18    1
    18    18    19   ar
    19    19    20   ar
    20    20    21   ar
    21    21    22    1
    22    22    23    1
    23    23    24   ar
    24    24    25   ar
    25    25    26   ar
    26    26    27   ar
    27    27    28    1
    28    28    29    1
    29    29    30   ar
    30    30    31   ar
    31    31    32    1
    32    32    33    2
    33    32    34   am
    34    34    35    1
    35    35    36    1
    36    36    37    1
    37    37    38    1
    38    38    39    1
    39    39    40    1
    40    40    41    1
    41    41    42    1
    42    31    43   ar
    43    43    44   ar
    44    44    45    1
    45    45    46    1
    46    45    47    1
    47    45    48    1
    48    44    49   ar
    49    27    50   ar
    50    21    51   ar
    51    51    52   ar
    52    52    53   ar
    53    53    54   ar
    54    54    55   ar
    55    55    56   ar
    56     5    57   ar
    57    57    58   ar
    58    58     2   ar
    59    13     6   ar
    60    56    18   ar
    61    50    23   ar
    62    56    51   ar
    63    49    29   ar
    64    42    37    1
    65     1    59    1
    66     1    60    1
    67     1    61    1
    68     3    62    1
    69     4    63    1
    70     9    64    1
    71    10    65    1
    72    10    66    1
    73    10    67    1
    74    11    68    1
    75    11    69    1
    76    11    70    1
    77    12    71    1
    78    14    72    1
    79    17    73    1
    80    19    74    1
    81    20    75    1
    82    24    76    1
    83    25    77    1
    84    28    78    1
    85    30    79    1
    86    34    80    1
    87    35    81    1
    88    35    82    1
    89    36    83    1
    90    36    84    1
    91    38    85    1
    92    38    86    1
    93    39    87    1
    94    39    88    1
    95    41    89    1
    96    41    90    1
    97    42    91    1
    98    42    92    1
    99    43    93    1
   100    49    94    1
   101    52    95    1
   102    53    96    1
   103    54    97    1
   104    55    98    1
   105    57    99    1
   106    58   100    1
