
     RDKit          3D

 30 31  0  0  0  0  0  0  0  0999 V2000
    2.1251    0.7058   -0.9928 C   0  0  1  0  0  0  0  0  0  0  0  0
    1.2029   -0.7546   -1.5677 S   0  0  0  0  0  0  0  0  0  0  0  0
   -0.1848   -0.5543   -0.4191 C   0  0  0  0  0  0  0  0  0  0  0  0
   -1.3548   -1.3411   -0.4081 N   0  0  0  0  0  0  0  0  0  0  0  0
   -2.6286   -0.8570   -0.1464 C   0  0  0  0  0  0  0  0  0  0  0  0
   -3.7554   -1.6922   -0.1323 C   0  0  0  0  0  0  0  0  0  0  0  0
   -3.5665   -3.0264   -0.3858 F   0  0  0  0  0  0  0  0  0  0  0  0
   -5.0446   -1.2722    0.1181 C   0  0  0  0  0  0  0  0  0  0  0  0
   -5.2705    0.0506    0.3747 C   0  0  0  0  0  0  0  0  0  0  0  0
   -4.2219    0.9323    0.3794 C   0  0  0  0  0  0  0  0  0  0  0  0
   -2.9545    0.4496    0.1213 C   0  0  0  0  0  0  0  0  0  0  0  0
    0.0216    0.4075    0.4047 N   0  0  0  0  0  0  0  0  0  0  0  0
    1.2701    1.0412    0.1878 C   0  0  0  0  0  0  0  0  0  0  0  0
    1.7346    1.9283    0.9809 O   0  0  0  0  0  0  0  0  0  0  0  0
    3.5275    0.3197   -0.6113 C   0  0  0  0  0  0  0  0  0  0  0  0
    3.5886   -0.6925    0.4828 C   0  0  0  0  0  0  0  0  0  0  0  0
    4.3966    1.4797   -0.2764 C   0  0  0  0  0  0  0  0  0  0  0  0
    2.1232    1.4830   -1.7537 H   0  0  0  0  0  0  0  0  0  0  0  0
   -1.2645   -2.3829   -0.6161 H   0  0  0  0  0  0  0  0  0  0  0  0
   -5.8473   -2.0017    0.1051 H   0  0  0  0  0  0  0  0  0  0  0  0
   -6.2867    0.3542    0.5674 H   0  0  0  0  0  0  0  0  0  0  0  0
   -4.4091    1.9784    0.5835 H   0  0  0  0  0  0  0  0  0  0  0  0
   -2.1828    1.1939    0.1393 H   0  0  0  0  0  0  0  0  0  0  0  0
    3.9548   -0.1554   -1.5327 H   0  0  0  0  0  0  0  0  0  0  0  0
    3.4758   -0.2036    1.4625 H   0  0  0  0  0  0  0  0  0  0  0  0
    4.6145   -1.1266    0.4768 H   0  0  0  0  0  0  0  0  0  0  0  0
    2.8659   -1.5299    0.3477 H   0  0  0  0  0  0  0  0  0  0  0  0
    4.3383    2.2732   -1.0590 H   0  0  0  0  0  0  0  0  0  0  0  0
    5.4651    1.1227   -0.2971 H   0  0  0  0  0  0  0  0  0  0  0  0
    4.2674    1.8703    0.7522 H   0  0  0  0  0  0  0  0  0  0  0  0
  1  2  1  0
  2  3  1  0
  3  4  1  0
  4  5  1  0
  5  6  2  0
  6  7  1  0
  6  8  1  0
  8  9  2  0
  9 10  1  0
 10 11  2  0
  3 12  2  0
 12 13  1  0
 13 14  2  0
  1 15  1  0
 15 16  1  0
 15 17  1  0
 13  1  1  0
 11  5  1  0
  1 18  1  6
  4 19  1  0
  8 20  1  0
  9 21  1  0
 10 22  1  0
 11 23  1  0
 15 24  1  0
 16 25  1  0
 16 26  1  0
 16 27  1  0
 17 28  1  0
 17 29  1  0
 17 30  1  0
M  END
$$$$
