@<TRIPOS>MOLECULE
*****
 30 31 0 0 0
SMALL
GASTEIGER

@<TRIPOS>ATOM
      1 C           2.1251    0.7058   -0.9928 C.3     1  UNL1        0.0927
      2 S           1.2029   -0.7546   -1.5677 S.3     1  UNL1       -0.0797
      3 C          -0.1848   -0.5543   -0.4191 C.2     1  UNL1        0.1514
      4 N          -1.3548   -1.3411   -0.4081 N.pl3   1  UNL1       -0.2936
      5 C          -2.6286   -0.8570   -0.1464 C.ar    1  UNL1        0.0683
      6 C          -3.7554   -1.6922   -0.1323 C.ar    1  UNL1        0.1445
      7 F          -3.5665   -3.0264   -0.3858 F       1  UNL1       -0.2035
      8 C          -5.0446   -1.2722    0.1181 C.ar    1  UNL1       -0.0246
      9 C          -5.2705    0.0506    0.3747 C.ar    1  UNL1       -0.0589
     10 C          -4.2219    0.9323    0.3794 C.ar    1  UNL1       -0.0598
     11 C          -2.9545    0.4496    0.1213 C.ar    1  UNL1       -0.0377
     12 N           0.0216    0.4075    0.4047 N.am    1  UNL1       -0.1581
     13 C           1.2701    1.0412    0.1878 C.2     1  UNL1        0.2518
     14 O           1.7346    1.9283    0.9809 O.2     1  UNL1       -0.2724
     15 C           3.5275    0.3197   -0.6113 C.3     1  UNL1       -0.0260
     16 C           3.5886   -0.6925    0.4828 C.3     1  UNL1       -0.0612
     17 C           4.3966    1.4797   -0.2764 C.3     1  UNL1       -0.0612
     18 H           2.1232    1.4830   -1.7537 H       1  UNL1        0.0514
     19 H          -1.2645   -2.3829   -0.6161 H       1  UNL1        0.1539
     20 H          -5.8473   -2.0017    0.1051 H       1  UNL1        0.0647
     21 H          -6.2867    0.3542    0.5674 H       1  UNL1        0.0618
     22 H          -4.4091    1.9784    0.5835 H       1  UNL1        0.0618
     23 H          -2.1828    1.1939    0.1393 H       1  UNL1        0.0637
     24 H           3.9548   -0.1554   -1.5327 H       1  UNL1        0.0311
     25 H           3.4758   -0.2036    1.4625 H       1  UNL1        0.0233
     26 H           4.6145   -1.1266    0.4768 H       1  UNL1        0.0233
     27 H           2.8659   -1.5299    0.3477 H       1  UNL1        0.0233
     28 H           4.3383    2.2732   -1.0590 H       1  UNL1        0.0233
     29 H           5.4651    1.1227   -0.2971 H       1  UNL1        0.0233
     30 H           4.2674    1.8703    0.7522 H       1  UNL1        0.0233
@<TRIPOS>BOND
     1     1     2    1
     2     2     3    1
     3     3     4    1
     4     4     5    1
     5     5     6   ar
     6     6     7    1
     7     6     8   ar
     8     8     9   ar
     9     9    10   ar
    10    10    11   ar
    11     3    12    2
    12    12    13    1
    13    13    14    2
    14     1    15    1
    15    15    16    1
    16    15    17    1
    17    13     1    1
    18    11     5   ar
    19     1    18    1
    20     4    19    1
    21     8    20    1
    22     9    21    1
    23    10    22    1
    24    11    23    1
    25    15    24    1
    26    16    25    1
    27    16    26    1
    28    16    27    1
    29    17    28    1
    30    17    29    1
    31    17    30    1
