@<TRIPOS>MOLECULE
*****
 47 50 0 0 0
SMALL
GASTEIGER

@<TRIPOS>ATOM
      1 O          -0.0528   -2.0728    1.1767 O.2     1  UNL1       -0.2700
      2 C           0.0523   -0.8933    0.6659 C.2     1  UNL1        0.2471
      3 C           1.4004   -0.3795    0.7536 C.ar    1  UNL1        0.0375
      4 C           1.7503    0.5316    1.7073 C.ar    1  UNL1       -0.0490
      5 C           3.0094    1.0313    1.7922 C.ar    1  UNL1       -0.0533
      6 C           3.9972    0.6416    0.9152 C.ar    1  UNL1       -0.0178
      7 C           5.2795    1.1101    0.9655 C.ar    1  UNL1       -0.0540
      8 C           6.2799    0.7144    0.0955 C.ar    1  UNL1       -0.0612
      9 C           5.9270   -0.2123   -0.8765 C.ar    1  UNL1       -0.0612
     10 C           4.6529   -0.7119   -0.9687 C.ar    1  UNL1       -0.0540
     11 C           3.6763   -0.2936   -0.0788 C.ar    1  UNL1       -0.0172
     12 C           2.3926   -0.7792   -0.1363 C.ar    1  UNL1       -0.0419
     13 N          -1.0893   -0.2851    0.1108 N.am    1  UNL1       -0.2914
     14 C          -1.2597    0.9877   -0.4612 C.3     1  UNL1        0.0266
     15 C          -1.0618    2.2303    0.3903 C.3     1  UNL1       -0.0342
     16 C          -0.8448    2.9416   -0.9706 C.3     1  UNL1       -0.0497
     17 C          -0.2928    1.5685   -1.4142 C.3     1  UNL1       -0.0342
     18 C          -2.3004   -1.1355    0.1058 C.3     1  UNL1        0.0289
     19 C          -3.4828   -0.5090    0.7526 C.3     1  UNL1       -0.0216
     20 C          -4.6430   -1.4774    0.6014 C.3     1  UNL1       -0.0024
     21 N          -4.8961   -1.8904   -0.7465 N.3     1  UNL1       -0.3159
     22 C          -3.7312   -2.5040   -1.3045 C.3     1  UNL1       -0.0024
     23 C          -2.5918   -1.4820   -1.3637 C.3     1  UNL1       -0.0216
     24 H           1.0403    0.9051    2.4599 H       1  UNL1        0.0625
     25 H           3.3111    1.7647    2.5425 H       1  UNL1        0.0624
     26 H           5.5098    1.8492    1.7507 H       1  UNL1        0.0624
     27 H           7.2741    1.1065    0.1681 H       1  UNL1        0.0618
     28 H           6.7165   -0.5443   -1.5646 H       1  UNL1        0.0618
     29 H           4.3899   -1.4321   -1.7198 H       1  UNL1        0.0624
     30 H           2.1277   -1.5050   -0.8898 H       1  UNL1        0.0631
     31 H          -2.3235    1.1046   -0.8913 H       1  UNL1        0.0501
     32 H          -0.1570    2.3287    0.9477 H       1  UNL1        0.0283
     33 H          -1.9797    2.6415    0.8440 H       1  UNL1        0.0283
     34 H          -1.7649    3.2454   -1.4653 H       1  UNL1        0.0266
     35 H          -0.0858    3.7414   -0.9122 H       1  UNL1        0.0266
     36 H           0.7819    1.5710   -1.1075 H       1  UNL1        0.0283
     37 H          -0.4822    1.3549   -2.4861 H       1  UNL1        0.0283
     38 H          -2.1183   -2.1178    0.5753 H       1  UNL1        0.0501
     39 H          -3.8202    0.4400    0.2936 H       1  UNL1        0.0295
     40 H          -3.2999   -0.4468    1.8506 H       1  UNL1        0.0295
     41 H          -4.5875   -2.3459    1.2734 H       1  UNL1        0.0425
     42 H          -5.5465   -0.9065    0.9368 H       1  UNL1        0.0425
     43 H          -5.2548   -1.1078   -1.3134 H       1  UNL1        0.1219
     44 H          -3.3767   -3.3172   -0.6165 H       1  UNL1        0.0425
     45 H          -3.9283   -2.9138   -2.3220 H       1  UNL1        0.0425
     46 H          -2.9148   -0.5776   -1.8697 H       1  UNL1        0.0295
     47 H          -1.6826   -1.9693   -1.7399 H       1  UNL1        0.0295
@<TRIPOS>BOND
     1     1     2    2
     2     2     3    1
     3     3     4   ar
     4     4     5   ar
     5     5     6   ar
     6     6     7   ar
     7     7     8   ar
     8     8     9   ar
     9     9    10   ar
    10    10    11   ar
    11    11    12   ar
    12     2    13   am
    13    13    14    1
    14    14    15    1
    15    15    16    1
    16    16    17    1
    17    13    18    1
    18    18    19    1
    19    19    20    1
    20    20    21    1
    21    21    22    1
    22    22    23    1
    23    12     3   ar
    24    17    14    1
    25    23    18    1
    26    11     6   ar
    27     4    24    1
    28     5    25    1
    29     7    26    1
    30     8    27    1
    31     9    28    1
    32    10    29    1
    33    12    30    1
    34    14    31    1
    35    15    32    1
    36    15    33    1
    37    16    34    1
    38    16    35    1
    39    17    36    1
    40    17    37    1
    41    18    38    1
    42    19    39    1
    43    19    40    1
    44    20    41    1
    45    20    42    1
    46    21    43    1
    47    22    44    1
    48    22    45    1
    49    23    46    1
    50    23    47    1
