@<TRIPOS>MOLECULE
*****
 54 58 0 0 0
SMALL
GASTEIGER

@<TRIPOS>ATOM
      1 O          -0.4778    0.0091   -2.1188 O.2     1  UNL1       -0.2748
      2 C           0.0589   -0.5201   -1.0781 C.2     1  UNL1        0.2271
      3 C          -0.8288   -1.3152   -0.2213 C.3     1  UNL1        0.0826
      4 C          -2.2151   -1.2624   -0.7829 C.ar    1  UNL1        0.1206
      5 N          -3.0999   -0.3196   -0.4063 N.ar    1  UNL1       -0.2186
      6 C          -4.3440   -0.2672   -0.9094 C.ar    1  UNL1        0.1285
      7 N          -5.2153    0.7413   -0.4739 N.pl3   1  UNL1       -0.3106
      8 C          -4.8088    1.7353    0.5005 C.3     1  UNL1        0.0370
      9 C          -5.6626    1.4946    1.7392 C.3     1  UNL1        0.0634
     10 O          -6.9336    1.0836    1.4124 O.3     1  UNL1       -0.3767
     11 C          -7.3680    1.5241    0.1733 C.3     1  UNL1        0.0634
     12 C          -6.5879    0.8608   -0.9693 C.3     1  UNL1        0.0370
     13 C          -4.7033   -1.2193   -1.8390 C.ar    1  UNL1        0.0427
     14 C          -3.8096   -2.1996   -2.2421 C.ar    1  UNL1        0.2533
     15 O          -4.1528   -3.0500   -3.0824 O.2     1  UNL1       -0.2677
     16 N          -2.5919   -2.1614   -1.6773 N.ar    1  UNL1       -0.3104
     17 N           1.4431   -0.2909   -0.8539 N.am    1  UNL1       -0.2705
     18 C           2.2920    0.4637   -1.7777 C.3     1  UNL1        0.0239
     19 C           3.5196    0.8207   -1.0100 C.3     1  UNL1       -0.0091
     20 C           3.5105   -0.0838    0.1713 C.ar    1  UNL1       -0.0167
     21 C           4.4972   -0.3333    1.1162 C.ar    1  UNL1       -0.0114
     22 C           5.8034    0.3020    1.0941 C.ar    1  UNL1        0.0005
     23 C           6.9065   -0.5173    1.2717 C.ar    1  UNL1       -0.0511
     24 C           8.1752    0.0005    1.2681 C.ar    1  UNL1       -0.0430
     25 C           8.3824    1.3612    1.0859 C.ar    1  UNL1        0.0276
     26 N           7.3041    2.1291    0.9171 N.ar    1  UNL1       -0.2627
     27 C           6.0327    1.6376    0.9168 C.ar    1  UNL1        0.0353
     28 C           4.2486   -1.2297    2.1430 C.ar    1  UNL1       -0.0536
     29 C           3.0322   -1.8664    2.2232 C.ar    1  UNL1       -0.0594
     30 C           2.0696   -1.5956    1.2651 C.ar    1  UNL1       -0.0400
     31 C           2.2623   -0.7094    0.2164 C.ar    1  UNL1        0.0401
     32 H          -0.8943   -0.9124    0.8074 H       1  UNL1        0.0438
     33 H          -0.5631   -2.4007   -0.2458 H       1  UNL1        0.0438
     34 H          -3.7479    1.6995    0.7467 H       1  UNL1        0.0487
     35 H          -5.1381    2.7184    0.0952 H       1  UNL1        0.0487
     36 H          -5.1825    0.6641    2.3210 H       1  UNL1        0.0575
     37 H          -5.6535    2.3837    2.3863 H       1  UNL1        0.0575
     38 H          -7.3880    2.6127    0.0675 H       1  UNL1        0.0575
     39 H          -8.4197    1.1516    0.0594 H       1  UNL1        0.0575
     40 H          -6.5779    1.5937   -1.7947 H       1  UNL1        0.0487
     41 H          -7.0302   -0.1054   -1.2195 H       1  UNL1        0.0487
     42 H          -5.6918   -1.2236   -2.2759 H       1  UNL1        0.0706
     43 H          -1.9076   -2.8980   -1.9745 H       1  UNL1        0.1700
     44 H           2.5457   -0.1511   -2.6726 H       1  UNL1        0.0472
     45 H           1.7020    1.3661   -2.0942 H       1  UNL1        0.0472
     46 H           4.4537    0.7183   -1.6028 H       1  UNL1        0.0329
     47 H           3.3987    1.8945   -0.7091 H       1  UNL1        0.0329
     48 H           6.7858   -1.5915    1.4179 H       1  UNL1        0.0625
     49 H           9.0096   -0.6658    1.4089 H       1  UNL1        0.0633
     50 H           9.3986    1.7204    1.0907 H       1  UNL1        0.0829
     51 H           5.2053    2.3044    0.7791 H       1  UNL1        0.0836
     52 H           5.0118   -1.4301    2.8835 H       1  UNL1        0.0624
     53 H           2.8295   -2.5747    3.0307 H       1  UNL1        0.0618
     54 H           1.1147   -2.0969    1.3351 H       1  UNL1        0.0636
@<TRIPOS>BOND
     1     1     2    2
     2     2     3    1
     3     3     4    1
     4     4     5   ar
     5     5     6   ar
     6     6     7    1
     7     7     8    1
     8     8     9    1
     9     9    10    1
    10    10    11    1
    11    11    12    1
    12     6    13   ar
    13    13    14   ar
    14    14    15    2
    15    14    16   ar
    16     2    17   am
    17    17    18    1
    18    18    19    1
    19    19    20    1
    20    20    21   ar
    21    21    22    1
    22    22    23   ar
    23    23    24   ar
    24    24    25   ar
    25    25    26   ar
    26    26    27   ar
    27    21    28   ar
    28    28    29   ar
    29    29    30   ar
    30    30    31   ar
    31    16     4   ar
    32    31    17    1
    33    12     7    1
    34    31    20   ar
    35    27    22   ar
    36     3    32    1
    37     3    33    1
    38     8    34    1
    39     8    35    1
    40     9    36    1
    41     9    37    1
    42    11    38    1
    43    11    39    1
    44    12    40    1
    45    12    41    1
    46    13    42    1
    47    16    43    1
    48    18    44    1
    49    18    45    1
    50    19    46    1
    51    19    47    1
    52    23    48    1
    53    24    49    1
    54    25    50    1
    55    27    51    1
    56    28    52    1
    57    29    53    1
    58    30    54    1
