
     RDKit          3D

 54 58  0  0  0  0  0  0  0  0999 V2000
   -0.4778    0.0091   -2.1188 O   0  0  0  0  0  0  0  0  0  0  0  0
    0.0589   -0.5201   -1.0781 C   0  0  0  0  0  0  0  0  0  0  0  0
   -0.8288   -1.3152   -0.2213 C   0  0  0  0  0  0  0  0  0  0  0  0
   -2.2151   -1.2624   -0.7829 C   0  0  0  0  0  0  0  0  0  0  0  0
   -3.0999   -0.3196   -0.4063 N   0  0  0  0  0  0  0  0  0  0  0  0
   -4.3440   -0.2672   -0.9094 C   0  0  0  0  0  0  0  0  0  0  0  0
   -5.2153    0.7413   -0.4739 N   0  0  0  0  0  0  0  0  0  0  0  0
   -4.8088    1.7353    0.5005 C   0  0  0  0  0  0  0  0  0  0  0  0
   -5.6626    1.4946    1.7392 C   0  0  0  0  0  0  0  0  0  0  0  0
   -6.9336    1.0836    1.4124 O   0  0  0  0  0  0  0  0  0  0  0  0
   -7.3680    1.5241    0.1733 C   0  0  0  0  0  0  0  0  0  0  0  0
   -6.5879    0.8608   -0.9693 C   0  0  0  0  0  0  0  0  0  0  0  0
   -4.7033   -1.2193   -1.8390 C   0  0  0  0  0  0  0  0  0  0  0  0
   -3.8096   -2.1996   -2.2421 C   0  0  0  0  0  0  0  0  0  0  0  0
   -4.1528   -3.0500   -3.0824 O   0  0  0  0  0  0  0  0  0  0  0  0
   -2.5919   -2.1614   -1.6773 N   0  0  0  0  0  0  0  0  0  0  0  0
    1.4431   -0.2909   -0.8539 N   0  0  0  0  0  0  0  0  0  0  0  0
    2.2920    0.4637   -1.7777 C   0  0  0  0  0  0  0  0  0  0  0  0
    3.5196    0.8207   -1.0100 C   0  0  0  0  0  0  0  0  0  0  0  0
    3.5105   -0.0838    0.1713 C   0  0  0  0  0  0  0  0  0  0  0  0
    4.4972   -0.3333    1.1162 C   0  0  0  0  0  0  0  0  0  0  0  0
    5.8034    0.3020    1.0941 C   0  0  0  0  0  0  0  0  0  0  0  0
    6.9065   -0.5173    1.2717 C   0  0  0  0  0  0  0  0  0  0  0  0
    8.1752    0.0005    1.2681 C   0  0  0  0  0  0  0  0  0  0  0  0
    8.3824    1.3612    1.0859 C   0  0  0  0  0  0  0  0  0  0  0  0
    7.3041    2.1291    0.9171 N   0  0  0  0  0  0  0  0  0  0  0  0
    6.0327    1.6376    0.9168 C   0  0  0  0  0  0  0  0  0  0  0  0
    4.2486   -1.2297    2.1430 C   0  0  0  0  0  0  0  0  0  0  0  0
    3.0322   -1.8664    2.2232 C   0  0  0  0  0  0  0  0  0  0  0  0
    2.0696   -1.5956    1.2651 C   0  0  0  0  0  0  0  0  0  0  0  0
    2.2623   -0.7094    0.2164 C   0  0  0  0  0  0  0  0  0  0  0  0
   -0.8943   -0.9124    0.8074 H   0  0  0  0  0  0  0  0  0  0  0  0
   -0.5631   -2.4007   -0.2458 H   0  0  0  0  0  0  0  0  0  0  0  0
   -3.7479    1.6995    0.7467 H   0  0  0  0  0  0  0  0  0  0  0  0
   -5.1381    2.7184    0.0952 H   0  0  0  0  0  0  0  0  0  0  0  0
   -5.1825    0.6641    2.3210 H   0  0  0  0  0  0  0  0  0  0  0  0
   -5.6535    2.3837    2.3863 H   0  0  0  0  0  0  0  0  0  0  0  0
   -7.3880    2.6127    0.0675 H   0  0  0  0  0  0  0  0  0  0  0  0
   -8.4197    1.1516    0.0594 H   0  0  0  0  0  0  0  0  0  0  0  0
   -6.5779    1.5937   -1.7947 H   0  0  0  0  0  0  0  0  0  0  0  0
   -7.0302   -0.1054   -1.2195 H   0  0  0  0  0  0  0  0  0  0  0  0
   -5.6918   -1.2236   -2.2759 H   0  0  0  0  0  0  0  0  0  0  0  0
   -1.9076   -2.8980   -1.9745 H   0  0  0  0  0  0  0  0  0  0  0  0
    2.5457   -0.1511   -2.6726 H   0  0  0  0  0  0  0  0  0  0  0  0
    1.7020    1.3661   -2.0942 H   0  0  0  0  0  0  0  0  0  0  0  0
    4.4537    0.7183   -1.6028 H   0  0  0  0  0  0  0  0  0  0  0  0
    3.3987    1.8945   -0.7091 H   0  0  0  0  0  0  0  0  0  0  0  0
    6.7858   -1.5915    1.4179 H   0  0  0  0  0  0  0  0  0  0  0  0
    9.0096   -0.6658    1.4089 H   0  0  0  0  0  0  0  0  0  0  0  0
    9.3986    1.7204    1.0907 H   0  0  0  0  0  0  0  0  0  0  0  0
    5.2053    2.3044    0.7791 H   0  0  0  0  0  0  0  0  0  0  0  0
    5.0118   -1.4301    2.8835 H   0  0  0  0  0  0  0  0  0  0  0  0
    2.8295   -2.5747    3.0307 H   0  0  0  0  0  0  0  0  0  0  0  0
    1.1147   -2.0969    1.3351 H   0  0  0  0  0  0  0  0  0  0  0  0
  1  2  2  0
  2  3  1  0
  3  4  1  0
  4  5  2  0
  5  6  1  0
  6  7  1  0
  7  8  1  0
  8  9  1  0
  9 10  1  0
 10 11  1  0
 11 12  1  0
  6 13  2  0
 13 14  1  0
 14 15  2  0
 14 16  1  0
  2 17  1  0
 17 18  1  0
 18 19  1  0
 19 20  1  0
 20 21  2  0
 21 22  1  0
 22 23  2  0
 23 24  1  0
 24 25  2  0
 25 26  1  0
 26 27  2  0
 21 28  1  0
 28 29  2  0
 29 30  1  0
 30 31  2  0
 16  4  1  0
 31 17  1  0
 12  7  1  0
 31 20  1  0
 27 22  1  0
  3 32  1  0
  3 33  1  0
  8 34  1  0
  8 35  1  0
  9 36  1  0
  9 37  1  0
 11 38  1  0
 11 39  1  0
 12 40  1  0
 12 41  1  0
 13 42  1  0
 16 43  1  0
 18 44  1  0
 18 45  1  0
 19 46  1  0
 19 47  1  0
 23 48  1  0
 24 49  1  0
 25 50  1  0
 27 51  1  0
 28 52  1  0
 29 53  1  0
 30 54  1  0
M  END
$$$$
