@<TRIPOS>MOLECULE
*****
 65 69 0 0 0
SMALL
GASTEIGER

@<TRIPOS>ATOM
      1 C          -3.0924   -0.1380    2.8921 C.3     1  UNL1        0.0370
      2 O          -3.5214    0.9481    2.1864 O.3     1  UNL1       -0.3760
      3 C          -4.0296    0.6640    0.9096 C.3     1  UNL1        0.0969
      4 C          -5.5025    1.0596    0.9356 C.3     1  UNL1        0.0753
      5 O          -6.0563    1.2357   -0.3004 O.3     1  UNL1       -0.3771
      6 C          -5.4206    2.2341   -1.0399 C.3     1  UNL1        0.0493
      7 C          -4.0484    1.6923   -1.3652 C.3     1  UNL1       -0.0115
      8 C          -3.2981    1.5625   -0.0395 C.3     1  UNL1        0.0383
      9 N          -1.9250    1.2970   -0.2424 N.3     1  UNL1       -0.3079
     10 C          -1.5211    0.2702   -1.1149 C.3     1  UNL1        0.0092
     11 C          -2.0033   -1.1015   -0.8446 C.3     1  UNL1       -0.0337
     12 C          -1.0167   -1.9416   -1.6431 C.3     1  UNL1       -0.0256
     13 C          -1.1661   -1.7046   -3.1069 C.3     1  UNL1       -0.0492
     14 C           0.1377   -1.1612   -3.6160 C.3     1  UNL1       -0.0518
     15 C           1.1181   -1.5857   -2.5090 C.3     1  UNL1       -0.0387
     16 C           0.3183   -1.3242   -1.2786 C.3     1  UNL1        0.0514
     17 C           0.8662   -1.9482   -0.0462 C.2     1  UNL1        0.2223
     18 O           0.1047   -2.7961    0.5393 O.2     1  UNL1       -0.2750
     19 N           2.1272   -1.7003    0.5317 N.am    1  UNL1       -0.2963
     20 C           2.4442   -2.4223    1.7620 C.3     1  UNL1        0.0204
     21 C           3.1124   -1.5361    2.7745 C.3     1  UNL1        0.0058
     22 C           3.9537   -0.4997    2.1794 C.ar    1  UNL1        0.0474
     23 N           4.8073    0.1387    3.0260 N.ar    1  UNL1       -0.2590
     24 C           5.6412    1.1119    2.6224 C.ar    1  UNL1        0.0395
     25 C           5.6578    1.5004    1.3144 C.ar    1  UNL1        0.0732
     26 C           6.5874    2.5825    0.8727 C.3     1  UNL1        0.4188
     27 F           7.7049    2.0224    0.2419 F       1  UNL1       -0.1658
     28 F           7.0633    3.2405    1.9899 F       1  UNL1       -0.1658
     29 F           5.9834    3.4718    0.0364 F       1  UNL1       -0.1658
     30 C           4.8041    0.8682    0.4454 C.ar    1  UNL1       -0.0423
     31 C           3.9620   -0.1229    0.8828 C.ar    1  UNL1       -0.0083
     32 C           3.0412   -0.7956   -0.0820 C.3     1  UNL1        0.0414
     33 C           0.0129    0.1119   -1.0288 C.3     1  UNL1       -0.0233
     34 H          -2.2740   -0.6930    2.4068 H       1  UNL1        0.0524
     35 H          -2.6882    0.2555    3.8708 H       1  UNL1        0.0524
     36 H          -3.9145   -0.8252    3.1995 H       1  UNL1        0.0524
     37 H          -3.9937   -0.3807    0.6567 H       1  UNL1        0.0634
     38 H          -5.6297    1.9932    1.5555 H       1  UNL1        0.0586
     39 H          -6.0861    0.2769    1.4653 H       1  UNL1        0.0586
     40 H          -5.3658    3.1613   -0.4637 H       1  UNL1        0.0560
     41 H          -6.0378    2.4217   -1.9309 H       1  UNL1        0.0560
     42 H          -4.1837    0.7416   -1.8820 H       1  UNL1        0.0303
     43 H          -3.5330    2.4728   -1.9636 H       1  UNL1        0.0303
     44 H          -3.3652    2.6027    0.4062 H       1  UNL1        0.0487
     45 H          -1.3012    2.1284   -0.2724 H       1  UNL1        0.1225
     46 H          -1.6847    0.5703   -2.1811 H       1  UNL1        0.0461
     47 H          -1.8830   -1.3914    0.1949 H       1  UNL1        0.0283
     48 H          -3.0340   -1.2612   -1.2552 H       1  UNL1        0.0283
     49 H          -1.0745   -3.0068   -1.4044 H       1  UNL1        0.0311
     50 H          -1.9891   -1.0337   -3.3897 H       1  UNL1        0.0268
     51 H          -1.3792   -2.6916   -3.6170 H       1  UNL1        0.0268
     52 H           0.1336   -0.0685   -3.7413 H       1  UNL1        0.0266
     53 H           0.4027   -1.6457   -4.5561 H       1  UNL1        0.0266
     54 H           1.2158   -2.6881   -2.6282 H       1  UNL1        0.0275
     55 H           2.0636   -1.0573   -2.6041 H       1  UNL1        0.0275
     56 H           1.5201   -2.8175    2.2297 H       1  UNL1        0.0468
     57 H           3.0660   -3.2994    1.4902 H       1  UNL1        0.0468
     58 H           3.7412   -2.1650    3.4424 H       1  UNL1        0.0344
     59 H           2.3542   -1.0187    3.4235 H       1  UNL1        0.0344
     60 H           6.3138    1.6025    3.3332 H       1  UNL1        0.0835
     61 H           4.7956    1.1520   -0.5849 H       1  UNL1        0.0627
     62 H           3.6721   -1.2709   -0.8671 H       1  UNL1        0.0514
     63 H           2.4827    0.0204   -0.5668 H       1  UNL1        0.0514
     64 H           0.5303    0.8213   -1.6858 H       1  UNL1        0.0290
     65 H           0.2792    0.3759    0.0346 H       1  UNL1        0.0290
@<TRIPOS>BOND
     1     1     2    1
     2     2     3    1
     3     3     4    1
     4     4     5    1
     5     5     6    1
     6     6     7    1
     7     7     8    1
     8     8     9    1
     9     9    10    1
    10    10    11    1
    11    11    12    1
    12    12    13    1
    13    13    14    1
    14    14    15    1
    15    15    16    1
    16    16    17    1
    17    17    18    2
    18    17    19   am
    19    19    20    1
    20    20    21    1
    21    21    22    1
    22    22    23   ar
    23    23    24   ar
    24    24    25   ar
    25    25    26    1
    26    26    27    1
    27    26    28    1
    28    26    29    1
    29    25    30   ar
    30    30    31   ar
    31    31    32    1
    32    16    33    1
    33     8     3    1
    34    33    10    1
    35    16    12    1
    36    32    19    1
    37    31    22   ar
    38     1    34    1
    39     1    35    1
    40     1    36    1
    41     3    37    1
    42     4    38    1
    43     4    39    1
    44     6    40    1
    45     6    41    1
    46     7    42    1
    47     7    43    1
    48     8    44    1
    49     9    45    1
    50    10    46    1
    51    11    47    1
    52    11    48    1
    53    12    49    1
    54    13    50    1
    55    13    51    1
    56    14    52    1
    57    14    53    1
    58    15    54    1
    59    15    55    1
    60    20    56    1
    61    20    57    1
    62    21    58    1
    63    21    59    1
    64    24    60    1
    65    30    61    1
    66    32    62    1
    67    32    63    1
    68    33    64    1
    69    33    65    1
