
     RDKit          3D

 65 69  0  0  0  0  0  0  0  0999 V2000
   -3.0924   -0.1380    2.8921 C   0  0  0  0  0  0  0  0  0  0  0  0
   -3.5214    0.9481    2.1864 O   0  0  0  0  0  0  0  0  0  0  0  0
   -4.0296    0.6640    0.9096 C   0  0  0  0  0  0  0  0  0  0  0  0
   -5.5025    1.0596    0.9356 C   0  0  0  0  0  0  0  0  0  0  0  0
   -6.0563    1.2357   -0.3004 O   0  0  0  0  0  0  0  0  0  0  0  0
   -5.4206    2.2341   -1.0399 C   0  0  0  0  0  0  0  0  0  0  0  0
   -4.0484    1.6923   -1.3652 C   0  0  0  0  0  0  0  0  0  0  0  0
   -3.2981    1.5625   -0.0395 C   0  0  0  0  0  0  0  0  0  0  0  0
   -1.9250    1.2970   -0.2424 N   0  0  0  0  0  0  0  0  0  0  0  0
   -1.5211    0.2702   -1.1149 C   0  0  2  0  0  0  0  0  0  0  0  0
   -2.0033   -1.1015   -0.8446 C   0  0  0  0  0  0  0  0  0  0  0  0
   -1.0167   -1.9416   -1.6431 C   0  0  1  0  0  0  0  0  0  0  0  0
   -1.1661   -1.7046   -3.1069 C   0  0  0  0  0  0  0  0  0  0  0  0
    0.1377   -1.1612   -3.6160 C   0  0  0  0  0  0  0  0  0  0  0  0
    1.1181   -1.5857   -2.5090 C   0  0  0  0  0  0  0  0  0  0  0  0
    0.3183   -1.3242   -1.2786 C   0  0  2  0  0  0  0  0  0  0  0  0
    0.8662   -1.9482   -0.0462 C   0  0  0  0  0  0  0  0  0  0  0  0
    0.1047   -2.7961    0.5393 O   0  0  0  0  0  0  0  0  0  0  0  0
    2.1272   -1.7003    0.5317 N   0  0  0  0  0  0  0  0  0  0  0  0
    2.4442   -2.4223    1.7620 C   0  0  0  0  0  0  0  0  0  0  0  0
    3.1124   -1.5361    2.7745 C   0  0  0  0  0  0  0  0  0  0  0  0
    3.9537   -0.4997    2.1794 C   0  0  0  0  0  0  0  0  0  0  0  0
    4.8073    0.1387    3.0260 N   0  0  0  0  0  0  0  0  0  0  0  0
    5.6412    1.1119    2.6224 C   0  0  0  0  0  0  0  0  0  0  0  0
    5.6578    1.5004    1.3144 C   0  0  0  0  0  0  0  0  0  0  0  0
    6.5874    2.5825    0.8727 C   0  0  0  0  0  0  0  0  0  0  0  0
    7.7049    2.0224    0.2419 F   0  0  0  0  0  0  0  0  0  0  0  0
    7.0633    3.2405    1.9899 F   0  0  0  0  0  0  0  0  0  0  0  0
    5.9834    3.4718    0.0364 F   0  0  0  0  0  0  0  0  0  0  0  0
    4.8041    0.8682    0.4454 C   0  0  0  0  0  0  0  0  0  0  0  0
    3.9620   -0.1229    0.8828 C   0  0  0  0  0  0  0  0  0  0  0  0
    3.0412   -0.7956   -0.0820 C   0  0  0  0  0  0  0  0  0  0  0  0
    0.0129    0.1119   -1.0288 C   0  0  0  0  0  0  0  0  0  0  0  0
   -2.2740   -0.6930    2.4068 H   0  0  0  0  0  0  0  0  0  0  0  0
   -2.6882    0.2555    3.8708 H   0  0  0  0  0  0  0  0  0  0  0  0
   -3.9145   -0.8252    3.1995 H   0  0  0  0  0  0  0  0  0  0  0  0
   -3.9937   -0.3807    0.6567 H   0  0  0  0  0  0  0  0  0  0  0  0
   -5.6297    1.9932    1.5555 H   0  0  0  0  0  0  0  0  0  0  0  0
   -6.0861    0.2769    1.4653 H   0  0  0  0  0  0  0  0  0  0  0  0
   -5.3658    3.1613   -0.4637 H   0  0  0  0  0  0  0  0  0  0  0  0
   -6.0378    2.4217   -1.9309 H   0  0  0  0  0  0  0  0  0  0  0  0
   -4.1837    0.7416   -1.8820 H   0  0  0  0  0  0  0  0  0  0  0  0
   -3.5330    2.4728   -1.9636 H   0  0  0  0  0  0  0  0  0  0  0  0
   -3.3652    2.6027    0.4062 H   0  0  0  0  0  0  0  0  0  0  0  0
   -1.3012    2.1284   -0.2724 H   0  0  0  0  0  0  0  0  0  0  0  0
   -1.6847    0.5703   -2.1811 H   0  0  0  0  0  0  0  0  0  0  0  0
   -1.8830   -1.3914    0.1949 H   0  0  0  0  0  0  0  0  0  0  0  0
   -3.0340   -1.2612   -1.2552 H   0  0  0  0  0  0  0  0  0  0  0  0
   -1.0745   -3.0068   -1.4044 H   0  0  0  0  0  0  0  0  0  0  0  0
   -1.9891   -1.0337   -3.3897 H   0  0  0  0  0  0  0  0  0  0  0  0
   -1.3792   -2.6916   -3.6170 H   0  0  0  0  0  0  0  0  0  0  0  0
    0.1336   -0.0685   -3.7413 H   0  0  0  0  0  0  0  0  0  0  0  0
    0.4027   -1.6457   -4.5561 H   0  0  0  0  0  0  0  0  0  0  0  0
    1.2158   -2.6881   -2.6282 H   0  0  0  0  0  0  0  0  0  0  0  0
    2.0636   -1.0573   -2.6041 H   0  0  0  0  0  0  0  0  0  0  0  0
    1.5201   -2.8175    2.2297 H   0  0  0  0  0  0  0  0  0  0  0  0
    3.0660   -3.2994    1.4902 H   0  0  0  0  0  0  0  0  0  0  0  0
    3.7412   -2.1650    3.4424 H   0  0  0  0  0  0  0  0  0  0  0  0
    2.3542   -1.0187    3.4235 H   0  0  0  0  0  0  0  0  0  0  0  0
    6.3138    1.6025    3.3332 H   0  0  0  0  0  0  0  0  0  0  0  0
    4.7956    1.1520   -0.5849 H   0  0  0  0  0  0  0  0  0  0  0  0
    3.6721   -1.2709   -0.8671 H   0  0  0  0  0  0  0  0  0  0  0  0
    2.4827    0.0204   -0.5668 H   0  0  0  0  0  0  0  0  0  0  0  0
    0.5303    0.8213   -1.6858 H   0  0  0  0  0  0  0  0  0  0  0  0
    0.2792    0.3759    0.0346 H   0  0  0  0  0  0  0  0  0  0  0  0
  1  2  1  0
  2  3  1  0
  3  4  1  0
  4  5  1  0
  5  6  1  0
  6  7  1  0
  7  8  1  0
  8  9  1  0
  9 10  1  0
 10 11  1  0
 11 12  1  0
 12 13  1  0
 13 14  1  0
 14 15  1  0
 15 16  1  0
 16 17  1  1
 17 18  2  0
 17 19  1  0
 19 20  1  0
 20 21  1  0
 21 22  1  0
 22 23  2  0
 23 24  1  0
 24 25  2  0
 25 26  1  0
 26 27  1  0
 26 28  1  0
 26 29  1  0
 25 30  1  0
 30 31  2  0
 31 32  1  0
 16 33  1  0
  8  3  1  0
 33 10  1  0
 16 12  1  0
 32 19  1  0
 31 22  1  0
  1 34  1  0
  1 35  1  0
  1 36  1  0
  3 37  1  0
  4 38  1  0
  4 39  1  0
  6 40  1  0
  6 41  1  0
  7 42  1  0
  7 43  1  0
  8 44  1  0
  9 45  1  0
 10 46  1  6
 11 47  1  0
 11 48  1  0
 12 49  1  6
 13 50  1  0
 13 51  1  0
 14 52  1  0
 14 53  1  0
 15 54  1  0
 15 55  1  0
 20 56  1  0
 20 57  1  0
 21 58  1  0
 21 59  1  0
 24 60  1  0
 30 61  1  0
 32 62  1  0
 32 63  1  0
 33 64  1  0
 33 65  1  0
M  END
$$$$
