@<TRIPOS>MOLECULE
*****
 45 48 0 0 0
SMALL
GASTEIGER

@<TRIPOS>ATOM
      1 C           6.0739   -2.3997   -0.5064 C.3     1  UNL1        0.0087
      2 N           5.4749   -1.0943   -0.2343 N.am    1  UNL1       -0.2672
      3 C           6.1485    0.1541   -0.2302 C.2     1  UNL1        0.2910
      4 O           7.3509    0.3948   -0.4497 O.2     1  UNL1       -0.2661
      5 C           5.1530    1.1537    0.0884 C.2     1  UNL1        0.2496
      6 O           5.3056    2.4066    0.2001 O.2     1  UNL1       -0.2817
      7 C           3.8850    0.4164    0.2647 C.ar    1  UNL1        0.0501
      8 C           2.6192    0.8730    0.5768 C.ar    1  UNL1       -0.0226
      9 C           1.5419    0.0234    0.7011 C.ar    1  UNL1        0.1063
     10 S          -0.0041    0.6894    1.0947 S.O2    1  UNL1        0.0612
     11 O          -0.7940   -0.3981    1.8107 O.2     1  UNL1       -0.1528
     12 O           0.1176    1.8234    2.0677 O.2     1  UNL1       -0.1528
     13 N          -0.8508    1.0937   -0.3205 N.3     1  UNL1       -0.1702
     14 C          -0.2889    2.0676   -1.1852 C.3     1  UNL1        0.0225
     15 C          -1.2070    3.1114   -0.6039 C.3     1  UNL1       -0.0180
     16 C          -2.0322    1.8989   -0.1713 C.3     1  UNL1        0.0671
     17 C          -3.0225    1.5939   -1.2758 C.3     1  UNL1        0.1067
     18 O          -3.4626    0.3045   -1.3659 O.3     1  UNL1       -0.4904
     19 C          -4.1602   -0.4680   -0.4979 C.ar    1  UNL1        0.1206
     20 C          -4.4488   -1.7852   -0.8901 C.ar    1  UNL1       -0.0199
     21 C          -5.1510   -2.6480   -0.0838 C.ar    1  UNL1       -0.0583
     22 C          -5.6111   -2.2668    1.1561 C.ar    1  UNL1       -0.0615
     23 C          -5.3370   -0.9807    1.5544 C.ar    1  UNL1       -0.0583
     24 C          -4.6287   -0.1080    0.7423 C.ar    1  UNL1       -0.0199
     25 C           1.7727   -1.3218    0.5002 C.ar    1  UNL1       -0.0335
     26 C           3.0255   -1.7827    0.1902 C.ar    1  UNL1       -0.0377
     27 C           4.0964   -0.9235    0.0683 C.ar    1  UNL1        0.0474
     28 H           5.7082   -2.7703   -1.4821 H       1  UNL1        0.0433
     29 H           7.1899   -2.2867   -0.5214 H       1  UNL1        0.0433
     30 H           5.7425   -3.0889    0.3071 H       1  UNL1        0.0433
     31 H           2.4994    1.9392    0.7232 H       1  UNL1        0.0645
     32 H           0.7899    2.2944   -1.0503 H       1  UNL1        0.0444
     33 H          -0.5665    1.8789   -2.2567 H       1  UNL1        0.0444
     34 H          -0.7057    3.6407    0.2268 H       1  UNL1        0.0295
     35 H          -1.7030    3.7519   -1.3425 H       1  UNL1        0.0295
     36 H          -2.4303    1.9913    0.8468 H       1  UNL1        0.0514
     37 H          -3.9174    2.2791   -1.2011 H       1  UNL1        0.0713
     38 H          -2.5865    1.8765   -2.2807 H       1  UNL1        0.0713
     39 H          -4.0919   -2.1112   -1.8746 H       1  UNL1        0.0654
     40 H          -5.3554   -3.6580   -0.4194 H       1  UNL1        0.0619
     41 H          -6.1595   -2.9719    1.7629 H       1  UNL1        0.0618
     42 H          -5.6780   -0.6391    2.5177 H       1  UNL1        0.0619
     43 H          -4.4448    0.8894    1.0846 H       1  UNL1        0.0654
     44 H           0.9297   -1.9957    0.5964 H       1  UNL1        0.0638
     45 H           3.2133   -2.8474    0.0301 H       1  UNL1        0.0637
@<TRIPOS>BOND
     1     1     2    1
     2     2     3   am
     3     3     4    2
     4     3     5    1
     5     5     6    2
     6     5     7    1
     7     7     8   ar
     8     8     9   ar
     9     9    10    1
    10    10    11    2
    11    10    12    2
    12    10    13    1
    13    13    14    1
    14    14    15    1
    15    15    16    1
    16    16    17    1
    17    17    18    1
    18    18    19    1
    19    19    20   ar
    20    20    21   ar
    21    21    22   ar
    22    22    23   ar
    23    23    24   ar
    24     9    25   ar
    25    25    26   ar
    26    26    27   ar
    27    27     2    1
    28    27     7   ar
    29    16    13    1
    30    24    19   ar
    31     1    28    1
    32     1    29    1
    33     1    30    1
    34     8    31    1
    35    14    32    1
    36    14    33    1
    37    15    34    1
    38    15    35    1
    39    16    36    1
    40    17    37    1
    41    17    38    1
    42    20    39    1
    43    21    40    1
    44    22    41    1
    45    23    42    1
    46    24    43    1
    47    25    44    1
    48    26    45    1
