
     RDKit          3D

 45 48  0  0  0  0  0  0  0  0999 V2000
    6.0739   -2.3997   -0.5064 C   0  0  0  0  0  0  0  0  0  0  0  0
    5.4749   -1.0943   -0.2343 N   0  0  0  0  0  0  0  0  0  0  0  0
    6.1485    0.1541   -0.2302 C   0  0  0  0  0  0  0  0  0  0  0  0
    7.3509    0.3948   -0.4497 O   0  0  0  0  0  0  0  0  0  0  0  0
    5.1530    1.1537    0.0884 C   0  0  0  0  0  0  0  0  0  0  0  0
    5.3056    2.4066    0.2001 O   0  0  0  0  0  0  0  0  0  0  0  0
    3.8850    0.4164    0.2647 C   0  0  0  0  0  0  0  0  0  0  0  0
    2.6192    0.8730    0.5768 C   0  0  0  0  0  0  0  0  0  0  0  0
    1.5419    0.0234    0.7011 C   0  0  0  0  0  0  0  0  0  0  0  0
   -0.0041    0.6894    1.0947 S   0  0  0  0  0  6  0  0  0  0  0  0
   -0.7940   -0.3981    1.8107 O   0  0  0  0  0  0  0  0  0  0  0  0
    0.1176    1.8234    2.0677 O   0  0  0  0  0  0  0  0  0  0  0  0
   -0.8508    1.0937   -0.3205 N   0  0  0  0  0  0  0  0  0  0  0  0
   -0.2889    2.0676   -1.1852 C   0  0  0  0  0  0  0  0  0  0  0  0
   -1.2070    3.1114   -0.6039 C   0  0  0  0  0  0  0  0  0  0  0  0
   -2.0322    1.8989   -0.1713 C   0  0  1  0  0  0  0  0  0  0  0  0
   -3.0225    1.5939   -1.2758 C   0  0  0  0  0  0  0  0  0  0  0  0
   -3.4626    0.3045   -1.3659 O   0  0  0  0  0  0  0  0  0  0  0  0
   -4.1602   -0.4680   -0.4979 C   0  0  0  0  0  0  0  0  0  0  0  0
   -4.4488   -1.7852   -0.8901 C   0  0  0  0  0  0  0  0  0  0  0  0
   -5.1510   -2.6480   -0.0838 C   0  0  0  0  0  0  0  0  0  0  0  0
   -5.6111   -2.2668    1.1561 C   0  0  0  0  0  0  0  0  0  0  0  0
   -5.3370   -0.9807    1.5544 C   0  0  0  0  0  0  0  0  0  0  0  0
   -4.6287   -0.1080    0.7423 C   0  0  0  0  0  0  0  0  0  0  0  0
    1.7727   -1.3218    0.5002 C   0  0  0  0  0  0  0  0  0  0  0  0
    3.0255   -1.7827    0.1902 C   0  0  0  0  0  0  0  0  0  0  0  0
    4.0964   -0.9235    0.0683 C   0  0  0  0  0  0  0  0  0  0  0  0
    5.7082   -2.7703   -1.4821 H   0  0  0  0  0  0  0  0  0  0  0  0
    7.1899   -2.2867   -0.5214 H   0  0  0  0  0  0  0  0  0  0  0  0
    5.7425   -3.0889    0.3071 H   0  0  0  0  0  0  0  0  0  0  0  0
    2.4994    1.9392    0.7232 H   0  0  0  0  0  0  0  0  0  0  0  0
    0.7899    2.2944   -1.0503 H   0  0  0  0  0  0  0  0  0  0  0  0
   -0.5665    1.8789   -2.2567 H   0  0  0  0  0  0  0  0  0  0  0  0
   -0.7057    3.6407    0.2268 H   0  0  0  0  0  0  0  0  0  0  0  0
   -1.7030    3.7519   -1.3425 H   0  0  0  0  0  0  0  0  0  0  0  0
   -2.4303    1.9913    0.8468 H   0  0  0  0  0  0  0  0  0  0  0  0
   -3.9174    2.2791   -1.2011 H   0  0  0  0  0  0  0  0  0  0  0  0
   -2.5865    1.8765   -2.2807 H   0  0  0  0  0  0  0  0  0  0  0  0
   -4.0919   -2.1112   -1.8746 H   0  0  0  0  0  0  0  0  0  0  0  0
   -5.3554   -3.6580   -0.4194 H   0  0  0  0  0  0  0  0  0  0  0  0
   -6.1595   -2.9719    1.7629 H   0  0  0  0  0  0  0  0  0  0  0  0
   -5.6780   -0.6391    2.5177 H   0  0  0  0  0  0  0  0  0  0  0  0
   -4.4448    0.8894    1.0846 H   0  0  0  0  0  0  0  0  0  0  0  0
    0.9297   -1.9957    0.5964 H   0  0  0  0  0  0  0  0  0  0  0  0
    3.2133   -2.8474    0.0301 H   0  0  0  0  0  0  0  0  0  0  0  0
  1  2  1  0
  2  3  1  0
  3  4  2  0
  3  5  1  0
  5  6  2  0
  5  7  1  0
  7  8  2  0
  8  9  1  0
  9 10  1  0
 10 11  2  0
 10 12  2  0
 10 13  1  0
 13 14  1  0
 14 15  1  0
 15 16  1  0
 16 17  1  0
 17 18  1  0
 18 19  1  0
 19 20  2  0
 20 21  1  0
 21 22  2  0
 22 23  1  0
 23 24  2  0
  9 25  2  0
 25 26  1  0
 26 27  2  0
 27  2  1  0
 27  7  1  0
 16 13  1  0
 24 19  1  0
  1 28  1  0
  1 29  1  0
  1 30  1  0
  8 31  1  0
 14 32  1  0
 14 33  1  0
 15 34  1  0
 15 35  1  0
 16 36  1  1
 17 37  1  0
 17 38  1  0
 20 39  1  0
 21 40  1  0
 22 41  1  0
 23 42  1  0
 24 43  1  0
 25 44  1  0
 26 45  1  0
M  END
$$$$
