@<TRIPOS>MOLECULE
*****
 75 79 0 0 0
SMALL
GASTEIGER

@<TRIPOS>ATOM
      1 O           6.1669   -2.5763    1.4299 O.3     1  UNL1       -0.3875
      2 C           6.5600   -1.6082    0.5423 C.3     1  UNL1        0.1013
      3 C           5.3480   -0.9550   -0.1485 C.3     1  UNL1        0.0652
      4 N           4.4507   -2.0090   -0.4932 N.3     1  UNL1       -0.3031
      5 C           3.2249   -1.6121   -1.1219 C.3     1  UNL1        0.0421
      6 C           2.4225   -0.6880   -0.2906 C.ar    1  UNL1        0.0966
      7 C           1.4542   -0.9738    0.6428 C.ar    1  UNL1        0.0503
      8 N           1.0094    0.1921    1.1359 N.ar    1  UNL1       -0.2471
      9 C          -0.0193    0.2985    2.1479 C.3     1  UNL1        0.0684
     10 C          -1.3466    0.3838    1.4794 C.ar    1  UNL1       -0.0192
     11 C          -2.0900   -0.7416    1.1812 C.ar    1  UNL1       -0.0148
     12 C          -3.3183   -0.6904    0.5644 C.ar    1  UNL1        0.1248
     13 O          -4.0516   -1.8189    0.2714 O.3     1  UNL1       -0.4872
     14 C          -3.5725   -3.1226    0.5953 C.3     1  UNL1        0.1146
     15 C          -4.5784   -4.1161    0.1574 C.ar    1  UNL1       -0.0104
     16 C          -4.5317   -4.6563   -1.1011 C.ar    1  UNL1       -0.0554
     17 C          -5.5006   -5.5792   -1.4485 C.ar    1  UNL1       -0.0614
     18 C          -6.4859   -5.9533   -0.5704 C.ar    1  UNL1       -0.0617
     19 C          -6.5392   -5.4174    0.6900 C.ar    1  UNL1       -0.0614
     20 C          -5.5636   -4.4887    1.0384 C.ar    1  UNL1       -0.0554
     21 C          -3.8280    0.5406    0.2300 C.ar    1  UNL1        0.0218
     22 C          -3.1225    1.6971    0.5073 C.ar    1  UNL1        0.1248
     23 O          -3.6409    2.9513    0.1671 O.3     1  UNL1       -0.4872
     24 C          -4.8860    3.0749   -0.4628 C.3     1  UNL1        0.1146
     25 C          -5.1568    4.5220   -0.6919 C.ar    1  UNL1       -0.0104
     26 C          -4.7555    5.1366   -1.8595 C.ar    1  UNL1       -0.0554
     27 C          -4.9879    6.4842   -2.1137 C.ar    1  UNL1       -0.0614
     28 C          -5.6418    7.2479   -1.1751 C.ar    1  UNL1       -0.0617
     29 C          -6.0436    6.6378   -0.0089 C.ar    1  UNL1       -0.0614
     30 C          -5.8131    5.3000    0.2439 C.ar    1  UNL1       -0.0554
     31 C          -1.8952    1.5987    1.1266 C.ar    1  UNL1       -0.0148
     32 N           1.6721    1.1441    0.5346 N.ar    1  UNL1       -0.0651
     33 N           2.5274    0.6486   -0.3269 N.ar    1  UNL1       -0.1332
     34 C           5.9459   -0.2227   -1.3276 C.3     1  UNL1        0.1013
     35 O           5.0290    0.2975   -2.2027 O.3     1  UNL1       -0.3875
     36 C           6.7895    0.9106   -0.7873 C.3     1  UNL1        0.1108
     37 O           7.4876    1.4357   -1.9004 O.3     1  UNL1       -0.3865
     38 C           7.7966    0.5188    0.2254 C.3     1  UNL1        0.1117
     39 O           8.1301    1.6707    0.9681 O.3     1  UNL1       -0.3865
     40 C           7.3162   -0.5116    1.2136 C.3     1  UNL1        0.1108
     41 O           8.4397   -1.0155    1.8690 O.3     1  UNL1       -0.3865
     42 H           6.2024   -3.4540    0.9728 H       1  UNL1        0.2100
     43 H           7.1781   -2.0224   -0.2792 H       1  UNL1        0.0636
     44 H           4.9366   -0.2452    0.5970 H       1  UNL1        0.0513
     45 H           4.2394   -2.5517    0.3710 H       1  UNL1        0.1227
     46 H           2.6222   -2.5721   -1.2150 H       1  UNL1        0.0490
     47 H           3.3537   -1.2854   -2.1640 H       1  UNL1        0.0490
     48 H           1.1555   -1.9839    0.8850 H       1  UNL1        0.0846
     49 H          -0.0427   -0.6278    2.7718 H       1  UNL1        0.0559
     50 H           0.1610    1.1871    2.8038 H       1  UNL1        0.0559
     51 H          -1.6924   -1.7123    1.4427 H       1  UNL1        0.0657
     52 H          -3.3956   -3.2126    1.6943 H       1  UNL1        0.0748
     53 H          -2.5738   -3.3033    0.1195 H       1  UNL1        0.0748
     54 H          -3.7664   -4.3859   -1.8269 H       1  UNL1        0.0621
     55 H          -5.4732   -6.0147   -2.4454 H       1  UNL1        0.0618
     56 H          -7.2402   -6.6779   -0.8541 H       1  UNL1        0.0618
     57 H          -7.2917   -5.6790    1.4130 H       1  UNL1        0.0618
     58 H          -5.6153   -4.0684    2.0441 H       1  UNL1        0.0621
     59 H          -4.7960    0.6590   -0.2611 H       1  UNL1        0.0691
     60 H          -4.8177    2.5720   -1.4500 H       1  UNL1        0.0748
     61 H          -5.7086    2.5898    0.0918 H       1  UNL1        0.0748
     62 H          -4.2438    4.5329   -2.5907 H       1  UNL1        0.0621
     63 H          -4.6631    6.9380   -3.0349 H       1  UNL1        0.0618
     64 H          -5.8412    8.2979   -1.3351 H       1  UNL1        0.0618
     65 H          -6.5576    7.2241    0.7364 H       1  UNL1        0.0618
     66 H          -6.1282    4.8239    1.1572 H       1  UNL1        0.0621
     67 H          -1.3709    2.5350    1.3277 H       1  UNL1        0.0657
     68 H           6.6478   -0.9339   -1.8431 H       1  UNL1        0.0636
     69 H           4.8538    1.2306   -1.9804 H       1  UNL1        0.2100
     70 H           6.1111    1.7314   -0.4648 H       1  UNL1        0.0646
     71 H           6.8970    1.3634   -2.6675 H       1  UNL1        0.2100
     72 H           8.7492    0.1872   -0.2524 H       1  UNL1        0.0647
     73 H           8.7827    2.2249    0.4947 H       1  UNL1        0.2100
     74 H           6.6748   -0.0480    2.0019 H       1  UNL1        0.0646
     75 H           8.2515   -1.2536    2.8094 H       1  UNL1        0.2100
@<TRIPOS>BOND
     1     1     2    1
     2     2     3    1
     3     3     4    1
     4     4     5    1
     5     5     6    1
     6     6     7   ar
     7     7     8   ar
     8     8     9    1
     9     9    10    1
    10    10    11   ar
    11    11    12   ar
    12    12    13    1
    13    13    14    1
    14    14    15    1
    15    15    16   ar
    16    16    17   ar
    17    17    18   ar
    18    18    19   ar
    19    19    20   ar
    20    12    21   ar
    21    21    22   ar
    22    22    23    1
    23    23    24    1
    24    24    25    1
    25    25    26   ar
    26    26    27   ar
    27    27    28   ar
    28    28    29   ar
    29    29    30   ar
    30    22    31   ar
    31     8    32   ar
    32    32    33   ar
    33     3    34    1
    34    34    35    1
    35    34    36    1
    36    36    37    1
    37    36    38    1
    38    38    39    1
    39    38    40    1
    40    40    41    1
    41    40     2    1
    42    33     6   ar
    43    31    10   ar
    44    20    15   ar
    45    30    25   ar
    46     1    42    1
    47     2    43    1
    48     3    44    1
    49     4    45    1
    50     5    46    1
    51     5    47    1
    52     7    48    1
    53     9    49    1
    54     9    50    1
    55    11    51    1
    56    14    52    1
    57    14    53    1
    58    16    54    1
    59    17    55    1
    60    18    56    1
    61    19    57    1
    62    20    58    1
    63    21    59    1
    64    24    60    1
    65    24    61    1
    66    26    62    1
    67    27    63    1
    68    28    64    1
    69    29    65    1
    70    30    66    1
    71    31    67    1
    72    34    68    1
    73    35    69    1
    74    36    70    1
    75    37    71    1
    76    38    72    1
    77    39    73    1
    78    40    74    1
    79    41    75    1
