
     RDKit          3D

 75 79  0  0  0  0  0  0  0  0999 V2000
    6.1669   -2.5763    1.4299 O   0  0  0  0  0  0  0  0  0  0  0  0
    6.5600   -1.6082    0.5423 C   0  0  1  0  0  0  0  0  0  0  0  0
    5.3480   -0.9550   -0.1485 C   0  0  2  0  0  0  0  0  0  0  0  0
    4.4507   -2.0090   -0.4932 N   0  0  0  0  0  0  0  0  0  0  0  0
    3.2249   -1.6121   -1.1219 C   0  0  0  0  0  0  0  0  0  0  0  0
    2.4225   -0.6880   -0.2906 C   0  0  0  0  0  0  0  0  0  0  0  0
    1.4542   -0.9738    0.6428 C   0  0  0  0  0  0  0  0  0  0  0  0
    1.0094    0.1921    1.1359 N   0  0  0  0  0  0  0  0  0  0  0  0
   -0.0193    0.2985    2.1479 C   0  0  0  0  0  0  0  0  0  0  0  0
   -1.3466    0.3838    1.4794 C   0  0  0  0  0  0  0  0  0  0  0  0
   -2.0900   -0.7416    1.1812 C   0  0  0  0  0  0  0  0  0  0  0  0
   -3.3183   -0.6904    0.5644 C   0  0  0  0  0  0  0  0  0  0  0  0
   -4.0516   -1.8189    0.2714 O   0  0  0  0  0  0  0  0  0  0  0  0
   -3.5725   -3.1226    0.5953 C   0  0  0  0  0  0  0  0  0  0  0  0
   -4.5784   -4.1161    0.1574 C   0  0  0  0  0  0  0  0  0  0  0  0
   -4.5317   -4.6563   -1.1011 C   0  0  0  0  0  0  0  0  0  0  0  0
   -5.5006   -5.5792   -1.4485 C   0  0  0  0  0  0  0  0  0  0  0  0
   -6.4859   -5.9533   -0.5704 C   0  0  0  0  0  0  0  0  0  0  0  0
   -6.5392   -5.4174    0.6900 C   0  0  0  0  0  0  0  0  0  0  0  0
   -5.5636   -4.4887    1.0384 C   0  0  0  0  0  0  0  0  0  0  0  0
   -3.8280    0.5406    0.2300 C   0  0  0  0  0  0  0  0  0  0  0  0
   -3.1225    1.6971    0.5073 C   0  0  0  0  0  0  0  0  0  0  0  0
   -3.6409    2.9513    0.1671 O   0  0  0  0  0  0  0  0  0  0  0  0
   -4.8860    3.0749   -0.4628 C   0  0  0  0  0  0  0  0  0  0  0  0
   -5.1568    4.5220   -0.6919 C   0  0  0  0  0  0  0  0  0  0  0  0
   -4.7555    5.1366   -1.8595 C   0  0  0  0  0  0  0  0  0  0  0  0
   -4.9879    6.4842   -2.1137 C   0  0  0  0  0  0  0  0  0  0  0  0
   -5.6418    7.2479   -1.1751 C   0  0  0  0  0  0  0  0  0  0  0  0
   -6.0436    6.6378   -0.0089 C   0  0  0  0  0  0  0  0  0  0  0  0
   -5.8131    5.3000    0.2439 C   0  0  0  0  0  0  0  0  0  0  0  0
   -1.8952    1.5987    1.1266 C   0  0  0  0  0  0  0  0  0  0  0  0
    1.6721    1.1441    0.5346 N   0  0  0  0  0  0  0  0  0  0  0  0
    2.5274    0.6486   -0.3269 N   0  0  0  0  0  0  0  0  0  0  0  0
    5.9459   -0.2227   -1.3276 C   0  0  1  0  0  0  0  0  0  0  0  0
    5.0290    0.2975   -2.2027 O   0  0  0  0  0  0  0  0  0  0  0  0
    6.7895    0.9106   -0.7873 C   0  0  2  0  0  0  0  0  0  0  0  0
    7.4876    1.4357   -1.9004 O   0  0  0  0  0  0  0  0  0  0  0  0
    7.7966    0.5188    0.2254 C   0  0  1  0  0  0  0  0  0  0  0  0
    8.1301    1.6707    0.9681 O   0  0  0  0  0  0  0  0  0  0  0  0
    7.3162   -0.5116    1.2136 C   0  0  2  0  0  0  0  0  0  0  0  0
    8.4397   -1.0155    1.8690 O   0  0  0  0  0  0  0  0  0  0  0  0
    6.2024   -3.4540    0.9728 H   0  0  0  0  0  0  0  0  0  0  0  0
    7.1781   -2.0224   -0.2792 H   0  0  0  0  0  0  0  0  0  0  0  0
    4.9366   -0.2452    0.5970 H   0  0  0  0  0  0  0  0  0  0  0  0
    4.2394   -2.5517    0.3710 H   0  0  0  0  0  0  0  0  0  0  0  0
    2.6222   -2.5721   -1.2150 H   0  0  0  0  0  0  0  0  0  0  0  0
    3.3537   -1.2854   -2.1640 H   0  0  0  0  0  0  0  0  0  0  0  0
    1.1555   -1.9839    0.8850 H   0  0  0  0  0  0  0  0  0  0  0  0
   -0.0427   -0.6278    2.7718 H   0  0  0  0  0  0  0  0  0  0  0  0
    0.1610    1.1871    2.8038 H   0  0  0  0  0  0  0  0  0  0  0  0
   -1.6924   -1.7123    1.4427 H   0  0  0  0  0  0  0  0  0  0  0  0
   -3.3956   -3.2126    1.6943 H   0  0  0  0  0  0  0  0  0  0  0  0
   -2.5738   -3.3033    0.1195 H   0  0  0  0  0  0  0  0  0  0  0  0
   -3.7664   -4.3859   -1.8269 H   0  0  0  0  0  0  0  0  0  0  0  0
   -5.4732   -6.0147   -2.4454 H   0  0  0  0  0  0  0  0  0  0  0  0
   -7.2402   -6.6779   -0.8541 H   0  0  0  0  0  0  0  0  0  0  0  0
   -7.2917   -5.6790    1.4130 H   0  0  0  0  0  0  0  0  0  0  0  0
   -5.6153   -4.0684    2.0441 H   0  0  0  0  0  0  0  0  0  0  0  0
   -4.7960    0.6590   -0.2611 H   0  0  0  0  0  0  0  0  0  0  0  0
   -4.8177    2.5720   -1.4500 H   0  0  0  0  0  0  0  0  0  0  0  0
   -5.7086    2.5898    0.0918 H   0  0  0  0  0  0  0  0  0  0  0  0
   -4.2438    4.5329   -2.5907 H   0  0  0  0  0  0  0  0  0  0  0  0
   -4.6631    6.9380   -3.0349 H   0  0  0  0  0  0  0  0  0  0  0  0
   -5.8412    8.2979   -1.3351 H   0  0  0  0  0  0  0  0  0  0  0  0
   -6.5576    7.2241    0.7364 H   0  0  0  0  0  0  0  0  0  0  0  0
   -6.1282    4.8239    1.1572 H   0  0  0  0  0  0  0  0  0  0  0  0
   -1.3709    2.5350    1.3277 H   0  0  0  0  0  0  0  0  0  0  0  0
    6.6478   -0.9339   -1.8431 H   0  0  0  0  0  0  0  0  0  0  0  0
    4.8538    1.2306   -1.9804 H   0  0  0  0  0  0  0  0  0  0  0  0
    6.1111    1.7314   -0.4648 H   0  0  0  0  0  0  0  0  0  0  0  0
    6.8970    1.3634   -2.6675 H   0  0  0  0  0  0  0  0  0  0  0  0
    8.7492    0.1872   -0.2524 H   0  0  0  0  0  0  0  0  0  0  0  0
    8.7827    2.2249    0.4947 H   0  0  0  0  0  0  0  0  0  0  0  0
    6.6748   -0.0480    2.0019 H   0  0  0  0  0  0  0  0  0  0  0  0
    8.2515   -1.2536    2.8094 H   0  0  0  0  0  0  0  0  0  0  0  0
  1  2  1  0
  2  3  1  0
  3  4  1  0
  4  5  1  0
  5  6  1  0
  6  7  2  0
  7  8  1  0
  8  9  1  0
  9 10  1  0
 10 11  2  0
 11 12  1  0
 12 13  1  0
 13 14  1  0
 14 15  1  0
 15 16  2  0
 16 17  1  0
 17 18  2  0
 18 19  1  0
 19 20  2  0
 12 21  2  0
 21 22  1  0
 22 23  1  0
 23 24  1  0
 24 25  1  0
 25 26  2  0
 26 27  1  0
 27 28  2  0
 28 29  1  0
 29 30  2  0
 22 31  2  0
  8 32  1  0
 32 33  2  0
  3 34  1  0
 34 35  1  0
 34 36  1  0
 36 37  1  0
 36 38  1  0
 38 39  1  0
 38 40  1  0
 40 41  1  0
 40  2  1  0
 33  6  1  0
 31 10  1  0
 20 15  1  0
 30 25  1  0
  1 42  1  0
  2 43  1  6
  3 44  1  1
  4 45  1  0
  5 46  1  0
  5 47  1  0
  7 48  1  0
  9 49  1  0
  9 50  1  0
 11 51  1  0
 14 52  1  0
 14 53  1  0
 16 54  1  0
 17 55  1  0
 18 56  1  0
 19 57  1  0
 20 58  1  0
 21 59  1  0
 24 60  1  0
 24 61  1  0
 26 62  1  0
 27 63  1  0
 28 64  1  0
 29 65  1  0
 30 66  1  0
 31 67  1  0
 34 68  1  6
 35 69  1  0
 36 70  1  1
 37 71  1  0
 38 72  1  6
 39 73  1  0
 40 74  1  1
 41 75  1  0
M  END
$$$$
