
     RDKit          3D

 51 53  0  0  0  0  0  0  0  0999 V2000
   -1.5658   -2.8786    1.5004 C   0  0  0  0  0  0  0  0  0  0  0  0
   -1.5358   -2.3678    0.0811 C   0  0  0  0  0  0  0  0  0  0  0  0
   -0.4648   -1.4580   -0.2105 N   0  0  0  0  0  0  0  0  0  0  0  0
    0.7397   -1.7538   -0.7520 C   0  0  0  0  0  0  0  0  0  0  0  0
    1.2016   -3.1230   -1.1011 C   0  0  0  0  0  0  0  0  0  0  0  0
    0.5007   -4.2473   -1.1189 N   0  0  0  0  0  0  0  0  0  0  0  0
    1.2445   -5.2104   -1.5530 O   0  0  0  0  0  0  0  0  0  0  0  0
    2.4422   -4.7386   -1.8235 N   0  0  0  0  0  0  0  0  0  0  0  0
    2.4665   -3.4339   -1.5533 C   0  0  0  0  0  0  0  0  0  0  0  0
    3.5429   -2.5019   -1.6422 N   0  0  0  0  0  0  0  0  0  0  0  0
    1.4521   -0.6345   -0.8559 N   0  0  0  0  0  0  0  0  0  0  0  0
    0.7409    0.3822   -0.3980 C   0  0  0  0  0  0  0  0  0  0  0  0
    0.9331    1.7382   -0.2267 C   0  0  0  0  0  0  0  0  0  0  0  0
    2.1475    2.2729   -0.7643 C   0  0  0  0  0  0  0  0  0  0  0  0
    3.2706    2.7803   -1.2832 C   0  0  0  0  0  0  0  0  0  0  0  0
    4.4906    3.3188   -1.8237 C   0  0  0  0  0  0  0  0  0  0  0  0
    5.1973    2.2757   -2.6829 C   0  0  0  0  0  0  0  0  0  0  0  0
    5.4232    3.8211   -0.7382 C   0  0  0  0  0  0  0  0  0  0  0  0
    4.1403    4.4173   -2.6214 O   0  0  0  0  0  0  0  0  0  0  0  0
   -0.0005    2.5014    0.3003 N   0  0  0  0  0  0  0  0  0  0  0  0
   -1.1900    2.0763    0.7177 C   0  0  0  0  0  0  0  0  0  0  0  0
   -1.4557    0.7098    0.5796 C   0  0  0  0  0  0  0  0  0  0  0  0
   -2.6285    0.2755    1.0319 O   0  0  0  0  0  0  0  0  0  0  0  0
   -3.8001    0.5972    1.5610 C   0  0  0  0  0  0  0  0  0  0  0  0
   -4.4472   -0.6795    2.1302 C   0  0  0  0  0  0  0  0  0  0  0  0
   -5.7814   -0.3890    2.7539 C   0  0  0  0  0  0  0  0  0  0  0  0
   -6.7218    0.0717    1.7783 N   0  0  0  0  0  0  0  0  0  0  0  0
   -0.5041   -0.1146    0.0310 C   0  0  0  0  0  0  0  0  0  0  0  0
   -1.3465   -2.0466    2.2131 H   0  0  0  0  0  0  0  0  0  0  0  0
   -2.6100   -3.2130    1.7313 H   0  0  0  0  0  0  0  0  0  0  0  0
   -0.8826   -3.7136    1.6503 H   0  0  0  0  0  0  0  0  0  0  0  0
   -1.5640   -3.2251   -0.6082 H   0  0  0  0  0  0  0  0  0  0  0  0
   -2.4786   -1.8050   -0.1382 H   0  0  0  0  0  0  0  0  0  0  0  0
    4.4866   -2.8632   -1.2936 H   0  0  0  0  0  0  0  0  0  0  0  0
    3.4430   -1.5656   -2.0135 H   0  0  0  0  0  0  0  0  0  0  0  0
    6.0947    1.9380   -2.1373 H   0  0  0  0  0  0  0  0  0  0  0  0
    5.4747    2.7803   -3.6525 H   0  0  0  0  0  0  0  0  0  0  0  0
    4.5086    1.4348   -2.8223 H   0  0  0  0  0  0  0  0  0  0  0  0
    5.1942    4.9260   -0.5867 H   0  0  0  0  0  0  0  0  0  0  0  0
    5.1058    3.3393    0.2284 H   0  0  0  0  0  0  0  0  0  0  0  0
    6.4650    3.6456   -0.9953 H   0  0  0  0  0  0  0  0  0  0  0  0
    3.1341    4.4038   -2.7235 H   0  0  0  0  0  0  0  0  0  0  0  0
   -1.8619    2.7862    1.1399 H   0  0  0  0  0  0  0  0  0  0  0  0
   -3.9197    1.3929    2.2908 H   0  0  0  0  0  0  0  0  0  0  0  0
   -4.5224    0.9422    0.7286 H   0  0  0  0  0  0  0  0  0  0  0  0
   -3.7433   -1.0759    2.9214 H   0  0  0  0  0  0  0  0  0  0  0  0
   -4.5417   -1.3868    1.2864 H   0  0  0  0  0  0  0  0  0  0  0  0
   -6.1397   -1.2317    3.3791 H   0  0  0  0  0  0  0  0  0  0  0  0
   -5.5798    0.5389    3.4019 H   0  0  0  0  0  0  0  0  0  0  0  0
   -7.2217    0.9424    2.0726 H   0  0  0  0  0  0  0  0  0  0  0  0
   -7.3328   -0.6515    1.4130 H   0  0  0  0  0  0  0  0  0  0  0  0
  1  2  1  0
  2  3  1  0
  3  4  1  0
  4  5  1  0
  5  6  2  0
  6  7  1  0
  7  8  1  0
  8  9  2  0
  9 10  1  0
  4 11  2  0
 11 12  1  0
 12 13  2  0
 13 14  1  0
 14 15  3  0
 15 16  1  0
 16 17  1  0
 16 18  1  0
 16 19  1  0
 13 20  1  0
 20 21  2  0
 21 22  1  0
 22 23  1  0
 23 24  1  0
 24 25  1  0
 25 26  1  0
 26 27  1  0
 22 28  2  0
 28  3  1  0
  9  5  1  0
 28 12  1  0
  1 29  1  0
  1 30  1  0
  1 31  1  0
  2 32  1  0
  2 33  1  0
 10 34  1  0
 10 35  1  0
 17 36  1  0
 17 37  1  0
 17 38  1  0
 18 39  1  0
 18 40  1  0
 18 41  1  0
 19 42  1  0
 21 43  1  0
 24 44  1  0
 24 45  1  0
 25 46  1  0
 25 47  1  0
 26 48  1  0
 26 49  1  0
 27 50  1  0
 27 51  1  0
M  END
$$$$
