@<TRIPOS>MOLECULE
*****
 51 53 0 0 0
SMALL
GASTEIGER

@<TRIPOS>ATOM
      1 C          -1.5658   -2.8786    1.5004 C.3     1  UNL1       -0.0470
      2 C          -1.5358   -2.3678    0.0811 C.3     1  UNL1        0.0226
      3 N          -0.4648   -1.4580   -0.2105 N.ar    1  UNL1       -0.3195
      4 C           0.7397   -1.7538   -0.7520 C.ar    1  UNL1        0.1673
      5 C           1.2016   -3.1230   -1.1011 C.ar    1  UNL1        0.1904
      6 N           0.5007   -4.2473   -1.1189 N.ar    1  UNL1       -0.0438
      7 O           1.2445   -5.2104   -1.5530 O.2     1  UNL1       -0.2402
      8 N           2.4422   -4.7386   -1.8235 N.ar    1  UNL1       -0.0335
      9 C           2.4665   -3.4339   -1.5533 C.ar    1  UNL1        0.1909
     10 N           3.5429   -2.5019   -1.6422 N.pl3   1  UNL1       -0.3386
     11 N           1.4521   -0.6345   -0.8559 N.ar    1  UNL1       -0.2228
     12 C           0.7409    0.3822   -0.3980 C.ar    1  UNL1        0.1270
     13 C           0.9331    1.7382   -0.2267 C.ar    1  UNL1        0.1411
     14 C           2.1475    2.2729   -0.7643 C.1     1  UNL1       -0.0414
     15 C           3.2706    2.7803   -1.2832 C.1     1  UNL1       -0.0614
     16 C           4.4906    3.3188   -1.8237 C.3     1  UNL1        0.1212
     17 C           5.1973    2.2757   -2.6829 C.3     1  UNL1       -0.0249
     18 C           5.4232    3.8211   -0.7382 C.3     1  UNL1       -0.0249
     19 O           4.1403    4.4173   -2.6214 O.3     1  UNL1       -0.3771
     20 N          -0.0005    2.5014    0.3003 N.ar    1  UNL1       -0.2408
     21 C          -1.1900    2.0763    0.7177 C.ar    1  UNL1        0.0728
     22 C          -1.4557    0.7098    0.5796 C.ar    1  UNL1        0.1641
     23 O          -2.6285    0.2755    1.0319 O.3     1  UNL1       -0.4883
     24 C          -3.8001    0.5972    1.5610 C.3     1  UNL1        0.0909
     25 C          -4.4472   -0.6795    2.1302 C.3     1  UNL1       -0.0063
     26 C          -5.7814   -0.3890    2.7539 C.3     1  UNL1       -0.0038
     27 N          -6.7218    0.0717    1.7783 N.3     1  UNL1       -0.3299
     28 C          -0.5041   -0.1146    0.0310 C.ar    1  UNL1        0.1156
     29 H          -1.3465   -2.0466    2.2131 H       1  UNL1        0.0247
     30 H          -2.6100   -3.2130    1.7313 H       1  UNL1        0.0247
     31 H          -0.8826   -3.7136    1.6503 H       1  UNL1        0.0247
     32 H          -1.5640   -3.2251   -0.6082 H       1  UNL1        0.0490
     33 H          -2.4786   -1.8050   -0.1382 H       1  UNL1        0.0490
     34 H           4.4866   -2.8632   -1.2936 H       1  UNL1        0.1439
     35 H           3.4430   -1.5656   -2.0135 H       1  UNL1        0.1439
     36 H           6.0947    1.9380   -2.1373 H       1  UNL1        0.0267
     37 H           5.4747    2.7803   -3.6525 H       1  UNL1        0.0267
     38 H           4.5086    1.4348   -2.8223 H       1  UNL1        0.0267
     39 H           5.1942    4.9260   -0.5867 H       1  UNL1        0.0267
     40 H           5.1058    3.3393    0.2284 H       1  UNL1        0.0267
     41 H           6.4650    3.6456   -0.9953 H       1  UNL1        0.0267
     42 H           3.1341    4.4038   -2.7235 H       1  UNL1        0.2114
     43 H          -1.8619    2.7862    1.1399 H       1  UNL1        0.0868
     44 H          -3.9197    1.3929    2.2908 H       1  UNL1        0.0697
     45 H          -4.5224    0.9422    0.7286 H       1  UNL1        0.0697
     46 H          -3.7433   -1.0759    2.9214 H       1  UNL1        0.0310
     47 H          -4.5417   -1.3868    1.2864 H       1  UNL1        0.0310
     48 H          -6.1397   -1.2317    3.3791 H       1  UNL1        0.0423
     49 H          -5.5798    0.5389    3.4019 H       1  UNL1        0.0423
     50 H          -7.2217    0.9424    2.0726 H       1  UNL1        0.1182
     51 H          -7.3328   -0.6515    1.4130 H       1  UNL1        0.1182
@<TRIPOS>BOND
     1     1     2    1
     2     2     3    1
     3     3     4   ar
     4     4     5    1
     5     5     6   ar
     6     6     7   ar
     7     7     8   ar
     8     8     9   ar
     9     9    10    1
    10     4    11   ar
    11    11    12   ar
    12    12    13   ar
    13    13    14    1
    14    14    15    3
    15    15    16    1
    16    16    17    1
    17    16    18    1
    18    16    19    1
    19    13    20   ar
    20    20    21   ar
    21    21    22   ar
    22    22    23    1
    23    23    24    1
    24    24    25    1
    25    25    26    1
    26    26    27    1
    27    22    28   ar
    28    28     3   ar
    29     9     5   ar
    30    28    12   ar
    31     1    29    1
    32     1    30    1
    33     1    31    1
    34     2    32    1
    35     2    33    1
    36    10    34    1
    37    10    35    1
    38    17    36    1
    39    17    37    1
    40    17    38    1
    41    18    39    1
    42    18    40    1
    43    18    41    1
    44    19    42    1
    45    21    43    1
    46    24    44    1
    47    24    45    1
    48    25    46    1
    49    25    47    1
    50    26    48    1
    51    26    49    1
    52    27    50    1
    53    27    51    1
