@<TRIPOS>MOLECULE
*****
 56 60 0 0 0
SMALL
GASTEIGER

@<TRIPOS>ATOM
      1 N           8.0820    2.7200   -0.0156 N.3     1  UNL1       -0.2035
      2 S           6.6510    3.1542    0.8123 S.O2    1  UNL1        0.0560
      3 O           6.3811    4.6098    0.8278 O.2     1  UNL1       -0.1533
      4 O           6.8127    2.6901    2.2532 O.2     1  UNL1       -0.1533
      5 C           5.2894    2.2922    0.1050 C.ar    1  UNL1        0.1056
      6 C           4.5620    2.8135   -0.9357 C.ar    1  UNL1       -0.0353
      7 C           3.5014    2.0979   -1.4567 C.ar    1  UNL1       -0.0593
      8 C           3.1523    0.8537   -0.9470 C.ar    1  UNL1       -0.0524
      9 C           3.8807    0.3355    0.0929 C.ar    1  UNL1        0.0045
     10 C           3.5787   -0.9562    0.6885 C.ar    1  UNL1        0.1003
     11 N           4.4237   -1.9536    0.9978 N.ar    1  UNL1       -0.1727
     12 N           3.7557   -2.9669    1.5314 N.ar    1  UNL1       -0.2764
     13 C           2.4357   -2.6892    1.6013 C.ar    1  UNL1        0.0665
     14 C           1.3262   -3.3660    2.0550 C.ar    1  UNL1       -0.0345
     15 C           0.1048   -2.7373    1.9615 C.ar    1  UNL1       -0.0385
     16 C           0.0007   -1.4661    1.4279 C.ar    1  UNL1        0.0342
     17 N          -1.2863   -0.8551    1.3520 N.am    1  UNL1       -0.2839
     18 C          -2.1403   -0.9872    0.2399 C.2     1  UNL1        0.2390
     19 O          -1.6759   -1.7040   -0.7131 O.2     1  UNL1       -0.2734
     20 C          -3.4635   -0.3862    0.1083 C.3     1  UNL1        0.1136
     21 C          -3.4404    1.1226    0.2826 C.ar    1  UNL1       -0.0144
     22 C          -3.1436    1.9696   -0.6998 C.ar    1  UNL1       -0.0496
     23 C          -3.1358    3.3143   -0.4679 C.ar    1  UNL1       -0.0240
     24 S          -3.5831    3.4159    1.2816 S.2     1  UNL1       -0.1047
     25 C          -3.7334    1.6631    1.5210 C.ar    1  UNL1       -0.0192
     26 N          -4.1173   -0.7131   -1.1456 N.3     1  UNL1       -0.2879
     27 C          -5.4287   -0.0576   -1.2016 C.3     1  UNL1       -0.0001
     28 C          -6.0573   -0.7224   -2.3931 C.3     1  UNL1       -0.0390
     29 C          -5.5351   -2.1210   -2.3026 C.3     1  UNL1       -0.0390
     30 C          -4.4146   -2.1015   -1.2753 C.3     1  UNL1       -0.0001
     31 C           1.1135   -0.8053    0.9805 C.ar    1  UNL1       -0.0292
     32 C           2.3333   -1.4010    1.0598 C.ar    1  UNL1        0.0291
     33 C           4.9527    1.0755    0.6079 C.ar    1  UNL1       -0.0261
     34 H           7.9383    1.7774   -0.4721 H       1  UNL1        0.1442
     35 H           8.9213    2.6546    0.6008 H       1  UNL1        0.1442
     36 H           4.8640    3.7843   -1.3054 H       1  UNL1        0.0637
     37 H           2.9521    2.5442   -2.2781 H       1  UNL1        0.0618
     38 H           2.3173    0.3120   -1.3779 H       1  UNL1        0.0624
     39 H           4.1919   -3.8423    1.8467 H       1  UNL1        0.1889
     40 H           1.4526   -4.3502    2.4615 H       1  UNL1        0.0639
     41 H          -0.8187   -3.2305    2.3089 H       1  UNL1        0.0637
     42 H          -1.5945   -0.2900    2.1612 H       1  UNL1        0.1549
     43 H          -4.1232   -0.7790    0.8978 H       1  UNL1        0.0609
     44 H          -2.8910    1.6165   -1.7459 H       1  UNL1        0.0626
     45 H          -2.9274    4.1586   -1.1091 H       1  UNL1        0.0693
     46 H          -3.9946    1.1673    2.4361 H       1  UNL1        0.0697
     47 H          -5.3158    1.0335   -1.3812 H       1  UNL1        0.0427
     48 H          -5.9679   -0.2464   -0.2640 H       1  UNL1        0.0427
     49 H          -5.7139   -0.1742   -3.3016 H       1  UNL1        0.0278
     50 H          -7.1654   -0.6669   -2.3765 H       1  UNL1        0.0278
     51 H          -6.3430   -2.7870   -1.9730 H       1  UNL1        0.0278
     52 H          -5.1370   -2.3977   -3.3114 H       1  UNL1        0.0278
     53 H          -4.7810   -2.5837   -0.3470 H       1  UNL1        0.0427
     54 H          -3.5578   -2.6287   -1.7183 H       1  UNL1        0.0427
     55 H           0.9696    0.1885    0.5759 H       1  UNL1        0.0643
     56 H           5.5419    0.6717    1.4384 H       1  UNL1        0.0644
@<TRIPOS>BOND
     1     1     2    1
     2     2     3    2
     3     2     4    2
     4     2     5    1
     5     5     6   ar
     6     6     7   ar
     7     7     8   ar
     8     8     9   ar
     9     9    10    1
    10    10    11   ar
    11    11    12   ar
    12    12    13   ar
    13    13    14   ar
    14    14    15   ar
    15    15    16   ar
    16    16    17    1
    17    17    18   am
    18    18    19    2
    19    18    20    1
    20    20    21    1
    21    21    22   ar
    22    22    23   ar
    23    23    24   ar
    24    24    25   ar
    25    20    26    1
    26    26    27    1
    27    27    28    1
    28    28    29    1
    29    29    30    1
    30    16    31   ar
    31    31    32   ar
    32     9    33   ar
    33    33     5   ar
    34    32    10   ar
    35    32    13   ar
    36    25    21   ar
    37    30    26    1
    38     1    34    1
    39     1    35    1
    40     6    36    1
    41     7    37    1
    42     8    38    1
    43    12    39    1
    44    14    40    1
    45    15    41    1
    46    17    42    1
    47    20    43    1
    48    22    44    1
    49    23    45    1
    50    25    46    1
    51    27    47    1
    52    27    48    1
    53    28    49    1
    54    28    50    1
    55    29    51    1
    56    29    52    1
    57    30    53    1
    58    30    54    1
    59    31    55    1
    60    33    56    1
