
     RDKit          3D

 56 60  0  0  0  0  0  0  0  0999 V2000
    8.0820    2.7200   -0.0156 N   0  0  0  0  0  0  0  0  0  0  0  0
    6.6510    3.1542    0.8123 S   0  0  0  0  0  6  0  0  0  0  0  0
    6.3811    4.6098    0.8278 O   0  0  0  0  0  0  0  0  0  0  0  0
    6.8127    2.6901    2.2532 O   0  0  0  0  0  0  0  0  0  0  0  0
    5.2894    2.2922    0.1050 C   0  0  0  0  0  0  0  0  0  0  0  0
    4.5620    2.8135   -0.9357 C   0  0  0  0  0  0  0  0  0  0  0  0
    3.5014    2.0979   -1.4567 C   0  0  0  0  0  0  0  0  0  0  0  0
    3.1523    0.8537   -0.9470 C   0  0  0  0  0  0  0  0  0  0  0  0
    3.8807    0.3355    0.0929 C   0  0  0  0  0  0  0  0  0  0  0  0
    3.5787   -0.9562    0.6885 C   0  0  0  0  0  0  0  0  0  0  0  0
    4.4237   -1.9536    0.9978 N   0  0  0  0  0  0  0  0  0  0  0  0
    3.7557   -2.9669    1.5314 N   0  0  0  0  0  0  0  0  0  0  0  0
    2.4357   -2.6892    1.6013 C   0  0  0  0  0  0  0  0  0  0  0  0
    1.3262   -3.3660    2.0550 C   0  0  0  0  0  0  0  0  0  0  0  0
    0.1048   -2.7373    1.9615 C   0  0  0  0  0  0  0  0  0  0  0  0
    0.0007   -1.4661    1.4279 C   0  0  0  0  0  0  0  0  0  0  0  0
   -1.2863   -0.8551    1.3520 N   0  0  0  0  0  0  0  0  0  0  0  0
   -2.1403   -0.9872    0.2399 C   0  0  0  0  0  0  0  0  0  0  0  0
   -1.6759   -1.7040   -0.7131 O   0  0  0  0  0  0  0  0  0  0  0  0
   -3.4635   -0.3862    0.1083 C   0  0  0  0  0  0  0  0  0  0  0  0
   -3.4404    1.1226    0.2826 C   0  0  0  0  0  0  0  0  0  0  0  0
   -3.1436    1.9696   -0.6998 C   0  0  0  0  0  0  0  0  0  0  0  0
   -3.1358    3.3143   -0.4679 C   0  0  0  0  0  0  0  0  0  0  0  0
   -3.5831    3.4159    1.2816 S   0  0  0  0  0  0  0  0  0  0  0  0
   -3.7334    1.6631    1.5210 C   0  0  0  0  0  0  0  0  0  0  0  0
   -4.1173   -0.7131   -1.1456 N   0  0  0  0  0  0  0  0  0  0  0  0
   -5.4287   -0.0576   -1.2016 C   0  0  0  0  0  0  0  0  0  0  0  0
   -6.0573   -0.7224   -2.3931 C   0  0  0  0  0  0  0  0  0  0  0  0
   -5.5351   -2.1210   -2.3026 C   0  0  0  0  0  0  0  0  0  0  0  0
   -4.4146   -2.1015   -1.2753 C   0  0  0  0  0  0  0  0  0  0  0  0
    1.1135   -0.8053    0.9805 C   0  0  0  0  0  0  0  0  0  0  0  0
    2.3333   -1.4010    1.0598 C   0  0  0  0  0  0  0  0  0  0  0  0
    4.9527    1.0755    0.6079 C   0  0  0  0  0  0  0  0  0  0  0  0
    7.9383    1.7774   -0.4721 H   0  0  0  0  0  0  0  0  0  0  0  0
    8.9213    2.6546    0.6008 H   0  0  0  0  0  0  0  0  0  0  0  0
    4.8640    3.7843   -1.3054 H   0  0  0  0  0  0  0  0  0  0  0  0
    2.9521    2.5442   -2.2781 H   0  0  0  0  0  0  0  0  0  0  0  0
    2.3173    0.3120   -1.3779 H   0  0  0  0  0  0  0  0  0  0  0  0
    4.1919   -3.8423    1.8467 H   0  0  0  0  0  0  0  0  0  0  0  0
    1.4526   -4.3502    2.4615 H   0  0  0  0  0  0  0  0  0  0  0  0
   -0.8187   -3.2305    2.3089 H   0  0  0  0  0  0  0  0  0  0  0  0
   -1.5945   -0.2900    2.1612 H   0  0  0  0  0  0  0  0  0  0  0  0
   -4.1232   -0.7790    0.8978 H   0  0  0  0  0  0  0  0  0  0  0  0
   -2.8910    1.6165   -1.7459 H   0  0  0  0  0  0  0  0  0  0  0  0
   -2.9274    4.1586   -1.1091 H   0  0  0  0  0  0  0  0  0  0  0  0
   -3.9946    1.1673    2.4361 H   0  0  0  0  0  0  0  0  0  0  0  0
   -5.3158    1.0335   -1.3812 H   0  0  0  0  0  0  0  0  0  0  0  0
   -5.9679   -0.2464   -0.2640 H   0  0  0  0  0  0  0  0  0  0  0  0
   -5.7139   -0.1742   -3.3016 H   0  0  0  0  0  0  0  0  0  0  0  0
   -7.1654   -0.6669   -2.3765 H   0  0  0  0  0  0  0  0  0  0  0  0
   -6.3430   -2.7870   -1.9730 H   0  0  0  0  0  0  0  0  0  0  0  0
   -5.1370   -2.3977   -3.3114 H   0  0  0  0  0  0  0  0  0  0  0  0
   -4.7810   -2.5837   -0.3470 H   0  0  0  0  0  0  0  0  0  0  0  0
   -3.5578   -2.6287   -1.7183 H   0  0  0  0  0  0  0  0  0  0  0  0
    0.9696    0.1885    0.5759 H   0  0  0  0  0  0  0  0  0  0  0  0
    5.5419    0.6717    1.4384 H   0  0  0  0  0  0  0  0  0  0  0  0
  1  2  1  0
  2  3  2  0
  2  4  2  0
  2  5  1  0
  5  6  2  0
  6  7  1  0
  7  8  2  0
  8  9  1  0
  9 10  1  0
 10 11  2  0
 11 12  1  0
 12 13  1  0
 13 14  2  0
 14 15  1  0
 15 16  2  0
 16 17  1  0
 17 18  1  0
 18 19  2  0
 18 20  1  0
 20 21  1  0
 21 22  1  0
 22 23  2  0
 23 24  1  0
 24 25  1  0
 20 26  1  0
 26 27  1  0
 27 28  1  0
 28 29  1  0
 29 30  1  0
 16 31  1  0
 31 32  2  0
  9 33  2  0
 33  5  1  0
 32 10  1  0
 32 13  1  0
 25 21  2  0
 30 26  1  0
  1 34  1  0
  1 35  1  0
  6 36  1  0
  7 37  1  0
  8 38  1  0
 12 39  1  0
 14 40  1  0
 15 41  1  0
 17 42  1  0
 20 43  1  0
 22 44  1  0
 23 45  1  0
 25 46  1  0
 27 47  1  0
 27 48  1  0
 28 49  1  0
 28 50  1  0
 29 51  1  0
 29 52  1  0
 30 53  1  0
 30 54  1  0
 31 55  1  0
 33 56  1  0
M  END
$$$$
