@<TRIPOS>MOLECULE
*****
 70 72 0 0 0
SMALL
GASTEIGER

@<TRIPOS>ATOM
      1 C          -5.1962    2.1765   -0.0729 C.3     1  UNL1        0.0817
      2 C          -4.1933    3.2134   -0.4745 C.3     1  UNL1       -0.0412
      3 N          -6.1173    2.6053    0.9413 N.3     1  UNL1       -0.3089
      4 C          -5.4755    2.9902    2.1725 C.3     1  UNL1       -0.0151
      5 C          -4.4825    0.9802    0.3957 C.2     1  UNL1        0.2304
      6 O          -4.8509    0.6347    1.5468 O.2     1  UNL1       -0.2741
      7 N          -3.4943    0.2193   -0.2509 N.am    1  UNL1       -0.3022
      8 C          -2.8745   -0.9349    0.3224 C.3     1  UNL1        0.1045
      9 C          -1.4394   -0.7179    0.5915 C.2     1  UNL1        0.2370
     10 O          -1.6710    0.4377    0.1089 O.2     1  UNL1       -0.2735
     11 N          -0.2405   -1.2767    1.0894 N.am    1  UNL1       -0.2884
     12 C           0.2893   -2.5038    1.6700 C.3     1  UNL1        0.0156
     13 C           1.2008   -2.0740    2.7965 C.3     1  UNL1       -0.0350
     14 C           1.5244   -0.6275    2.4807 C.3     1  UNL1       -0.0243
     15 C           0.9559   -0.4643    1.0859 C.3     1  UNL1        0.1023
     16 C           1.9713   -0.9760    0.1230 C.2     1  UNL1        0.2340
     17 O           2.0156   -1.9486   -0.6800 O.2     1  UNL1       -0.2738
     18 N           3.1521   -0.1911    0.1087 N.am    1  UNL1       -0.3069
     19 C           4.3036   -0.4524   -0.7278 C.3     1  UNL1        0.0487
     20 C           5.5442   -0.7264    0.0561 C.3     1  UNL1       -0.0300
     21 C           6.7055    0.1541   -0.3546 C.3     1  UNL1       -0.0471
     22 C           6.2108    1.5922   -0.3489 C.3     1  UNL1       -0.0273
     23 C           5.3630    1.7112   -1.5868 C.ar    1  UNL1       -0.0424
     24 C           4.4551    0.6561   -1.6822 C.ar    1  UNL1       -0.0240
     25 C           3.6121    0.6648   -2.7990 C.ar    1  UNL1       -0.0565
     26 C           3.7000    1.6799   -3.7396 C.ar    1  UNL1       -0.0614
     27 C           4.6041    2.7038   -3.6169 C.ar    1  UNL1       -0.0615
     28 C           5.4355    2.7090   -2.5297 C.ar    1  UNL1       -0.0583
     29 C          -3.1896   -2.1890   -0.4392 C.3     1  UNL1       -0.0108
     30 C          -2.7663   -2.2111   -1.8615 C.3     1  UNL1       -0.0579
     31 C          -4.7186   -2.3164   -0.4276 C.3     1  UNL1       -0.0579
     32 C          -2.6795   -3.4289    0.2515 C.3     1  UNL1       -0.0579
     33 H          -5.8136    1.9386   -0.9766 H       1  UNL1        0.0553
     34 H          -3.2471    3.0690    0.0861 H       1  UNL1        0.0249
     35 H          -3.9357    3.0779   -1.5452 H       1  UNL1        0.0249
     36 H          -4.6377    4.2158   -0.3016 H       1  UNL1        0.0249
     37 H          -6.8567    3.2497    0.6323 H       1  UNL1        0.1223
     38 H          -5.7286    2.3123    3.0096 H       1  UNL1        0.0388
     39 H          -5.8788    3.9994    2.4458 H       1  UNL1        0.0388
     40 H          -4.3825    3.0918    2.0996 H       1  UNL1        0.0388
     41 H          -3.2499    0.5881   -1.2161 H       1  UNL1        0.1495
     42 H          -3.3405   -1.0685    1.3328 H       1  UNL1        0.0600
     43 H           0.8025   -3.1390    0.9252 H       1  UNL1        0.0465
     44 H          -0.4891   -3.1465    2.1267 H       1  UNL1        0.0465
     45 H           2.1044   -2.7186    2.7648 H       1  UNL1        0.0281
     46 H           0.6926   -2.1174    3.7659 H       1  UNL1        0.0281
     47 H           1.0746    0.0872    3.1754 H       1  UNL1        0.0288
     48 H           2.6248   -0.5241    2.4379 H       1  UNL1        0.0288
     49 H           0.8162    0.5881    0.8544 H       1  UNL1        0.0597
     50 H           3.3817    0.6637    0.6683 H       1  UNL1        0.1493
     51 H           4.0483   -1.3701   -1.3259 H       1  UNL1        0.0548
     52 H           5.3900   -0.5575    1.1453 H       1  UNL1        0.0286
     53 H           5.9085   -1.7767   -0.1121 H       1  UNL1        0.0286
     54 H           7.5353   -0.0198    0.3480 H       1  UNL1        0.0269
     55 H           6.9906   -0.0628   -1.4126 H       1  UNL1        0.0269
     56 H           7.0830    2.2445   -0.3635 H       1  UNL1        0.0313
     57 H           5.5881    1.8337    0.5331 H       1  UNL1        0.0313
     58 H           2.8897   -0.1002   -2.9523 H       1  UNL1        0.0621
     59 H           3.0605    1.7200   -4.6215 H       1  UNL1        0.0618
     60 H           4.7138    3.5249   -4.3268 H       1  UNL1        0.0618
     61 H           6.1916    3.4450   -2.3020 H       1  UNL1        0.0620
     62 H          -3.0379   -1.3386   -2.4558 H       1  UNL1        0.0236
     63 H          -3.2821   -3.0730   -2.3432 H       1  UNL1        0.0236
     64 H          -1.6721   -2.4309   -2.0051 H       1  UNL1        0.0236
     65 H          -5.0360   -2.0123    0.6038 H       1  UNL1        0.0236
     66 H          -5.0529   -3.3400   -0.6410 H       1  UNL1        0.0236
     67 H          -5.1854   -1.6001   -1.1038 H       1  UNL1        0.0236
     68 H          -3.3125   -4.2979   -0.0903 H       1  UNL1        0.0236
     69 H          -1.6663   -3.6757   -0.1490 H       1  UNL1        0.0236
     70 H          -2.7444   -3.3696    1.3384 H       1  UNL1        0.0236
@<TRIPOS>BOND
     1     1     2    1
     2     1     3    1
     3     3     4    1
     4     1     5    1
     5     5     6    2
     6     5     7   am
     7     7     8    1
     8     8     9    1
     9     9    10    2
    10     9    11   am
    11    11    12    1
    12    12    13    1
    13    13    14    1
    14    14    15    1
    15    15    16    1
    16    16    17    2
    17    16    18   am
    18    18    19    1
    19    19    20    1
    20    20    21    1
    21    21    22    1
    22    22    23    1
    23    23    24   ar
    24    24    25   ar
    25    25    26   ar
    26    26    27   ar
    27    27    28   ar
    28     8    29    1
    29    29    30    1
    30    29    31    1
    31    29    32    1
    32    15    11    1
    33    24    19    1
    34    28    23   ar
    35     1    33    1
    36     2    34    1
    37     2    35    1
    38     2    36    1
    39     3    37    1
    40     4    38    1
    41     4    39    1
    42     4    40    1
    43     7    41    1
    44     8    42    1
    45    12    43    1
    46    12    44    1
    47    13    45    1
    48    13    46    1
    49    14    47    1
    50    14    48    1
    51    15    49    1
    52    18    50    1
    53    19    51    1
    54    20    52    1
    55    20    53    1
    56    21    54    1
    57    21    55    1
    58    22    56    1
    59    22    57    1
    60    25    58    1
    61    26    59    1
    62    27    60    1
    63    28    61    1
    64    30    62    1
    65    30    63    1
    66    30    64    1
    67    31    65    1
    68    31    66    1
    69    31    67    1
    70    32    68    1
    71    32    69    1
    72    32    70    1
