
     RDKit          3D

 70 72  0  0  0  0  0  0  0  0999 V2000
   -5.1962    2.1765   -0.0729 C   0  0  2  0  0  0  0  0  0  0  0  0
   -4.1933    3.2134   -0.4745 C   0  0  0  0  0  0  0  0  0  0  0  0
   -6.1173    2.6053    0.9413 N   0  0  0  0  0  0  0  0  0  0  0  0
   -5.4755    2.9902    2.1725 C   0  0  0  0  0  0  0  0  0  0  0  0
   -4.4825    0.9802    0.3957 C   0  0  0  0  0  0  0  0  0  0  0  0
   -4.8509    0.6347    1.5468 O   0  0  0  0  0  0  0  0  0  0  0  0
   -3.4943    0.2193   -0.2509 N   0  0  0  0  0  0  0  0  0  0  0  0
   -2.8745   -0.9349    0.3224 C   0  0  2  0  0  0  0  0  0  0  0  0
   -1.4394   -0.7179    0.5915 C   0  0  0  0  0  0  0  0  0  0  0  0
   -1.6710    0.4377    0.1089 O   0  0  0  0  0  0  0  0  0  0  0  0
   -0.2405   -1.2767    1.0894 N   0  0  0  0  0  0  0  0  0  0  0  0
    0.2893   -2.5038    1.6700 C   0  0  0  0  0  0  0  0  0  0  0  0
    1.2008   -2.0740    2.7965 C   0  0  0  0  0  0  0  0  0  0  0  0
    1.5244   -0.6275    2.4807 C   0  0  0  0  0  0  0  0  0  0  0  0
    0.9559   -0.4643    1.0859 C   0  0  1  0  0  0  0  0  0  0  0  0
    1.9713   -0.9760    0.1230 C   0  0  0  0  0  0  0  0  0  0  0  0
    2.0156   -1.9486   -0.6800 O   0  0  0  0  0  0  0  0  0  0  0  0
    3.1521   -0.1911    0.1087 N   0  0  0  0  0  0  0  0  0  0  0  0
    4.3036   -0.4524   -0.7278 C   0  0  2  0  0  0  0  0  0  0  0  0
    5.5442   -0.7264    0.0561 C   0  0  0  0  0  0  0  0  0  0  0  0
    6.7055    0.1541   -0.3546 C   0  0  0  0  0  0  0  0  0  0  0  0
    6.2108    1.5922   -0.3489 C   0  0  0  0  0  0  0  0  0  0  0  0
    5.3630    1.7112   -1.5868 C   0  0  0  0  0  0  0  0  0  0  0  0
    4.4551    0.6561   -1.6822 C   0  0  0  0  0  0  0  0  0  0  0  0
    3.6121    0.6648   -2.7990 C   0  0  0  0  0  0  0  0  0  0  0  0
    3.7000    1.6799   -3.7396 C   0  0  0  0  0  0  0  0  0  0  0  0
    4.6041    2.7038   -3.6169 C   0  0  0  0  0  0  0  0  0  0  0  0
    5.4355    2.7090   -2.5297 C   0  0  0  0  0  0  0  0  0  0  0  0
   -3.1896   -2.1890   -0.4392 C   0  0  0  0  0  0  0  0  0  0  0  0
   -2.7663   -2.2111   -1.8615 C   0  0  0  0  0  0  0  0  0  0  0  0
   -4.7186   -2.3164   -0.4276 C   0  0  0  0  0  0  0  0  0  0  0  0
   -2.6795   -3.4289    0.2515 C   0  0  0  0  0  0  0  0  0  0  0  0
   -5.8136    1.9386   -0.9766 H   0  0  0  0  0  0  0  0  0  0  0  0
   -3.2471    3.0690    0.0861 H   0  0  0  0  0  0  0  0  0  0  0  0
   -3.9357    3.0779   -1.5452 H   0  0  0  0  0  0  0  0  0  0  0  0
   -4.6377    4.2158   -0.3016 H   0  0  0  0  0  0  0  0  0  0  0  0
   -6.8567    3.2497    0.6323 H   0  0  0  0  0  0  0  0  0  0  0  0
   -5.7286    2.3123    3.0096 H   0  0  0  0  0  0  0  0  0  0  0  0
   -5.8788    3.9994    2.4458 H   0  0  0  0  0  0  0  0  0  0  0  0
   -4.3825    3.0918    2.0996 H   0  0  0  0  0  0  0  0  0  0  0  0
   -3.2499    0.5881   -1.2161 H   0  0  0  0  0  0  0  0  0  0  0  0
   -3.3405   -1.0685    1.3328 H   0  0  0  0  0  0  0  0  0  0  0  0
    0.8025   -3.1390    0.9252 H   0  0  0  0  0  0  0  0  0  0  0  0
   -0.4891   -3.1465    2.1267 H   0  0  0  0  0  0  0  0  0  0  0  0
    2.1044   -2.7186    2.7648 H   0  0  0  0  0  0  0  0  0  0  0  0
    0.6926   -2.1174    3.7659 H   0  0  0  0  0  0  0  0  0  0  0  0
    1.0746    0.0872    3.1754 H   0  0  0  0  0  0  0  0  0  0  0  0
    2.6248   -0.5241    2.4379 H   0  0  0  0  0  0  0  0  0  0  0  0
    0.8162    0.5881    0.8544 H   0  0  0  0  0  0  0  0  0  0  0  0
    3.3817    0.6637    0.6683 H   0  0  0  0  0  0  0  0  0  0  0  0
    4.0483   -1.3701   -1.3259 H   0  0  0  0  0  0  0  0  0  0  0  0
    5.3900   -0.5575    1.1453 H   0  0  0  0  0  0  0  0  0  0  0  0
    5.9085   -1.7767   -0.1121 H   0  0  0  0  0  0  0  0  0  0  0  0
    7.5353   -0.0198    0.3480 H   0  0  0  0  0  0  0  0  0  0  0  0
    6.9906   -0.0628   -1.4126 H   0  0  0  0  0  0  0  0  0  0  0  0
    7.0830    2.2445   -0.3635 H   0  0  0  0  0  0  0  0  0  0  0  0
    5.5881    1.8337    0.5331 H   0  0  0  0  0  0  0  0  0  0  0  0
    2.8897   -0.1002   -2.9523 H   0  0  0  0  0  0  0  0  0  0  0  0
    3.0605    1.7200   -4.6215 H   0  0  0  0  0  0  0  0  0  0  0  0
    4.7138    3.5249   -4.3268 H   0  0  0  0  0  0  0  0  0  0  0  0
    6.1916    3.4450   -2.3020 H   0  0  0  0  0  0  0  0  0  0  0  0
   -3.0379   -1.3386   -2.4558 H   0  0  0  0  0  0  0  0  0  0  0  0
   -3.2821   -3.0730   -2.3432 H   0  0  0  0  0  0  0  0  0  0  0  0
   -1.6721   -2.4309   -2.0051 H   0  0  0  0  0  0  0  0  0  0  0  0
   -5.0360   -2.0123    0.6038 H   0  0  0  0  0  0  0  0  0  0  0  0
   -5.0529   -3.3400   -0.6410 H   0  0  0  0  0  0  0  0  0  0  0  0
   -5.1854   -1.6001   -1.1038 H   0  0  0  0  0  0  0  0  0  0  0  0
   -3.3125   -4.2979   -0.0903 H   0  0  0  0  0  0  0  0  0  0  0  0
   -1.6663   -3.6757   -0.1490 H   0  0  0  0  0  0  0  0  0  0  0  0
   -2.7444   -3.3696    1.3384 H   0  0  0  0  0  0  0  0  0  0  0  0
  1  2  1  0
  1  3  1  0
  3  4  1  0
  1  5  1  0
  5  6  2  0
  5  7  1  0
  7  8  1  0
  8  9  1  0
  9 10  2  0
  9 11  1  0
 11 12  1  0
 12 13  1  0
 13 14  1  0
 14 15  1  0
 15 16  1  0
 16 17  2  0
 16 18  1  0
 18 19  1  0
 19 20  1  0
 20 21  1  0
 21 22  1  0
 22 23  1  0
 23 24  2  0
 24 25  1  0
 25 26  2  0
 26 27  1  0
 27 28  2  0
  8 29  1  0
 29 30  1  0
 29 31  1  0
 29 32  1  0
 15 11  1  0
 24 19  1  0
 28 23  1  0
  1 33  1  6
  2 34  1  0
  2 35  1  0
  2 36  1  0
  3 37  1  0
  4 38  1  0
  4 39  1  0
  4 40  1  0
  7 41  1  0
  8 42  1  1
 12 43  1  0
 12 44  1  0
 13 45  1  0
 13 46  1  0
 14 47  1  0
 14 48  1  0
 15 49  1  6
 18 50  1  0
 19 51  1  6
 20 52  1  0
 20 53  1  0
 21 54  1  0
 21 55  1  0
 22 56  1  0
 22 57  1  0
 25 58  1  0
 26 59  1  0
 27 60  1  0
 28 61  1  0
 30 62  1  0
 30 63  1  0
 30 64  1  0
 31 65  1  0
 31 66  1  0
 31 67  1  0
 32 68  1  0
 32 69  1  0
 32 70  1  0
M  END
$$$$
