
     RDKit          3D

 37 39  0  0  0  0  0  0  0  0999 V2000
    5.7030    1.2917   -1.0105 C   0  0  0  0  0  0  0  0  0  0  0  0
    6.0949   -0.1099   -0.9977 N   0  0  0  0  0  0  0  0  0  0  0  0
    5.4235   -0.9508    0.3514 S   0  0  0  0  0  0  0  0  0  0  0  0
    5.9094   -2.3875    0.2284 O   0  0  0  0  0  0  0  0  0  0  0  0
    5.9516   -0.4493    1.6670 O   0  0  0  0  0  0  0  0  0  0  0  0
    3.6897   -0.9505    0.3258 C   0  0  0  0  0  0  0  0  0  0  0  0
    2.9341   -1.9205   -0.2989 C   0  0  0  0  0  0  0  0  0  0  0  0
    1.5637   -1.9743   -0.3551 C   0  0  0  0  0  0  0  0  0  0  0  0
    0.9045   -0.9266    0.2958 C   0  0  0  0  0  0  0  0  0  0  0  0
    1.6077    0.0806    0.9435 C   0  0  0  0  0  0  0  0  0  0  0  0
    2.9888    0.0590    0.9522 C   0  0  0  0  0  0  0  0  0  0  0  0
   -0.5648   -0.8780    0.3001 C   0  0  0  0  0  0  0  0  0  0  0  0
   -1.3900   -1.8103   -0.3094 C   0  0  0  0  0  0  0  0  0  0  0  0
   -2.6550   -1.3522   -0.0415 C   0  0  0  0  0  0  0  0  0  0  0  0
   -2.5862   -0.2071    0.6896 C   0  0  0  0  0  0  0  0  0  0  0  0
   -1.3120    0.0355    0.8684 O   0  0  0  0  0  0  0  0  0  0  0  0
   -3.5743    0.7034    1.2515 C   0  0  0  0  0  0  0  0  0  0  0  0
   -4.6701    0.9443    0.5528 C   0  0  0  0  0  0  0  0  0  0  0  0
   -5.0538    0.2325   -1.0589 S   0  0  0  0  0  0  0  0  0  0  0  0
   -6.3996    1.3773   -1.4244 C   0  0  0  0  0  0  0  0  0  0  0  0
   -7.0068    1.6230   -2.5394 N   0  0  0  0  0  0  0  0  0  0  0  0
   -6.7023    2.0139   -0.1837 N   0  0  0  0  0  0  0  0  0  0  0  0
   -5.8082    1.8000    0.8666 C   0  0  0  0  0  0  0  0  0  0  0  0
   -5.8979    2.2711    2.0340 O   0  0  0  0  0  0  0  0  0  0  0  0
    5.7205    1.7159    0.0096 H   0  0  0  0  0  0  0  0  0  0  0  0
    4.7581    1.4073   -1.5490 H   0  0  0  0  0  0  0  0  0  0  0  0
    6.4924    1.8323   -1.5846 H   0  0  0  0  0  0  0  0  0  0  0  0
    7.1290   -0.1114   -0.8431 H   0  0  0  0  0  0  0  0  0  0  0  0
    3.4547   -2.7383   -0.8076 H   0  0  0  0  0  0  0  0  0  0  0  0
    1.0283   -2.7594   -0.8598 H   0  0  0  0  0  0  0  0  0  0  0  0
    1.1202    0.9040    1.4566 H   0  0  0  0  0  0  0  0  0  0  0  0
    3.5460    0.8383    1.4527 H   0  0  0  0  0  0  0  0  0  0  0  0
   -1.1218   -2.6998   -0.8719 H   0  0  0  0  0  0  0  0  0  0  0  0
   -3.6057   -1.7739   -0.3297 H   0  0  0  0  0  0  0  0  0  0  0  0
   -3.4447    1.1844    2.2128 H   0  0  0  0  0  0  0  0  0  0  0  0
   -6.6576    1.0624   -3.3690 H   0  0  0  0  0  0  0  0  0  0  0  0
   -7.5693    2.6229   -0.0651 H   0  0  0  0  0  0  0  0  0  0  0  0
  1  2  1  0
  2  3  1  0
  3  4  2  0
  3  5  2  0
  3  6  1  0
  6  7  2  0
  7  8  1  0
  8  9  2  0
  9 10  1  0
 10 11  2  0
  9 12  1  0
 12 13  2  0
 13 14  1  0
 14 15  2  0
 15 16  1  0
 15 17  1  0
 17 18  2  0
 18 19  1  0
 19 20  1  0
 20 21  2  3
 20 22  1  0
 22 23  1  0
 23 24  2  0
 11  6  1  0
 16 12  1  0
 23 18  1  0
  1 25  1  0
  1 26  1  0
  1 27  1  0
  2 28  1  0
  7 29  1  0
  8 30  1  0
 10 31  1  0
 11 32  1  0
 13 33  1  0
 14 34  1  0
 17 35  1  0
 21 36  1  0
 22 37  1  0
M  END
$$$$
