@<TRIPOS>MOLECULE
*****
 26 28 0 0 0
SMALL
GASTEIGER

@<TRIPOS>ATOM
      1 O          -2.3504   -1.9024    2.2212 O.2     1  UNL1       -0.2524
      2 C          -2.0695   -1.2939    1.1459 C.2     1  UNL1        0.3070
      3 N          -2.2340   -1.7727   -0.1943 N.am    1  UNL1       -0.2381
      4 C          -1.7690   -0.7079   -1.0453 C.2     1  UNL1        0.2487
      5 O          -2.0836   -0.6652   -2.2702 O.2     1  UNL1       -0.2726
      6 C          -0.9590    0.1665   -0.2140 C.3     1  UNL1        0.1442
      7 C          -1.0303    1.6202   -0.5880 C.3     1  UNL1        0.0157
      8 C          -0.3674    2.4706    0.4550 C.3     1  UNL1        0.0923
      9 O           0.7320    1.7892    1.0805 O.3     1  UNL1       -0.4915
     10 C           1.3035    0.6669    0.5101 C.ar    1  UNL1        0.1263
     11 C           2.6426    0.3630    0.5767 C.ar    1  UNL1       -0.0169
     12 C           3.1486   -0.7696   -0.0121 C.ar    1  UNL1       -0.0230
     13 C           2.3308   -1.6393   -0.6894 C.ar    1  UNL1        0.1240
     14 F           2.7942   -2.7709   -1.2855 F       1  UNL1       -0.2055
     15 C           0.9685   -1.3574   -0.7735 C.ar    1  UNL1       -0.0173
     16 C           0.4794   -0.2135   -0.1748 C.ar    1  UNL1        0.0292
     17 N          -1.5206    0.0235    1.1137 N.am    1  UNL1       -0.2811
     18 H          -2.6115   -2.6951   -0.4331 H       1  UNL1        0.1591
     19 H          -0.6061    1.7802   -1.6045 H       1  UNL1        0.0327
     20 H          -2.1071    1.8948   -0.6672 H       1  UNL1        0.0327
     21 H          -1.0534    2.8815    1.2083 H       1  UNL1        0.0697
     22 H           0.1166    3.3284   -0.0981 H       1  UNL1        0.0697
     23 H           3.2752    1.0737    1.1235 H       1  UNL1        0.0655
     24 H           4.1969   -0.9945    0.0478 H       1  UNL1        0.0647
     25 H           0.2856   -2.0250   -1.3037 H       1  UNL1        0.0651
     26 H          -1.5122    0.7491    1.8709 H       1  UNL1        0.1516
@<TRIPOS>BOND
     1     1     2    2
     2     2     3   am
     3     3     4   am
     4     4     5    2
     5     4     6    1
     6     6     7    1
     7     7     8    1
     8     8     9    1
     9     9    10    1
    10    10    11   ar
    11    11    12   ar
    12    12    13   ar
    13    13    14    1
    14    13    15   ar
    15    15    16   ar
    16     6    17    1
    17    17     2   am
    18    16     6    1
    19    16    10   ar
    20     3    18    1
    21     7    19    1
    22     7    20    1
    23     8    21    1
    24     8    22    1
    25    11    23    1
    26    12    24    1
    27    15    25    1
    28    17    26    1
