@<TRIPOS>MOLECULE
*****
 40 42 0 0 0
SMALL
GASTEIGER

@<TRIPOS>ATOM
      1 C           0.7072   -2.9189   -0.2931 C.3     1  UNL1        0.0790
      2 O          -0.1613   -1.8321   -0.0694 O.3     1  UNL1       -0.4914
      3 C           0.3342   -0.5950    0.2809 C.ar    1  UNL1        0.1627
      4 C           1.7208   -0.4912    0.4201 C.ar    1  UNL1       -0.0091
      5 C           2.2965    0.6845    0.7510 C.ar    1  UNL1       -0.0201
      6 C           3.7115    0.8841    0.8890 C.2     1  UNL1       -0.0355
      7 C           4.7447    0.4756    0.2651 C.2     1  UNL1        0.0812
      8 S           6.4097    1.0190    0.8147 S.3     1  UNL1       -0.0290
      9 C           7.2813    0.1361   -0.4855 C.2     1  UNL1        0.2466
     10 O           8.6558    0.1052   -0.7014 O.2     1  UNL1       -0.4890
     11 N           6.3997   -0.4491   -1.1631 N.am    1  UNL1       -0.1348
     12 C           5.0609   -0.3357   -0.8497 C.2     1  UNL1        0.2774
     13 O           4.1559   -0.9367   -1.5386 O.2     1  UNL1       -0.2674
     14 C           1.4451    1.7964    0.9527 C.ar    1  UNL1       -0.0509
     15 C           0.1142    1.7017    0.8237 C.ar    1  UNL1       -0.0151
     16 C          -0.5062    0.4450    0.4664 C.ar    1  UNL1        0.1699
     17 O          -1.7825    0.5277    0.3796 O.3     1  UNL1       -0.4518
     18 C          -3.0383    0.6028    0.2636 C.ar    1  UNL1        0.1403
     19 C          -3.6726    1.8204    0.6210 C.ar    1  UNL1       -0.0175
     20 C          -5.0016    2.0744    0.5521 C.ar    1  UNL1       -0.0409
     21 C          -5.8073    1.0515    0.0887 C.ar    1  UNL1        0.0525
     22 C          -7.2356    1.2097    0.0237 C.1     1  UNL1        0.0992
     23 N          -8.3718    1.3438   -0.0103 N.1     1  UNL1       -0.1909
     24 C          -5.2422   -0.1362   -0.2666 C.ar    1  UNL1       -0.0291
     25 C          -3.8866   -0.3961   -0.1939 C.ar    1  UNL1        0.0981
     26 C          -3.4492   -1.7577   -0.5661 C.3     1  UNL1        0.4208
     27 F          -2.9030   -2.4371    0.4961 F       1  UNL1       -0.1658
     28 F          -2.6456   -1.6883   -1.6757 F       1  UNL1       -0.1658
     29 F          -4.5489   -2.5227   -0.9694 F       1  UNL1       -0.1658
     30 H           1.4397   -2.5501   -1.0805 H       1  UNL1        0.0660
     31 H           0.1987   -3.8241   -0.6154 H       1  UNL1        0.0660
     32 H           1.3407   -3.1346    0.5813 H       1  UNL1        0.0660
     33 H           2.3225   -1.3707    0.2827 H       1  UNL1        0.0661
     34 H           3.9380    1.5683    1.7757 H       1  UNL1        0.0636
     35 H           8.9184   -0.0977   -1.6717 H       1  UNL1        0.2941
     36 H           1.9465    2.7205    1.2093 H       1  UNL1        0.0625
     37 H          -0.4913    2.5729    0.9890 H       1  UNL1        0.0656
     38 H          -3.0472    2.6470    1.0048 H       1  UNL1        0.0655
     39 H          -5.4434    3.0070    0.8328 H       1  UNL1        0.0631
     40 H          -5.9074   -0.9197   -0.6462 H       1  UNL1        0.0637
@<TRIPOS>BOND
     1     1     2    1
     2     2     3    1
     3     3     4   ar
     4     4     5   ar
     5     5     6    1
     6     6     7    2
     7     7     8    1
     8     8     9    1
     9     9    10    1
    10     9    11    2
    11    11    12    1
    12    12    13    2
    13     5    14   ar
    14    14    15   ar
    15    15    16   ar
    16    16    17    1
    17    17    18    1
    18    18    19   ar
    19    19    20   ar
    20    20    21   ar
    21    21    22    1
    22    22    23    3
    23    21    24   ar
    24    24    25   ar
    25    25    26    1
    26    26    27    1
    27    26    28    1
    28    26    29    1
    29    16     3   ar
    30    25    18   ar
    31    12     7    1
    32     1    30    1
    33     1    31    1
    34     1    32    1
    35     4    33    1
    36     6    34    1
    37    10    35    1
    38    14    36    1
    39    15    37    1
    40    19    38    1
    41    20    39    1
    42    24    40    1
