@<TRIPOS>MOLECULE
*****
 25 25 0 0 0
SMALL
GASTEIGER

@<TRIPOS>ATOM
      1 O          -2.8012   -0.6304    1.6073 O.3     1  UNL1       -0.3232
      2 P          -1.2803    0.0666    1.5314 P.3     1  UNL1        0.3468
      3 O          -1.2967    1.5237    2.4221 O.3     1  UNL1       -0.3232
      4 O          -0.2751   -0.8193    2.2494 O.2     1  UNL1       -0.2576
      5 C          -0.7620    0.3830   -0.1808 C.3     1  UNL1        0.1862
      6 C           0.7067    0.3052   -0.2285 C.ar    1  UNL1       -0.0212
      7 C           1.4355    1.4479   -0.4681 C.ar    1  UNL1       -0.0571
      8 C           2.8306    1.4249   -0.5228 C.ar    1  UNL1       -0.0615
      9 C           3.4595    0.1953   -0.3246 C.ar    1  UNL1       -0.0617
     10 C           2.7591   -0.9776   -0.0807 C.ar    1  UNL1       -0.0615
     11 C           1.3646   -0.9033   -0.0355 C.ar    1  UNL1       -0.0571
     12 P          -1.6220   -0.6282   -1.3646 P.3     1  UNL1        0.3468
     13 O          -3.2153   -0.0691   -1.5105 O.3     1  UNL1       -0.3232
     14 O          -1.5856   -2.2575   -0.9216 O.3     1  UNL1       -0.3232
     15 O          -0.9700   -0.4258   -2.7121 O.2     1  UNL1       -0.2576
     16 H          -3.3244   -0.2093    2.3340 H       1  UNL1        0.2198
     17 H          -1.3854    2.3004    1.7930 H       1  UNL1        0.2198
     18 H          -1.0155    1.4633   -0.3676 H       1  UNL1        0.0599
     19 H           0.9942    2.4387   -0.6306 H       1  UNL1        0.0621
     20 H           3.4454    2.3081   -0.7101 H       1  UNL1        0.0618
     21 H           4.5507    0.1014   -0.3535 H       1  UNL1        0.0618
     22 H           3.2913   -1.9198    0.0690 H       1  UNL1        0.0618
     23 H           0.8204   -1.8178    0.1546 H       1  UNL1        0.0621
     24 H          -3.8516   -0.8409   -1.5072 H       1  UNL1        0.2198
     25 H          -2.2728   -2.4597   -0.2423 H       1  UNL1        0.2198
@<TRIPOS>BOND
     1     1     2    1
     2     2     3    1
     3     2     4    2
     4     2     5    1
     5     5     6    1
     6     6     7   ar
     7     7     8   ar
     8     8     9   ar
     9     9    10   ar
    10    10    11   ar
    11     5    12    1
    12    12    13    1
    13    12    14    1
    14    12    15    2
    15    11     6   ar
    16     1    16    1
    17     3    17    1
    18     5    18    1
    19     7    19    1
    20     8    20    1
    21     9    21    1
    22    10    22    1
    23    11    23    1
    24    13    24    1
    25    14    25    1
