@<TRIPOS>MOLECULE
*****
 46 48 0 0 0
SMALL
GASTEIGER

@<TRIPOS>ATOM
      1 C          -7.6997    1.8100   -0.2296 C.3     1  UNL1       -0.0397
      2 C          -6.8763    0.5673   -0.0776 C.ar    1  UNL1       -0.0498
      3 C          -7.3449   -0.6982   -0.2950 C.ar    1  UNL1       -0.0588
      4 C          -6.5558   -1.7948   -0.1554 C.ar    1  UNL1       -0.0608
      5 C          -5.2469   -1.6076    0.2232 C.ar    1  UNL1       -0.0509
      6 C          -4.6349   -0.3692    0.4810 C.ar    1  UNL1        0.0225
      7 C          -5.5638    0.6781    0.2938 C.ar    1  UNL1       -0.0480
      8 C          -3.3037    0.0262    0.8351 C.2     1  UNL1        0.1933
      9 O          -3.2191    1.1503    1.4408 O.2     1  UNL1       -0.2867
     10 C          -2.0133   -0.6276    0.6281 C.ar    1  UNL1        0.0269
     11 C          -1.5115   -1.8712    0.4298 C.ar    1  UNL1       -0.0326
     12 C          -0.2401   -2.2873    0.2225 C.ar    1  UNL1        0.0304
     13 N           0.7149   -1.3606    0.2037 N.ar    1  UNL1       -0.2405
     14 C           0.4152   -0.0538    0.3833 C.ar    1  UNL1        0.1196
     15 N           1.3966    0.9539    0.3671 N.pl3   1  UNL1       -0.3249
     16 C           2.3754    1.9463    0.2919 C.3     1  UNL1        0.0357
     17 C           3.7098    1.3826   -0.0994 C.ar    1  UNL1       -0.0303
     18 C           4.3249    1.5566   -1.3068 C.ar    1  UNL1       -0.0563
     19 C           5.5298    0.9365   -1.4934 C.ar    1  UNL1       -0.0466
     20 C           6.1405    0.1492   -0.5179 C.ar    1  UNL1        0.0647
     21 C           5.4968   -0.0225    0.7129 C.ar    1  UNL1       -0.0466
     22 C           4.2834    0.5958    0.9164 C.ar    1  UNL1       -0.0563
     23 C           7.4078   -0.5456   -0.6294 C.2     1  UNL1        0.3081
     24 N           7.5046   -1.9037   -0.2823 N.pl3   1  UNL1       -0.2466
     25 N           8.4536    0.0979   -1.0547 N.2     1  UNL1       -0.0994
     26 C          -0.9353    0.2768    0.5877 C.ar    1  UNL1       -0.0111
     27 H          -8.2657    2.0779    0.6851 H       1  UNL1        0.0278
     28 H          -7.0337    2.6929   -0.4574 H       1  UNL1        0.0278
     29 H          -8.3376    1.6917   -1.1240 H       1  UNL1        0.0278
     30 H          -8.3836   -0.8645   -0.6085 H       1  UNL1        0.0620
     31 H          -6.9107   -2.8077   -0.3137 H       1  UNL1        0.0618
     32 H          -4.6030   -2.4369    0.3700 H       1  UNL1        0.0625
     33 H          -5.2400    1.7059    0.4506 H       1  UNL1        0.0627
     34 H          -2.2922   -2.6148    0.4377 H       1  UNL1        0.0640
     35 H          -0.0575   -3.3334    0.0825 H       1  UNL1        0.0830
     36 H           1.3770    0.9425    1.4546 H       1  UNL1        0.1478
     37 H           2.0547    2.5680   -0.6865 H       1  UNL1        0.0511
     38 H           2.4264    2.7621    1.0271 H       1  UNL1        0.0511
     39 H           3.8695    2.1531   -2.0853 H       1  UNL1        0.0621
     40 H           6.0924    1.0244   -2.4280 H       1  UNL1        0.0626
     41 H           5.8712   -0.6164    1.5543 H       1  UNL1        0.0626
     42 H           3.7709    0.4831    1.8422 H       1  UNL1        0.0621
     43 H           7.9743   -2.7589    0.0743 H       1  UNL1        0.2884
     44 H           6.7557   -2.6350   -0.3908 H       1  UNL1        0.2884
     45 H           9.3740   -0.3658   -1.1419 H       1  UNL1        0.3633
     46 H          -1.0503    1.3463    0.7087 H       1  UNL1        0.0659
@<TRIPOS>BOND
     1     1     2    1
     2     2     3   ar
     3     3     4   ar
     4     4     5   ar
     5     5     6   ar
     6     6     7   ar
     7     6     8    1
     8     8     9    2
     9     8    10    1
    10    10    11   ar
    11    11    12   ar
    12    12    13   ar
    13    13    14   ar
    14    14    15    1
    15    15    16    1
    16    16    17    1
    17    17    18   ar
    18    18    19   ar
    19    19    20   ar
    20    20    21   ar
    21    21    22   ar
    22    20    23    1
    23    23    24    1
    24    23    25    2
    25    14    26   ar
    26     7     2   ar
    27    26    10   ar
    28    22    17   ar
    29     1    27    1
    30     1    28    1
    31     1    29    1
    32     3    30    1
    33     4    31    1
    34     5    32    1
    35     7    33    1
    36    11    34    1
    37    12    35    1
    38    15    36    1
    39    16    37    1
    40    16    38    1
    41    18    39    1
    42    19    40    1
    43    21    41    1
    44    22    42    1
    45    24    43    1
    46    24    44    1
    47    25    45    1
    48    26    46    1
