
     RDKit          3D

 99102  0  0  0  0  0  0  0  0999 V2000
   -7.1846   -1.6080    2.2337 C   0  0  0  0  0  0  0  0  0  0  0  0
   -7.4596   -0.1200    2.2295 C   0  0  0  0  0  0  0  0  0  0  0  0
   -7.2185    0.4469    0.8622 C   0  0  1  0  0  0  0  0  0  0  0  0
   -8.1011   -0.1699   -0.1492 C   0  0  0  0  0  0  0  0  0  0  0  0
   -7.8971    0.1532   -1.4866 C   0  0  0  0  0  0  0  0  0  0  0  0
   -8.6818   -0.3670   -2.4863 C   0  0  0  0  0  0  0  0  0  0  0  0
   -9.6956   -1.2297   -2.1576 C   0  0  0  0  0  0  0  0  0  0  0  0
   -9.9335   -1.5759   -0.8563 C   0  0  0  0  0  0  0  0  0  0  0  0
  -10.9534   -2.4465   -0.4984 O   0  0  0  0  0  0  0  0  0  0  0  0
   -9.1270   -1.0356    0.1242 C   0  0  0  0  0  0  0  0  0  0  0  0
   -7.4869    1.9257    0.7887 C   0  0  0  0  0  0  0  0  0  0  0  0
   -6.8518    2.7612    1.8309 C   0  0  0  0  0  0  0  0  0  0  0  0
   -5.4900    3.2240    1.3423 C   0  0  0  0  0  0  0  0  0  0  0  0
   -4.5489    2.0786    1.1256 C   0  0  0  0  0  0  0  0  0  0  0  0
   -5.0480    1.2613    0.0587 N   0  0  0  0  0  0  0  0  0  0  0  0
   -3.9283    0.8155   -0.7454 C   0  0  0  0  0  0  0  0  0  0  0  0
   -3.0593   -0.1467    0.0189 C   0  0  0  0  0  0  0  0  0  0  0  0
   -1.8774   -0.6387   -0.7780 C   0  0  0  0  0  0  0  0  0  0  0  0
   -0.9690    0.4872   -1.2078 C   0  0  0  0  0  0  0  0  0  0  0  0
    0.1705   -0.0884   -1.9951 C   0  0  0  0  0  0  0  0  0  0  0  0
    0.9835   -1.0845   -1.1803 C   0  0  0  0  0  0  0  0  0  0  0  0
    1.5700   -0.4338    0.0557 C   0  0  0  0  0  0  0  0  0  0  0  0
    2.4805    0.6564   -0.3225 C   0  0  0  0  0  0  0  0  0  0  0  0
    3.6781    0.2779   -1.0896 C   0  0  0  0  0  0  0  0  0  0  0  0
    4.6259   -0.5220   -0.4365 N   0  0  0  0  0  0  0  0  0  0  0  0
    4.3464   -1.8420   -0.1547 C   0  0  0  0  0  0  0  0  0  0  0  0
    5.5544   -2.7755   -0.3841 C   0  0  0  0  0  0  0  0  0  0  0  0
    6.7069   -2.4917    0.5015 C   0  0  0  0  0  0  0  0  0  0  0  0
    6.7165   -1.1851    1.2115 C   0  0  0  0  0  0  0  0  0  0  0  0
    6.8943   -0.0062    0.2939 C   0  0  1  0  0  0  0  0  0  0  0  0
    6.3634    1.2056    1.0639 C   0  0  0  0  0  0  0  0  0  0  0  0
    7.1301    1.4051    2.3373 C   0  0  0  0  0  0  0  0  0  0  0  0
    8.2817    0.2496   -0.1194 C   0  0  0  0  0  0  0  0  0  0  0  0
    8.5487    1.2925   -0.9996 C   0  0  0  0  0  0  0  0  0  0  0  0
    9.8233    1.5865   -1.4203 C   0  0  0  0  0  0  0  0  0  0  0  0
   10.8650    0.8285   -0.9584 C   0  0  0  0  0  0  0  0  0  0  0  0
   10.6317   -0.1964   -0.0975 C   0  0  0  0  0  0  0  0  0  0  0  0
   11.7285   -0.9487    0.3521 O   0  0  0  0  0  0  0  0  0  0  0  0
    9.3543   -0.4877    0.3214 C   0  0  0  0  0  0  0  0  0  0  0  0
    5.9662   -0.2341   -0.9053 C   0  0  0  0  0  0  0  0  0  0  0  0
   -5.7910    0.1114    0.4750 C   0  0  0  0  0  0  0  0  0  0  0  0
   -7.0510   -2.0131    1.2000 H   0  0  0  0  0  0  0  0  0  0  0  0
   -7.9167   -2.1882    2.8377 H   0  0  0  0  0  0  0  0  0  0  0  0
   -6.1928   -1.8403    2.7285 H   0  0  0  0  0  0  0  0  0  0  0  0
   -6.7418    0.3294    2.9505 H   0  0  0  0  0  0  0  0  0  0  0  0
   -8.4750    0.1258    2.6203 H   0  0  0  0  0  0  0  0  0  0  0  0
   -7.0979    0.8368   -1.7759 H   0  0  0  0  0  0  0  0  0  0  0  0
   -8.5255   -0.1189   -3.5163 H   0  0  0  0  0  0  0  0  0  0  0  0
  -10.3443   -1.6680   -2.9142 H   0  0  0  0  0  0  0  0  0  0  0  0
  -10.7447   -3.4142   -0.3670 H   0  0  0  0  0  0  0  0  0  0  0  0
   -9.3323   -1.3106    1.1252 H   0  0  0  0  0  0  0  0  0  0  0  0
   -7.2112    2.2835   -0.2072 H   0  0  0  0  0  0  0  0  0  0  0  0
   -8.6036    2.0442    0.8795 H   0  0  0  0  0  0  0  0  0  0  0  0
   -6.8244    2.3577    2.8409 H   0  0  0  0  0  0  0  0  0  0  0  0
   -7.4624    3.7123    1.9080 H   0  0  0  0  0  0  0  0  0  0  0  0
   -5.1058    3.9962    2.0098 H   0  0  0  0  0  0  0  0  0  0  0  0
   -5.6703    3.6972    0.3478 H   0  0  0  0  0  0  0  0  0  0  0  0
   -3.5717    2.5247    0.8013 H   0  0  0  0  0  0  0  0  0  0  0  0
   -4.3340    1.5197    2.0514 H   0  0  0  0  0  0  0  0  0  0  0  0
   -4.2793    0.2617   -1.6568 H   0  0  0  0  0  0  0  0  0  0  0  0
   -3.3317    1.6620   -1.1282 H   0  0  0  0  0  0  0  0  0  0  0  0
   -2.6446    0.3266    0.9497 H   0  0  0  0  0  0  0  0  0  0  0  0
   -3.6632   -1.0494    0.2570 H   0  0  0  0  0  0  0  0  0  0  0  0
   -2.2068   -1.2613   -1.6139 H   0  0  0  0  0  0  0  0  0  0  0  0
   -1.2722   -1.2510   -0.0510 H   0  0  0  0  0  0  0  0  0  0  0  0
   -0.6522    1.1186   -0.3722 H   0  0  0  0  0  0  0  0  0  0  0  0
   -1.5258    1.1703   -1.9079 H   0  0  0  0  0  0  0  0  0  0  0  0
    0.7772    0.6439   -2.5250 H   0  0  0  0  0  0  0  0  0  0  0  0
   -0.3098   -0.7197   -2.8020 H   0  0  0  0  0  0  0  0  0  0  0  0
    0.3969   -1.9696   -0.9313 H   0  0  0  0  0  0  0  0  0  0  0  0
    1.8121   -1.3973   -1.8365 H   0  0  0  0  0  0  0  0  0  0  0  0
    2.0403   -1.2061    0.6662 H   0  0  0  0  0  0  0  0  0  0  0  0
    0.7153   -0.0589    0.7111 H   0  0  0  0  0  0  0  0  0  0  0  0
    2.7477    1.3244    0.5507 H   0  0  0  0  0  0  0  0  0  0  0  0
    1.8707    1.3699   -0.9760 H   0  0  0  0  0  0  0  0  0  0  0  0
    3.3846   -0.1924   -2.0993 H   0  0  0  0  0  0  0  0  0  0  0  0
    4.1917    1.2343   -1.4784 H   0  0  0  0  0  0  0  0  0  0  0  0
    3.5384   -2.3404   -0.7042 H   0  0  0  0  0  0  0  0  0  0  0  0
    4.1562   -1.9863    0.9540 H   0  0  0  0  0  0  0  0  0  0  0  0
    5.7940   -2.8680   -1.4626 H   0  0  0  0  0  0  0  0  0  0  0  0
    5.1482   -3.7953   -0.1117 H   0  0  0  0  0  0  0  0  0  0  0  0
    7.6342   -2.6250   -0.1326 H   0  0  0  0  0  0  0  0  0  0  0  0
    6.8321   -3.2952    1.2861 H   0  0  0  0  0  0  0  0  0  0  0  0
    7.5086   -1.2386    1.9941 H   0  0  0  0  0  0  0  0  0  0  0  0
    5.7333   -1.0341    1.7143 H   0  0  0  0  0  0  0  0  0  0  0  0
    6.5574    2.0766    0.4054 H   0  0  0  0  0  0  0  0  0  0  0  0
    5.2877    1.1226    1.2614 H   0  0  0  0  0  0  0  0  0  0  0  0
    8.2152    1.4876    2.1359 H   0  0  0  0  0  0  0  0  0  0  0  0
    6.8172    2.3990    2.7485 H   0  0  0  0  0  0  0  0  0  0  0  0
    6.8936    0.6550    3.1095 H   0  0  0  0  0  0  0  0  0  0  0  0
    7.7467    1.9103   -1.3829 H   0  0  0  0  0  0  0  0  0  0  0  0
   10.0534    2.3927   -2.1036 H   0  0  0  0  0  0  0  0  0  0  0  0
   11.9001    1.0239   -1.2647 H   0  0  0  0  0  0  0  0  0  0  0  0
   11.6631   -1.4315    1.2462 H   0  0  0  0  0  0  0  0  0  0  0  0
    9.2471   -1.3164    1.0085 H   0  0  0  0  0  0  0  0  0  0  0  0
    6.3650   -0.9302   -1.6367 H   0  0  0  0  0  0  0  0  0  0  0  0
    5.9175    0.7669   -1.4121 H   0  0  0  0  0  0  0  0  0  0  0  0
   -5.7427   -0.6464   -0.3407 H   0  0  0  0  0  0  0  0  0  0  0  0
   -5.2296   -0.3402    1.3369 H   0  0  0  0  0  0  0  0  0  0  0  0
  1  2  1  0
  3  2  1  1
  3  4  1  0
  4  5  2  0
  5  6  1  0
  6  7  2  0
  7  8  1  0
  8  9  1  0
  8 10  2  0
  3 11  1  0
 11 12  1  0
 12 13  1  0
 13 14  1  0
 14 15  1  0
 15 16  1  0
 16 17  1  0
 17 18  1  0
 18 19  1  0
 19 20  1  0
 20 21  1  0
 21 22  1  0
 22 23  1  0
 23 24  1  0
 24 25  1  0
 25 26  1  0
 26 27  1  0
 27 28  1  0
 28 29  1  0
 29 30  1  0
 30 31  1  1
 31 32  1  0
 30 33  1  0
 33 34  2  0
 34 35  1  0
 35 36  2  0
 36 37  1  0
 37 38  1  0
 37 39  2  0
 30 40  1  0
 15 41  1  0
 41  3  1  0
 10  4  1  0
 40 25  1  0
 39 33  1  0
  1 42  1  0
  1 43  1  0
  1 44  1  0
  2 45  1  0
  2 46  1  0
  5 47  1  0
  6 48  1  0
  7 49  1  0
  9 50  1  0
 10 51  1  0
 11 52  1  0
 11 53  1  0
 12 54  1  0
 12 55  1  0
 13 56  1  0
 13 57  1  0
 14 58  1  0
 14 59  1  0
 16 60  1  0
 16 61  1  0
 17 62  1  0
 17 63  1  0
 18 64  1  0
 18 65  1  0
 19 66  1  0
 19 67  1  0
 20 68  1  0
 20 69  1  0
 21 70  1  0
 21 71  1  0
 22 72  1  0
 22 73  1  0
 23 74  1  0
 23 75  1  0
 24 76  1  0
 24 77  1  0
 26 78  1  0
 26 79  1  0
 27 80  1  0
 27 81  1  0
 28 82  1  0
 28 83  1  0
 29 84  1  0
 29 85  1  0
 31 86  1  0
 31 87  1  0
 32 88  1  0
 32 89  1  0
 32 90  1  0
 34 91  1  0
 35 92  1  0
 36 93  1  0
 38 94  1  0
 39 95  1  0
 40 96  1  0
 40 97  1  0
 41 98  1  0
 41 99  1  0
M  END
$$$$
