@<TRIPOS>MOLECULE
*****
 99 102 0 0 0
SMALL
GASTEIGER

@<TRIPOS>ATOM
      1 C          -7.1846   -1.6080    2.2337 C.3     1  UNL1       -0.0644
      2 C          -7.4596   -0.1200    2.2295 C.3     1  UNL1       -0.0450
      3 C          -7.2185    0.4469    0.8622 C.3     1  UNL1        0.0083
      4 C          -8.1011   -0.1699   -0.1492 C.ar    1  UNL1       -0.0365
      5 C          -7.8971    0.1532   -1.4866 C.ar    1  UNL1       -0.0578
      6 C          -8.6818   -0.3670   -2.4863 C.ar    1  UNL1       -0.0580
      7 C          -9.6956   -1.2297   -2.1576 C.ar    1  UNL1       -0.0202
      8 C          -9.9335   -1.5759   -0.8563 C.ar    1  UNL1        0.1171
      9 O         -10.9534   -2.4465   -0.4984 O.3     1  UNL1       -0.5068
     10 C          -9.1270   -1.0356    0.1242 C.ar    1  UNL1       -0.0164
     11 C          -7.4869    1.9257    0.7887 C.3     1  UNL1       -0.0422
     12 C          -6.8518    2.7612    1.8309 C.3     1  UNL1       -0.0511
     13 C          -5.4900    3.2240    1.3423 C.3     1  UNL1       -0.0402
     14 C          -4.5489    2.0786    1.1256 C.3     1  UNL1       -0.0011
     15 N          -5.0480    1.2613    0.0587 N.3     1  UNL1       -0.3015
     16 C          -3.9283    0.8155   -0.7454 C.3     1  UNL1       -0.0011
     17 C          -3.0593   -0.1467    0.0189 C.3     1  UNL1       -0.0402
     18 C          -1.8774   -0.6387   -0.7780 C.3     1  UNL1       -0.0519
     19 C          -0.9690    0.4872   -1.2078 C.3     1  UNL1       -0.0530
     20 C           0.1705   -0.0884   -1.9951 C.3     1  UNL1       -0.0531
     21 C           0.9835   -1.0845   -1.1803 C.3     1  UNL1       -0.0530
     22 C           1.5700   -0.4338    0.0557 C.3     1  UNL1       -0.0519
     23 C           2.4805    0.6564   -0.3225 C.3     1  UNL1       -0.0402
     24 C           3.6781    0.2779   -1.0896 C.3     1  UNL1       -0.0011
     25 N           4.6259   -0.5220   -0.4365 N.3     1  UNL1       -0.3015
     26 C           4.3464   -1.8420   -0.1547 C.3     1  UNL1       -0.0011
     27 C           5.5544   -2.7755   -0.3841 C.3     1  UNL1       -0.0402
     28 C           6.7069   -2.4917    0.5015 C.3     1  UNL1       -0.0511
     29 C           6.7165   -1.1851    1.2115 C.3     1  UNL1       -0.0422
     30 C           6.8943   -0.0062    0.2939 C.3     1  UNL1        0.0083
     31 C           6.3634    1.2056    1.0639 C.3     1  UNL1       -0.0450
     32 C           7.1301    1.4051    2.3373 C.3     1  UNL1       -0.0644
     33 C           8.2817    0.2496   -0.1194 C.ar    1  UNL1       -0.0365
     34 C           8.5487    1.2925   -0.9996 C.ar    1  UNL1       -0.0578
     35 C           9.8233    1.5865   -1.4203 C.ar    1  UNL1       -0.0580
     36 C          10.8650    0.8285   -0.9584 C.ar    1  UNL1       -0.0202
     37 C          10.6317   -0.1964   -0.0975 C.ar    1  UNL1        0.1171
     38 O          11.7285   -0.9487    0.3521 O.3     1  UNL1       -0.5068
     39 C           9.3543   -0.4877    0.3214 C.ar    1  UNL1       -0.0164
     40 C           5.9662   -0.2341   -0.9053 C.3     1  UNL1        0.0085
     41 C          -5.7910    0.1114    0.4750 C.3     1  UNL1        0.0085
     42 H          -7.0510   -2.0131    1.2000 H       1  UNL1        0.0230
     43 H          -7.9167   -2.1882    2.8377 H       1  UNL1        0.0230
     44 H          -6.1928   -1.8403    2.7285 H       1  UNL1        0.0230
     45 H          -6.7418    0.3294    2.9505 H       1  UNL1        0.0272
     46 H          -8.4750    0.1258    2.6203 H       1  UNL1        0.0272
     47 H          -7.0979    0.8368   -1.7759 H       1  UNL1        0.0620
     48 H          -8.5255   -0.1189   -3.5163 H       1  UNL1        0.0619
     49 H         -10.3443   -1.6680   -2.9142 H       1  UNL1        0.0654
     50 H         -10.7447   -3.4142   -0.3670 H       1  UNL1        0.2921
     51 H          -9.3323   -1.3106    1.1252 H       1  UNL1        0.0657
     52 H          -7.2112    2.2835   -0.2072 H       1  UNL1        0.0274
     53 H          -8.6036    2.0442    0.8795 H       1  UNL1        0.0274
     54 H          -6.8244    2.3577    2.8409 H       1  UNL1        0.0266
     55 H          -7.4624    3.7123    1.9080 H       1  UNL1        0.0266
     56 H          -5.1058    3.9962    2.0098 H       1  UNL1        0.0278
     57 H          -5.6703    3.6972    0.3478 H       1  UNL1        0.0278
     58 H          -3.5717    2.5247    0.8013 H       1  UNL1        0.0426
     59 H          -4.3340    1.5197    2.0514 H       1  UNL1        0.0426
     60 H          -4.2793    0.2617   -1.6568 H       1  UNL1        0.0426
     61 H          -3.3317    1.6620   -1.1282 H       1  UNL1        0.0426
     62 H          -2.6446    0.3266    0.9497 H       1  UNL1        0.0278
     63 H          -3.6632   -1.0494    0.2570 H       1  UNL1        0.0278
     64 H          -2.2068   -1.2613   -1.6139 H       1  UNL1        0.0266
     65 H          -1.2722   -1.2510   -0.0510 H       1  UNL1        0.0266
     66 H          -0.6522    1.1186   -0.3722 H       1  UNL1        0.0265
     67 H          -1.5258    1.1703   -1.9079 H       1  UNL1        0.0265
     68 H           0.7772    0.6439   -2.5250 H       1  UNL1        0.0265
     69 H          -0.3098   -0.7197   -2.8020 H       1  UNL1        0.0265
     70 H           0.3969   -1.9696   -0.9313 H       1  UNL1        0.0265
     71 H           1.8121   -1.3973   -1.8365 H       1  UNL1        0.0265
     72 H           2.0403   -1.2061    0.6662 H       1  UNL1        0.0266
     73 H           0.7153   -0.0589    0.7111 H       1  UNL1        0.0266
     74 H           2.7477    1.3244    0.5507 H       1  UNL1        0.0278
     75 H           1.8707    1.3699   -0.9760 H       1  UNL1        0.0278
     76 H           3.3846   -0.1924   -2.0993 H       1  UNL1        0.0426
     77 H           4.1917    1.2343   -1.4784 H       1  UNL1        0.0426
     78 H           3.5384   -2.3404   -0.7042 H       1  UNL1        0.0426
     79 H           4.1562   -1.9863    0.9540 H       1  UNL1        0.0426
     80 H           5.7940   -2.8680   -1.4626 H       1  UNL1        0.0278
     81 H           5.1482   -3.7953   -0.1117 H       1  UNL1        0.0278
     82 H           7.6342   -2.6250   -0.1326 H       1  UNL1        0.0266
     83 H           6.8321   -3.2952    1.2861 H       1  UNL1        0.0266
     84 H           7.5086   -1.2386    1.9941 H       1  UNL1        0.0274
     85 H           5.7333   -1.0341    1.7143 H       1  UNL1        0.0274
     86 H           6.5574    2.0766    0.4054 H       1  UNL1        0.0272
     87 H           5.2877    1.1226    1.2614 H       1  UNL1        0.0272
     88 H           8.2152    1.4876    2.1359 H       1  UNL1        0.0230
     89 H           6.8172    2.3990    2.7485 H       1  UNL1        0.0230
     90 H           6.8936    0.6550    3.1095 H       1  UNL1        0.0230
     91 H           7.7467    1.9103   -1.3829 H       1  UNL1        0.0620
     92 H          10.0534    2.3927   -2.1036 H       1  UNL1        0.0619
     93 H          11.9001    1.0239   -1.2647 H       1  UNL1        0.0654
     94 H          11.6631   -1.4315    1.2462 H       1  UNL1        0.2921
     95 H           9.2471   -1.3164    1.0085 H       1  UNL1        0.0657
     96 H           6.3650   -0.9302   -1.6367 H       1  UNL1        0.0435
     97 H           5.9175    0.7669   -1.4121 H       1  UNL1        0.0435
     98 H          -5.7427   -0.6464   -0.3407 H       1  UNL1        0.0435
     99 H          -5.2296   -0.3402    1.3369 H       1  UNL1        0.0435
@<TRIPOS>BOND
     1     1     2    1
     2     3     2    1
     3     3     4    1
     4     4     5   ar
     5     5     6   ar
     6     6     7   ar
     7     7     8   ar
     8     8     9    1
     9     8    10   ar
    10     3    11    1
    11    11    12    1
    12    12    13    1
    13    13    14    1
    14    14    15    1
    15    15    16    1
    16    16    17    1
    17    17    18    1
    18    18    19    1
    19    19    20    1
    20    20    21    1
    21    21    22    1
    22    22    23    1
    23    23    24    1
    24    24    25    1
    25    25    26    1
    26    26    27    1
    27    27    28    1
    28    28    29    1
    29    29    30    1
    30    30    31    1
    31    31    32    1
    32    30    33    1
    33    33    34   ar
    34    34    35   ar
    35    35    36   ar
    36    36    37   ar
    37    37    38    1
    38    37    39   ar
    39    30    40    1
    40    15    41    1
    41    41     3    1
    42    10     4   ar
    43    40    25    1
    44    39    33   ar
    45     1    42    1
    46     1    43    1
    47     1    44    1
    48     2    45    1
    49     2    46    1
    50     5    47    1
    51     6    48    1
    52     7    49    1
    53     9    50    1
    54    10    51    1
    55    11    52    1
    56    11    53    1
    57    12    54    1
    58    12    55    1
    59    13    56    1
    60    13    57    1
    61    14    58    1
    62    14    59    1
    63    16    60    1
    64    16    61    1
    65    17    62    1
    66    17    63    1
    67    18    64    1
    68    18    65    1
    69    19    66    1
    70    19    67    1
    71    20    68    1
    72    20    69    1
    73    21    70    1
    74    21    71    1
    75    22    72    1
    76    22    73    1
    77    23    74    1
    78    23    75    1
    79    24    76    1
    80    24    77    1
    81    26    78    1
    82    26    79    1
    83    27    80    1
    84    27    81    1
    85    28    82    1
    86    28    83    1
    87    29    84    1
    88    29    85    1
    89    31    86    1
    90    31    87    1
    91    32    88    1
    92    32    89    1
    93    32    90    1
    94    34    91    1
    95    35    92    1
    96    36    93    1
    97    38    94    1
    98    39    95    1
    99    40    96    1
   100    40    97    1
   101    41    98    1
   102    41    99    1
