@<TRIPOS>MOLECULE
*****
 47 50 0 0 0
SMALL
GASTEIGER

@<TRIPOS>ATOM
      1 C          -2.4647    1.4916    1.9652 C.3     1  UNL1       -0.0398
      2 C          -2.5284    0.5614    0.7408 C.3     1  UNL1        0.0543
      3 C          -2.5866    1.4842   -0.4519 C.3     1  UNL1       -0.0398
      4 N          -1.3775   -0.2794    0.7888 N.pl3   1  UNL1       -0.3043
      5 C          -0.4037   -0.3231   -0.2437 C.ar    1  UNL1        0.2219
      6 N          -0.4927    0.4164   -1.3576 N.ar    1  UNL1       -0.1773
      7 C           0.4233    0.4080   -2.3377 C.ar    1  UNL1        0.2537
      8 N           0.3262    1.1984   -3.5033 N.3     1  UNL1       -0.2350
      9 O          -0.7137    2.0238   -3.6629 O.3     1  UNL1       -0.2868
     10 N           1.4985   -0.4081   -2.1694 N.ar    1  UNL1       -0.1770
     11 C           1.6479   -1.1750   -1.0756 C.ar    1  UNL1        0.2256
     12 N           2.8222   -1.9978   -0.9440 N.pl3   1  UNL1       -0.2834
     13 C           4.0101   -1.4616   -0.3980 C.ar    1  UNL1        0.0348
     14 C           5.1329   -2.2020   -0.2409 C.ar    1  UNL1       -0.0384
     15 C           6.3205   -1.7365    0.2766 C.ar    1  UNL1       -0.0335
     16 C           6.4080   -0.3973    0.6818 C.ar    1  UNL1        0.0783
     17 N           7.4287    0.2261    1.1870 N.ar    1  UNL1       -0.2474
     18 C           7.5227    1.3832    1.5407 C.ar    1  UNL1        0.0659
     19 S           5.7592    1.9434    1.1260 S.2     1  UNL1       -0.0754
     20 C           5.2493    0.3388    0.5119 C.ar    1  UNL1        0.0407
     21 C           4.0680   -0.1195   -0.0015 C.ar    1  UNL1       -0.0246
     22 N           0.6956   -1.1201   -0.1332 N.ar    1  UNL1       -0.1808
     23 C          -3.8229   -0.1676    0.7840 C.ar    1  UNL1       -0.0247
     24 C          -4.7056   -0.0124    1.8351 C.ar    1  UNL1       -0.0566
     25 C          -5.9221   -0.6716    1.8863 C.ar    1  UNL1       -0.0614
     26 C          -6.2923   -1.5201    0.8657 C.ar    1  UNL1       -0.0617
     27 C          -5.4228   -1.6854   -0.1888 C.ar    1  UNL1       -0.0614
     28 C          -4.2167   -1.0257   -0.2297 C.ar    1  UNL1       -0.0566
     29 H          -3.3392    2.1660    1.9164 H       1  UNL1        0.0253
     30 H          -2.4651    0.9555    2.9114 H       1  UNL1        0.0253
     31 H          -1.5629    2.1259    1.8170 H       1  UNL1        0.0253
     32 H          -2.7848    0.9899   -1.4007 H       1  UNL1        0.0253
     33 H          -1.7367    2.2171   -0.4760 H       1  UNL1        0.0253
     34 H          -3.4832    2.1502   -0.2680 H       1  UNL1        0.0253
     35 H          -1.2508   -0.8878    1.6234 H       1  UNL1        0.1498
     36 H           1.0538    1.1382   -4.2281 H       1  UNL1        0.1970
     37 H          -1.5857    1.5379   -3.7579 H       1  UNL1        0.2442
     38 H           2.7340   -2.9775   -1.2668 H       1  UNL1        0.1550
     39 H           5.0903   -3.2595   -0.5518 H       1  UNL1        0.0637
     40 H           7.1417   -2.4121    0.3532 H       1  UNL1        0.0640
     41 H           8.1992    2.0831    1.9557 H       1  UNL1        0.0907
     42 H           3.1927    0.5091   -0.1102 H       1  UNL1        0.0648
     43 H          -4.4518    0.6471    2.6606 H       1  UNL1        0.0621
     44 H          -6.5908   -0.5190    2.7391 H       1  UNL1        0.0618
     45 H          -7.2588   -2.0501    0.8946 H       1  UNL1        0.0618
     46 H          -5.7256   -2.3527   -0.9846 H       1  UNL1        0.0618
     47 H          -3.5400   -1.1713   -1.0789 H       1  UNL1        0.0621
@<TRIPOS>BOND
     1     1     2    1
     2     2     3    1
     3     2     4    1
     4     4     5    1
     5     5     6   ar
     6     6     7   ar
     7     7     8    1
     8     8     9    1
     9     7    10   ar
    10    10    11   ar
    11    11    12    1
    12    12    13    1
    13    13    14   ar
    14    14    15   ar
    15    15    16   ar
    16    16    17   ar
    17    17    18   ar
    18    18    19   ar
    19    19    20   ar
    20    20    21   ar
    21    11    22   ar
    22     2    23    1
    23    23    24   ar
    24    24    25   ar
    25    25    26   ar
    26    26    27   ar
    27    27    28   ar
    28    22     5   ar
    29    28    23   ar
    30    21    13   ar
    31    20    16   ar
    32     1    29    1
    33     1    30    1
    34     1    31    1
    35     3    32    1
    36     3    33    1
    37     3    34    1
    38     4    35    1
    39     8    36    1
    40     9    37    1
    41    12    38    1
    42    14    39    1
    43    15    40    1
    44    18    41    1
    45    21    42    1
    46    24    43    1
    47    25    44    1
    48    26    45    1
    49    27    46    1
    50    28    47    1
