
     RDKit          3D

 47 50  0  0  0  0  0  0  0  0999 V2000
   -2.4647    1.4916    1.9652 C   0  0  0  0  0  0  0  0  0  0  0  0
   -2.5284    0.5614    0.7408 C   0  0  0  0  0  0  0  0  0  0  0  0
   -2.5866    1.4842   -0.4519 C   0  0  0  0  0  0  0  0  0  0  0  0
   -1.3775   -0.2794    0.7888 N   0  0  0  0  0  0  0  0  0  0  0  0
   -0.4037   -0.3231   -0.2437 C   0  0  0  0  0  0  0  0  0  0  0  0
   -0.4927    0.4164   -1.3576 N   0  0  0  0  0  0  0  0  0  0  0  0
    0.4233    0.4080   -2.3377 C   0  0  0  0  0  0  0  0  0  0  0  0
    0.3262    1.1984   -3.5033 N   0  0  0  0  0  0  0  0  0  0  0  0
   -0.7137    2.0238   -3.6629 O   0  0  0  0  0  0  0  0  0  0  0  0
    1.4985   -0.4081   -2.1694 N   0  0  0  0  0  0  0  0  0  0  0  0
    1.6479   -1.1750   -1.0756 C   0  0  0  0  0  0  0  0  0  0  0  0
    2.8222   -1.9978   -0.9440 N   0  0  0  0  0  0  0  0  0  0  0  0
    4.0101   -1.4616   -0.3980 C   0  0  0  0  0  0  0  0  0  0  0  0
    5.1329   -2.2020   -0.2409 C   0  0  0  0  0  0  0  0  0  0  0  0
    6.3205   -1.7365    0.2766 C   0  0  0  0  0  0  0  0  0  0  0  0
    6.4080   -0.3973    0.6818 C   0  0  0  0  0  0  0  0  0  0  0  0
    7.4287    0.2261    1.1870 N   0  0  0  0  0  0  0  0  0  0  0  0
    7.5227    1.3832    1.5407 C   0  0  0  0  0  0  0  0  0  0  0  0
    5.7592    1.9434    1.1260 S   0  0  0  0  0  0  0  0  0  0  0  0
    5.2493    0.3388    0.5119 C   0  0  0  0  0  0  0  0  0  0  0  0
    4.0680   -0.1195   -0.0015 C   0  0  0  0  0  0  0  0  0  0  0  0
    0.6956   -1.1201   -0.1332 N   0  0  0  0  0  0  0  0  0  0  0  0
   -3.8229   -0.1676    0.7840 C   0  0  0  0  0  0  0  0  0  0  0  0
   -4.7056   -0.0124    1.8351 C   0  0  0  0  0  0  0  0  0  0  0  0
   -5.9221   -0.6716    1.8863 C   0  0  0  0  0  0  0  0  0  0  0  0
   -6.2923   -1.5201    0.8657 C   0  0  0  0  0  0  0  0  0  0  0  0
   -5.4228   -1.6854   -0.1888 C   0  0  0  0  0  0  0  0  0  0  0  0
   -4.2167   -1.0257   -0.2297 C   0  0  0  0  0  0  0  0  0  0  0  0
   -3.3392    2.1660    1.9164 H   0  0  0  0  0  0  0  0  0  0  0  0
   -2.4651    0.9555    2.9114 H   0  0  0  0  0  0  0  0  0  0  0  0
   -1.5629    2.1259    1.8170 H   0  0  0  0  0  0  0  0  0  0  0  0
   -2.7848    0.9899   -1.4007 H   0  0  0  0  0  0  0  0  0  0  0  0
   -1.7367    2.2171   -0.4760 H   0  0  0  0  0  0  0  0  0  0  0  0
   -3.4832    2.1502   -0.2680 H   0  0  0  0  0  0  0  0  0  0  0  0
   -1.2508   -0.8878    1.6234 H   0  0  0  0  0  0  0  0  0  0  0  0
    1.0538    1.1382   -4.2281 H   0  0  0  0  0  0  0  0  0  0  0  0
   -1.5857    1.5379   -3.7579 H   0  0  0  0  0  0  0  0  0  0  0  0
    2.7340   -2.9775   -1.2668 H   0  0  0  0  0  0  0  0  0  0  0  0
    5.0903   -3.2595   -0.5518 H   0  0  0  0  0  0  0  0  0  0  0  0
    7.1417   -2.4121    0.3532 H   0  0  0  0  0  0  0  0  0  0  0  0
    8.1992    2.0831    1.9557 H   0  0  0  0  0  0  0  0  0  0  0  0
    3.1927    0.5091   -0.1102 H   0  0  0  0  0  0  0  0  0  0  0  0
   -4.4518    0.6471    2.6606 H   0  0  0  0  0  0  0  0  0  0  0  0
   -6.5908   -0.5190    2.7391 H   0  0  0  0  0  0  0  0  0  0  0  0
   -7.2588   -2.0501    0.8946 H   0  0  0  0  0  0  0  0  0  0  0  0
   -5.7256   -2.3527   -0.9846 H   0  0  0  0  0  0  0  0  0  0  0  0
   -3.5400   -1.1713   -1.0789 H   0  0  0  0  0  0  0  0  0  0  0  0
  1  2  1  0
  2  3  1  0
  2  4  1  0
  4  5  1  0
  5  6  2  0
  6  7  1  0
  7  8  1  0
  8  9  1  0
  7 10  2  0
 10 11  1  0
 11 12  1  0
 12 13  1  0
 13 14  2  0
 14 15  1  0
 15 16  2  0
 16 17  1  0
 17 18  2  0
 18 19  1  0
 19 20  1  0
 20 21  2  0
 11 22  2  0
  2 23  1  0
 23 24  2  0
 24 25  1  0
 25 26  2  0
 26 27  1  0
 27 28  2  0
 22  5  1  0
 28 23  1  0
 21 13  1  0
 20 16  1  0
  1 29  1  0
  1 30  1  0
  1 31  1  0
  3 32  1  0
  3 33  1  0
  3 34  1  0
  4 35  1  0
  8 36  1  0
  9 37  1  0
 12 38  1  0
 14 39  1  0
 15 40  1  0
 18 41  1  0
 21 42  1  0
 24 43  1  0
 25 44  1  0
 26 45  1  0
 27 46  1  0
 28 47  1  0
M  END
$$$$
