
     RDKit          3D

 36 38  0  0  0  0  0  0  0  0999 V2000
   -5.5478   -0.4682   -1.3019 C   0  0  0  0  0  0  0  0  0  0  0  0
   -4.7556   -0.4761   -0.1208 O   0  0  0  0  0  0  0  0  0  0  0  0
   -3.3870   -0.3097   -0.2901 C   0  0  0  0  0  0  0  0  0  0  0  0
   -2.7944   -0.1430   -1.5261 C   0  0  0  0  0  0  0  0  0  0  0  0
   -1.4430    0.0149   -1.6175 C   0  0  0  0  0  0  0  0  0  0  0  0
   -0.8947    0.1793   -2.8533 N   0  0  0  0  0  0  0  0  0  0  0  0
    0.4259    0.3383   -2.9850 C   0  0  0  0  0  0  0  0  0  0  0  0
    1.1752    0.3321   -1.8911 N   0  0  0  0  0  0  0  0  0  0  0  0
    0.7165    0.1753   -0.6242 C   0  0  0  0  0  0  0  0  0  0  0  0
    1.5530    0.1775    0.4909 N   0  0  0  0  0  0  0  0  0  0  0  0
    2.9768    0.2794    0.4217 C   0  0  0  0  0  0  0  0  0  0  0  0
    3.6477    0.7797    1.5173 C   0  0  0  0  0  0  0  0  0  0  0  0
    5.0065    0.8828    1.4967 C   0  0  0  0  0  0  0  0  0  0  0  0
    5.7325    0.4888    0.3807 C   0  0  0  0  0  0  0  0  0  0  0  0
    5.0526   -0.0084   -0.7033 C   0  0  0  0  0  0  0  0  0  0  0  0
    5.9374   -0.5207   -2.1514 Cl  0  0  0  0  0  0  0  0  0  0  0  0
    3.6625   -0.1136   -0.6799 C   0  0  0  0  0  0  0  0  0  0  0  0
   -0.6453    0.0108   -0.4806 C   0  0  0  0  0  0  0  0  0  0  0  0
   -1.2062   -0.1543    0.7751 C   0  0  0  0  0  0  0  0  0  0  0  0
   -2.6023   -0.3149    0.8410 C   0  0  0  0  0  0  0  0  0  0  0  0
   -3.1875   -0.4800    2.0736 O   0  0  0  0  0  0  0  0  0  0  0  0
   -2.3902   -0.4851    3.2507 C   0  0  0  0  0  0  0  0  0  0  0  0
   -5.2137   -1.2332   -2.0287 H   0  0  0  0  0  0  0  0  0  0  0  0
   -6.6200   -0.6349   -1.0878 H   0  0  0  0  0  0  0  0  0  0  0  0
   -5.4788    0.5173   -1.8412 H   0  0  0  0  0  0  0  0  0  0  0  0
   -3.4249   -0.1414   -2.4023 H   0  0  0  0  0  0  0  0  0  0  0  0
    0.8975    0.4728   -3.9727 H   0  0  0  0  0  0  0  0  0  0  0  0
    1.1800    0.1031    1.4691 H   0  0  0  0  0  0  0  0  0  0  0  0
    3.0987    1.0931    2.4011 H   0  0  0  0  0  0  0  0  0  0  0  0
    5.5711    1.2784    2.3572 H   0  0  0  0  0  0  0  0  0  0  0  0
    6.8227    0.5751    0.3708 H   0  0  0  0  0  0  0  0  0  0  0  0
    3.1880   -0.5408   -1.5859 H   0  0  0  0  0  0  0  0  0  0  0  0
   -0.6338   -0.1645    1.6690 H   0  0  0  0  0  0  0  0  0  0  0  0
   -2.9752   -0.6369    4.1579 H   0  0  0  0  0  0  0  0  0  0  0  0
   -1.8027    0.4489    3.2516 H   0  0  0  0  0  0  0  0  0  0  0  0
   -1.6413   -1.3220    3.2195 H   0  0  0  0  0  0  0  0  0  0  0  0
  1  2  1  0
  2  3  1  0
  3  4  2  0
  4  5  1  0
  5  6  2  0
  6  7  1  0
  7  8  2  0
  8  9  1  0
  9 10  1  0
 10 11  1  0
 11 12  2  0
 12 13  1  0
 13 14  2  0
 14 15  1  0
 15 16  1  0
 15 17  2  0
  9 18  2  0
 18 19  1  0
 19 20  2  0
 20 21  1  0
 21 22  1  0
 20  3  1  0
 18  5  1  0
 17 11  1  0
  1 23  1  0
  1 24  1  0
  1 25  1  0
  4 26  1  0
  7 27  1  0
 10 28  1  0
 12 29  1  0
 13 30  1  0
 14 31  1  0
 17 32  1  0
 19 33  1  0
 22 34  1  0
 22 35  1  0
 22 36  1  0
M  END
$$$$
