@<TRIPOS>MOLECULE
*****
 36 38 0 0 0
SMALL
GASTEIGER

@<TRIPOS>ATOM
      1 C          -5.5478   -0.4682   -1.3019 C.3     1  UNL1        0.0790
      2 O          -4.7556   -0.4761   -0.1208 O.3     1  UNL1       -0.4914
      3 C          -3.3870   -0.3097   -0.2901 C.ar    1  UNL1        0.1635
      4 C          -2.7944   -0.1430   -1.5261 C.ar    1  UNL1        0.0098
      5 C          -1.4430    0.0149   -1.6175 C.ar    1  UNL1        0.0797
      6 N          -0.8947    0.1793   -2.8533 N.ar    1  UNL1       -0.2352
      7 C           0.4259    0.3383   -2.9850 C.ar    1  UNL1        0.1187
      8 N           1.1752    0.3321   -1.8911 N.ar    1  UNL1       -0.2200
      9 C           0.7165    0.1753   -0.6242 C.ar    1  UNL1        0.1340
     10 N           1.5530    0.1775    0.4909 N.pl3   1  UNL1       -0.2988
     11 C           2.9768    0.2794    0.4217 C.ar    1  UNL1        0.0338
     12 C           3.6477    0.7797    1.5173 C.ar    1  UNL1       -0.0404
     13 C           5.0065    0.8828    1.4967 C.ar    1  UNL1       -0.0586
     14 C           5.7325    0.4888    0.3807 C.ar    1  UNL1       -0.0433
     15 C           5.0526   -0.0084   -0.7033 C.ar    1  UNL1        0.0427
     16 CL          5.9374   -0.5207   -2.1514 Cl      1  UNL1       -0.0835
     17 C           3.6625   -0.1136   -0.6799 C.ar    1  UNL1       -0.0222
     18 C          -0.6453    0.0108   -0.4806 C.ar    1  UNL1        0.0441
     19 C          -1.2062   -0.1543    0.7751 C.ar    1  UNL1       -0.0038
     20 C          -2.6023   -0.3149    0.8410 C.ar    1  UNL1        0.1623
     21 O          -3.1875   -0.4800    2.0736 O.3     1  UNL1       -0.4914
     22 C          -2.3902   -0.4851    3.2507 C.3     1  UNL1        0.0790
     23 H          -5.2137   -1.2332   -2.0287 H       1  UNL1        0.0660
     24 H          -6.6200   -0.6349   -1.0878 H       1  UNL1        0.0660
     25 H          -5.4788    0.5173   -1.8412 H       1  UNL1        0.0660
     26 H          -3.4249   -0.1414   -2.4023 H       1  UNL1        0.0677
     27 H           0.8975    0.4728   -3.9727 H       1  UNL1        0.1048
     28 H           1.1800    0.1031    1.4691 H       1  UNL1        0.1536
     29 H           3.0987    1.0931    2.4011 H       1  UNL1        0.0636
     30 H           5.5711    1.2784    2.3572 H       1  UNL1        0.0619
     31 H           6.8227    0.5751    0.3708 H       1  UNL1        0.0632
     32 H           3.1880   -0.5408   -1.5859 H       1  UNL1        0.0651
     33 H          -0.6338   -0.1645    1.6690 H       1  UNL1        0.0663
     34 H          -2.9752   -0.6369    4.1579 H       1  UNL1        0.0660
     35 H          -1.8027    0.4489    3.2516 H       1  UNL1        0.0660
     36 H          -1.6413   -1.3220    3.2195 H       1  UNL1        0.0660
@<TRIPOS>BOND
     1     1     2    1
     2     2     3    1
     3     3     4   ar
     4     4     5   ar
     5     5     6   ar
     6     6     7   ar
     7     7     8   ar
     8     8     9   ar
     9     9    10    1
    10    10    11    1
    11    11    12   ar
    12    12    13   ar
    13    13    14   ar
    14    14    15   ar
    15    15    16    1
    16    15    17   ar
    17     9    18   ar
    18    18    19   ar
    19    19    20   ar
    20    20    21    1
    21    21    22    1
    22    20     3   ar
    23    18     5   ar
    24    17    11   ar
    25     1    23    1
    26     1    24    1
    27     1    25    1
    28     4    26    1
    29     7    27    1
    30    10    28    1
    31    12    29    1
    32    13    30    1
    33    14    31    1
    34    17    32    1
    35    19    33    1
    36    22    34    1
    37    22    35    1
    38    22    36    1
