@<TRIPOS>MOLECULE
*****
 39 40 0 0 0
SMALL
GASTEIGER

@<TRIPOS>ATOM
      1 N           5.4743   -0.6004   -2.2273 N.3     1  UNL1       -0.2035
      2 S           5.6244   -0.2800   -0.5581 S.O2    1  UNL1        0.0559
      3 O           6.3094   -1.4319    0.1522 O.2     1  UNL1       -0.1533
      4 O           6.5268    0.9203   -0.3277 O.2     1  UNL1       -0.1533
      5 C           4.0734   -0.0213    0.2236 C.ar    1  UNL1        0.1051
      6 C           3.3590   -1.0645    0.7759 C.ar    1  UNL1       -0.0336
      7 C           2.1410   -0.8505    1.3904 C.ar    1  UNL1       -0.0387
      8 C           1.5811    0.4206    1.4807 C.ar    1  UNL1        0.0327
      9 N           0.3354    0.5702    2.1293 N.am    1  UNL1       -0.2969
     10 C          -0.8463    0.3899    1.3676 C.2     1  UNL1        0.1347
     11 S          -2.3342    0.5581    2.0588 S.2     1  UNL1       -0.0186
     12 N          -0.7179    0.0716    0.0041 N.am    1  UNL1       -0.3235
     13 C          -1.8936   -0.1291   -0.8170 C.3     1  UNL1        0.0222
     14 C          -2.6321   -1.3060   -0.3007 C.3     1  UNL1       -0.0345
     15 C          -4.1142   -1.2512   -0.3258 C.3     1  UNL1       -0.0514
     16 C          -4.6652   -0.2186   -1.2863 C.3     1  UNL1       -0.0529
     17 C          -4.1072    1.1001   -0.8439 C.3     1  UNL1       -0.0514
     18 C          -2.6268    1.1589   -0.9010 C.3     1  UNL1       -0.0345
     19 C           2.2880    1.4517    0.9339 C.ar    1  UNL1       -0.0387
     20 C           3.5099    1.2316    0.3182 C.ar    1  UNL1       -0.0336
     21 H           4.7757   -1.3495   -2.3485 H       1  UNL1        0.1442
     22 H           5.1340    0.2418   -2.7162 H       1  UNL1        0.1442
     23 H           3.7681   -2.0603    0.7210 H       1  UNL1        0.0638
     24 H           1.5650   -1.6676    1.8319 H       1  UNL1        0.0637
     25 H           0.2314    0.8069    3.1404 H       1  UNL1        0.1538
     26 H           0.2320   -0.0281   -0.4517 H       1  UNL1        0.1480
     27 H          -1.5637   -0.3713   -1.8745 H       1  UNL1        0.0498
     28 H          -2.2877   -1.5436    0.7403 H       1  UNL1        0.0283
     29 H          -2.2789   -2.2100   -0.9023 H       1  UNL1        0.0283
     30 H          -4.5057   -2.2718   -0.5961 H       1  UNL1        0.0266
     31 H          -4.5095   -0.9564    0.6889 H       1  UNL1        0.0266
     32 H          -4.3445   -0.4491   -2.3222 H       1  UNL1        0.0265
     33 H          -5.7654   -0.2292   -1.1565 H       1  UNL1        0.0265
     34 H          -4.5009    1.9451   -1.4807 H       1  UNL1        0.0266
     35 H          -4.5328    1.3245    0.1750 H       1  UNL1        0.0266
     36 H          -2.2789    1.7078   -1.8341 H       1  UNL1        0.0283
     37 H          -2.2881    1.8543   -0.0820 H       1  UNL1        0.0283
     38 H           1.8510    2.4477    1.0031 H       1  UNL1        0.0637
     39 H           4.0139    2.0891   -0.0907 H       1  UNL1        0.0638
@<TRIPOS>BOND
     1     1     2    1
     2     2     3    2
     3     2     4    2
     4     2     5    1
     5     5     6   ar
     6     6     7   ar
     7     7     8   ar
     8     8     9    1
     9     9    10    1
    10    10    11    2
    11    10    12    1
    12    12    13    1
    13    13    14    1
    14    14    15    1
    15    15    16    1
    16    16    17    1
    17    17    18    1
    18     8    19   ar
    19    19    20   ar
    20    20     5   ar
    21    18    13    1
    22     1    21    1
    23     1    22    1
    24     6    23    1
    25     7    24    1
    26     9    25    1
    27    12    26    1
    28    13    27    1
    29    14    28    1
    30    14    29    1
    31    15    30    1
    32    15    31    1
    33    16    32    1
    34    16    33    1
    35    17    34    1
    36    17    35    1
    37    18    36    1
    38    18    37    1
    39    19    38    1
    40    20    39    1
