@<TRIPOS>MOLECULE
*****
 53 57 0 0 0
SMALL
GASTEIGER

@<TRIPOS>ATOM
      1 C           0.8889   -2.7616    2.4021 C.3     1  UNL1        0.0790
      2 O          -0.0778   -2.1092    1.6155 O.3     1  UNL1       -0.4914
      3 C           0.3537   -1.1558    0.6960 C.ar    1  UNL1        0.1623
      4 C           1.6812   -0.8597    0.5594 C.ar    1  UNL1       -0.0038
      5 C           2.1376    0.0793   -0.3423 C.ar    1  UNL1        0.0441
      6 C           3.4832    0.3570   -0.4578 C.ar    1  UNL1        0.1340
      7 N           4.4793   -0.2764    0.3132 N.pl3   1  UNL1       -0.2966
      8 C           5.8414    0.0931    0.1054 C.ar    1  UNL1        0.0696
      9 C           6.5277    0.6117    1.1804 C.ar    1  UNL1       -0.0362
     10 C           7.8444    0.9932    1.0659 C.ar    1  UNL1       -0.0400
     11 C           8.5220    0.8698   -0.1282 C.ar    1  UNL1        0.0622
     12 CL         10.1953    1.3521   -0.2824 Cl      1  UNL1       -0.0819
     13 C           7.8053    0.3431   -1.1980 C.ar    1  UNL1        0.0962
     14 CL          8.6644    0.1863   -2.7131 Cl      1  UNL1       -0.0790
     15 C           6.4854   -0.0407   -1.0881 C.ar    1  UNL1        0.1641
     16 F           5.8065   -0.5490   -2.1353 F       1  UNL1       -0.2020
     17 N           3.8175    1.3064   -1.3854 N.ar    1  UNL1       -0.2200
     18 C           2.9261    1.9370   -2.1404 C.ar    1  UNL1        0.1187
     19 N           1.6234    1.6602   -2.0204 N.ar    1  UNL1       -0.2352
     20 C           1.1931    0.7262   -1.1206 C.ar    1  UNL1        0.0797
     21 C          -0.1546    0.4481   -1.0049 C.ar    1  UNL1        0.0099
     22 C          -0.5616   -0.4880   -0.1000 C.ar    1  UNL1        0.1646
     23 O          -1.8710   -0.8036    0.0588 O.3     1  UNL1       -0.4801
     24 C          -2.9849   -0.2860   -0.6087 C.3     1  UNL1        0.1519
     25 C          -3.6986   -1.4602   -1.2483 C.3     1  UNL1        0.0877
     26 O          -5.0495   -1.2487   -1.0834 O.3     1  UNL1       -0.3675
     27 C          -5.2370   -0.5568    0.0867 C.3     1  UNL1        0.1166
     28 C          -6.2408    0.5669   -0.2054 C.3     1  UNL1        0.1101
     29 O          -6.9635    0.8577    0.9177 O.3     1  UNL1       -0.3748
     30 C          -8.3214    0.6746    0.8053 C.3     1  UNL1        0.0370
     31 C          -5.3210    1.6566   -0.6640 C.3     1  UNL1        0.0770
     32 O          -4.2707    1.5609    0.2427 O.3     1  UNL1       -0.3675
     33 C          -3.9990    0.2092    0.4028 C.3     1  UNL1        0.1262
     34 H           0.4692   -3.5633    3.0267 H       1  UNL1        0.0660
     35 H           1.3870   -1.9964    3.0483 H       1  UNL1        0.0660
     36 H           1.6143   -3.2469    1.7131 H       1  UNL1        0.0660
     37 H           2.4362   -1.3651    1.1696 H       1  UNL1        0.0663
     38 H           4.3250   -0.9951    1.0280 H       1  UNL1        0.1537
     39 H           6.0505    0.7326    2.1421 H       1  UNL1        0.0637
     40 H           8.3817    1.4037    1.9237 H       1  UNL1        0.0633
     41 H           3.2335    2.6786   -2.8592 H       1  UNL1        0.1048
     42 H          -0.8351    1.0079   -1.6613 H       1  UNL1        0.0677
     43 H          -2.7187    0.4690   -1.3448 H       1  UNL1        0.0784
     44 H          -3.3932   -1.4726   -2.3246 H       1  UNL1        0.0598
     45 H          -3.4228   -2.4275   -0.8076 H       1  UNL1        0.0598
     46 H          -5.5960   -1.1860    0.9309 H       1  UNL1        0.0650
     47 H          -6.9524    0.2313   -0.9950 H       1  UNL1        0.0646
     48 H          -8.5920   -0.3875    0.5573 H       1  UNL1        0.0524
     49 H          -8.8178    1.3836    0.1060 H       1  UNL1        0.0524
     50 H          -8.7683    0.8683    1.8038 H       1  UNL1        0.0524
     51 H          -4.9196    1.3577   -1.6589 H       1  UNL1        0.0587
     52 H          -5.7540    2.6498   -0.6621 H       1  UNL1        0.0587
     53 H          -3.6527   -0.0365    1.4269 H       1  UNL1        0.0661
@<TRIPOS>BOND
     1     1     2    1
     2     2     3    1
     3     3     4   ar
     4     4     5   ar
     5     5     6   ar
     6     6     7    1
     7     7     8    1
     8     8     9   ar
     9     9    10   ar
    10    10    11   ar
    11    11    12    1
    12    11    13   ar
    13    13    14    1
    14    13    15   ar
    15    15    16    1
    16     6    17   ar
    17    17    18   ar
    18    18    19   ar
    19    19    20   ar
    20    20    21   ar
    21    21    22   ar
    22    22    23    1
    23    23    24    1
    24    24    25    1
    25    25    26    1
    26    26    27    1
    27    27    28    1
    28    28    29    1
    29    29    30    1
    30    28    31    1
    31    31    32    1
    32    32    33    1
    33    22     3   ar
    34    33    24    1
    35    20     5   ar
    36    33    27    1
    37    15     8   ar
    38     1    34    1
    39     1    35    1
    40     1    36    1
    41     4    37    1
    42     7    38    1
    43     9    39    1
    44    10    40    1
    45    18    41    1
    46    21    42    1
    47    24    43    1
    48    25    44    1
    49    25    45    1
    50    27    46    1
    51    28    47    1
    52    30    48    1
    53    30    49    1
    54    30    50    1
    55    31    51    1
    56    31    52    1
    57    33    53    1
