
     RDKit          3D

 53 57  0  0  0  0  0  0  0  0999 V2000
    0.8889   -2.7616    2.4021 C   0  0  0  0  0  0  0  0  0  0  0  0
   -0.0778   -2.1092    1.6155 O   0  0  0  0  0  0  0  0  0  0  0  0
    0.3537   -1.1558    0.6960 C   0  0  0  0  0  0  0  0  0  0  0  0
    1.6812   -0.8597    0.5594 C   0  0  0  0  0  0  0  0  0  0  0  0
    2.1376    0.0793   -0.3423 C   0  0  0  0  0  0  0  0  0  0  0  0
    3.4832    0.3570   -0.4578 C   0  0  0  0  0  0  0  0  0  0  0  0
    4.4793   -0.2764    0.3132 N   0  0  0  0  0  0  0  0  0  0  0  0
    5.8414    0.0931    0.1054 C   0  0  0  0  0  0  0  0  0  0  0  0
    6.5277    0.6117    1.1804 C   0  0  0  0  0  0  0  0  0  0  0  0
    7.8444    0.9932    1.0659 C   0  0  0  0  0  0  0  0  0  0  0  0
    8.5220    0.8698   -0.1282 C   0  0  0  0  0  0  0  0  0  0  0  0
   10.1953    1.3521   -0.2824 Cl  0  0  0  0  0  0  0  0  0  0  0  0
    7.8053    0.3431   -1.1980 C   0  0  0  0  0  0  0  0  0  0  0  0
    8.6644    0.1863   -2.7131 Cl  0  0  0  0  0  0  0  0  0  0  0  0
    6.4854   -0.0407   -1.0881 C   0  0  0  0  0  0  0  0  0  0  0  0
    5.8065   -0.5490   -2.1353 F   0  0  0  0  0  0  0  0  0  0  0  0
    3.8175    1.3064   -1.3854 N   0  0  0  0  0  0  0  0  0  0  0  0
    2.9261    1.9370   -2.1404 C   0  0  0  0  0  0  0  0  0  0  0  0
    1.6234    1.6602   -2.0204 N   0  0  0  0  0  0  0  0  0  0  0  0
    1.1931    0.7262   -1.1206 C   0  0  0  0  0  0  0  0  0  0  0  0
   -0.1546    0.4481   -1.0049 C   0  0  0  0  0  0  0  0  0  0  0  0
   -0.5616   -0.4880   -0.1000 C   0  0  0  0  0  0  0  0  0  0  0  0
   -1.8710   -0.8036    0.0588 O   0  0  0  0  0  0  0  0  0  0  0  0
   -2.9849   -0.2860   -0.6087 C   0  0  1  0  0  0  0  0  0  0  0  0
   -3.6986   -1.4602   -1.2483 C   0  0  0  0  0  0  0  0  0  0  0  0
   -5.0495   -1.2487   -1.0834 O   0  0  0  0  0  0  0  0  0  0  0  0
   -5.2370   -0.5568    0.0867 C   0  0  2  0  0  0  0  0  0  0  0  0
   -6.2408    0.5669   -0.2054 C   0  0  1  0  0  0  0  0  0  0  0  0
   -6.9635    0.8577    0.9177 O   0  0  0  0  0  0  0  0  0  0  0  0
   -8.3214    0.6746    0.8053 C   0  0  0  0  0  0  0  0  0  0  0  0
   -5.3210    1.6566   -0.6640 C   0  0  0  0  0  0  0  0  0  0  0  0
   -4.2707    1.5609    0.2427 O   0  0  0  0  0  0  0  0  0  0  0  0
   -3.9990    0.2092    0.4028 C   0  0  2  0  0  0  0  0  0  0  0  0
    0.4692   -3.5633    3.0267 H   0  0  0  0  0  0  0  0  0  0  0  0
    1.3870   -1.9964    3.0483 H   0  0  0  0  0  0  0  0  0  0  0  0
    1.6143   -3.2469    1.7131 H   0  0  0  0  0  0  0  0  0  0  0  0
    2.4362   -1.3651    1.1696 H   0  0  0  0  0  0  0  0  0  0  0  0
    4.3250   -0.9951    1.0280 H   0  0  0  0  0  0  0  0  0  0  0  0
    6.0505    0.7326    2.1421 H   0  0  0  0  0  0  0  0  0  0  0  0
    8.3817    1.4037    1.9237 H   0  0  0  0  0  0  0  0  0  0  0  0
    3.2335    2.6786   -2.8592 H   0  0  0  0  0  0  0  0  0  0  0  0
   -0.8351    1.0079   -1.6613 H   0  0  0  0  0  0  0  0  0  0  0  0
   -2.7187    0.4690   -1.3448 H   0  0  0  0  0  0  0  0  0  0  0  0
   -3.3932   -1.4726   -2.3246 H   0  0  0  0  0  0  0  0  0  0  0  0
   -3.4228   -2.4275   -0.8076 H   0  0  0  0  0  0  0  0  0  0  0  0
   -5.5960   -1.1860    0.9309 H   0  0  0  0  0  0  0  0  0  0  0  0
   -6.9524    0.2313   -0.9950 H   0  0  0  0  0  0  0  0  0  0  0  0
   -8.5920   -0.3875    0.5573 H   0  0  0  0  0  0  0  0  0  0  0  0
   -8.8178    1.3836    0.1060 H   0  0  0  0  0  0  0  0  0  0  0  0
   -8.7683    0.8683    1.8038 H   0  0  0  0  0  0  0  0  0  0  0  0
   -4.9196    1.3577   -1.6589 H   0  0  0  0  0  0  0  0  0  0  0  0
   -5.7540    2.6498   -0.6621 H   0  0  0  0  0  0  0  0  0  0  0  0
   -3.6527   -0.0365    1.4269 H   0  0  0  0  0  0  0  0  0  0  0  0
  1  2  1  0
  2  3  1  0
  3  4  2  0
  4  5  1  0
  5  6  2  0
  6  7  1  0
  7  8  1  0
  8  9  2  0
  9 10  1  0
 10 11  2  0
 11 12  1  0
 11 13  1  0
 13 14  1  0
 13 15  2  0
 15 16  1  0
  6 17  1  0
 17 18  2  0
 18 19  1  0
 19 20  2  0
 20 21  1  0
 21 22  2  0
 22 23  1  0
 23 24  1  0
 24 25  1  0
 25 26  1  0
 26 27  1  0
 27 28  1  0
 28 29  1  0
 29 30  1  0
 28 31  1  0
 31 32  1  0
 32 33  1  0
 22  3  1  0
 33 24  1  0
 20  5  1  0
 33 27  1  0
 15  8  1  0
  1 34  1  0
  1 35  1  0
  1 36  1  0
  4 37  1  0
  7 38  1  0
  9 39  1  0
 10 40  1  0
 18 41  1  0
 21 42  1  0
 24 43  1  6
 25 44  1  0
 25 45  1  0
 27 46  1  1
 28 47  1  6
 30 48  1  0
 30 49  1  0
 30 50  1  0
 31 51  1  0
 31 52  1  0
 33 53  1  1
M  END
$$$$
