
     RDKit          3D

 56 59  0  0  0  0  0  0  0  0999 V2000
   -2.9167    1.7200    0.4218 C   0  0  0  0  0  0  0  0  0  0  0  0
   -3.8222    0.9531   -0.4606 C   0  0  0  0  0  0  0  0  0  0  0  0
   -4.0124    1.0924   -1.7908 N   0  0  0  0  0  0  0  0  0  0  0  0
   -4.9058    0.2195   -2.2196 N   0  0  0  0  0  0  0  0  0  0  0  0
   -5.3621    0.0766   -3.5941 C   0  0  0  0  0  0  0  0  0  0  0  0
   -5.3391   -0.5283   -1.1906 C   0  0  0  0  0  0  0  0  0  0  0  0
   -6.3407   -1.6260   -1.2181 C   0  0  0  0  0  0  0  0  0  0  0  0
   -4.6617   -0.0728   -0.0790 C   0  0  0  0  0  0  0  0  0  0  0  0
   -4.7955   -0.5704    1.2527 N   0  0  0  0  0  0  0  0  0  0  0  0
   -3.7974   -1.8458    1.7863 S   0  0  0  0  0  6  0  0  0  0  0  0
   -4.2155   -2.2580    3.1857 O   0  0  0  0  0  0  0  0  0  0  0  0
   -3.9947   -3.0455    0.9089 O   0  0  0  0  0  0  0  0  0  0  0  0
   -2.0925   -1.4279    1.7567 C   0  0  0  0  0  0  0  0  0  0  0  0
   -1.4789   -0.8602    2.8541 C   0  0  0  0  0  0  0  0  0  0  0  0
   -2.4745   -0.5731    4.2772 Cl  0  0  0  0  0  0  0  0  0  0  0  0
   -0.1400   -0.5339    2.8280 C   0  0  0  0  0  0  0  0  0  0  0  0
    0.6522   -0.7563    1.7110 C   0  0  0  0  0  0  0  0  0  0  0  0
    2.0661   -0.4033    1.7143 C   0  0  0  0  0  0  0  0  0  0  0  0
    2.7692   -0.4859    2.9037 C   0  0  0  0  0  0  0  0  0  0  0  0
    4.1128   -0.1524    2.9109 C   0  0  0  0  0  0  0  0  0  0  0  0
    4.7403    0.2467    1.7915 N   0  0  0  0  0  0  0  0  0  0  0  0
    4.0947    0.3412    0.6132 C   0  0  0  0  0  0  0  0  0  0  0  0
    4.7885    0.7678   -0.5552 N   0  0  0  0  0  0  0  0  0  0  0  0
    4.0871    0.8406   -1.8199 C   0  0  0  0  0  0  0  0  0  0  0  0
    5.0069    0.7716   -3.0106 C   0  0  0  0  0  0  0  0  0  0  0  0
    6.1516    1.6180   -2.9420 N   0  0  0  0  0  0  0  0  0  0  0  0
    6.3861    2.1728   -1.6289 C   0  0  0  0  0  0  0  0  0  0  0  0
    6.1824    1.1387   -0.5369 C   0  0  0  0  0  0  0  0  0  0  0  0
    2.7587    0.0117    0.5969 C   0  0  0  0  0  0  0  0  0  0  0  0
    0.0356   -1.3238    0.6159 C   0  0  0  0  0  0  0  0  0  0  0  0
   -1.3073   -1.6499    0.6448 C   0  0  0  0  0  0  0  0  0  0  0  0
   -2.1007   -2.3739   -0.7460 Cl  0  0  0  0  0  0  0  0  0  0  0  0
   -3.1804    1.5133    1.4666 H   0  0  0  0  0  0  0  0  0  0  0  0
   -3.0118    2.8246    0.2615 H   0  0  0  0  0  0  0  0  0  0  0  0
   -1.8731    1.3867    0.2042 H   0  0  0  0  0  0  0  0  0  0  0  0
   -5.2448   -0.9728   -3.9284 H   0  0  0  0  0  0  0  0  0  0  0  0
   -4.7416    0.7075   -4.2619 H   0  0  0  0  0  0  0  0  0  0  0  0
   -6.4226    0.4049   -3.6843 H   0  0  0  0  0  0  0  0  0  0  0  0
   -5.9458   -2.5650   -1.6273 H   0  0  0  0  0  0  0  0  0  0  0  0
   -6.8042   -1.8028   -0.2429 H   0  0  0  0  0  0  0  0  0  0  0  0
   -7.1718   -1.3053   -1.9064 H   0  0  0  0  0  0  0  0  0  0  0  0
   -5.5114   -0.1314    1.8688 H   0  0  0  0  0  0  0  0  0  0  0  0
    0.3296   -0.0937    3.6825 H   0  0  0  0  0  0  0  0  0  0  0  0
    2.2568   -0.8106    3.8119 H   0  0  0  0  0  0  0  0  0  0  0  0
    4.6631   -0.2209    3.8593 H   0  0  0  0  0  0  0  0  0  0  0  0
    3.4604   -0.0972   -1.8784 H   0  0  0  0  0  0  0  0  0  0  0  0
    3.4018    1.6969   -1.8656 H   0  0  0  0  0  0  0  0  0  0  0  0
    4.3975    1.1153   -3.8982 H   0  0  0  0  0  0  0  0  0  0  0  0
    5.2903   -0.2736   -3.2553 H   0  0  0  0  0  0  0  0  0  0  0  0
    6.9875    1.0878   -3.2888 H   0  0  0  0  0  0  0  0  0  0  0  0
    7.3829    2.6281   -1.6047 H   0  0  0  0  0  0  0  0  0  0  0  0
    5.5983    2.9562   -1.4645 H   0  0  0  0  0  0  0  0  0  0  0  0
    6.3956    1.6442    0.4272 H   0  0  0  0  0  0  0  0  0  0  0  0
    6.8482    0.2679   -0.6824 H   0  0  0  0  0  0  0  0  0  0  0  0
    2.1771    0.0659   -0.3175 H   0  0  0  0  0  0  0  0  0  0  0  0
    0.6437   -1.5092   -0.2800 H   0  0  0  0  0  0  0  0  0  0  0  0
  1  2  1  0
  2  3  2  0
  3  4  1  0
  4  5  1  0
  4  6  1  0
  6  7  1  0
  6  8  2  0
  8  9  1  0
  9 10  1  0
 10 11  2  0
 10 12  2  0
 10 13  1  0
 13 14  2  0
 14 15  1  0
 14 16  1  0
 16 17  2  0
 17 18  1  0
 18 19  2  0
 19 20  1  0
 20 21  2  0
 21 22  1  0
 22 23  1  0
 23 24  1  0
 24 25  1  0
 25 26  1  0
 26 27  1  0
 27 28  1  0
 22 29  2  0
 17 30  1  0
 30 31  2  0
 31 32  1  0
  8  2  1  0
 31 13  1  0
 29 18  1  0
 28 23  1  0
  1 33  1  0
  1 34  1  0
  1 35  1  0
  5 36  1  0
  5 37  1  0
  5 38  1  0
  7 39  1  0
  7 40  1  0
  7 41  1  0
  9 42  1  0
 16 43  1  0
 19 44  1  0
 20 45  1  0
 24 46  1  0
 24 47  1  0
 25 48  1  0
 25 49  1  0
 26 50  1  0
 27 51  1  0
 27 52  1  0
 28 53  1  0
 28 54  1  0
 29 55  1  0
 30 56  1  0
M  END
$$$$
