@<TRIPOS>MOLECULE
*****
 56 59 0 0 0
SMALL
GASTEIGER

@<TRIPOS>ATOM
      1 C          -2.9167    1.7200    0.4218 C.3     1  UNL1       -0.0188
      2 C          -3.8222    0.9531   -0.4606 C.ar    1  UNL1        0.0825
      3 N          -4.0124    1.0924   -1.7908 N.ar    1  UNL1       -0.1746
      4 N          -4.9058    0.2195   -2.2196 N.ar    1  UNL1       -0.2695
      5 C          -5.3621    0.0766   -3.5941 C.3     1  UNL1        0.0305
      6 C          -5.3391   -0.5283   -1.1906 C.ar    1  UNL1        0.0584
      7 C          -6.3407   -1.6260   -1.2181 C.3     1  UNL1       -0.0208
      8 C          -4.6617   -0.0728   -0.0790 C.ar    1  UNL1        0.0912
      9 N          -4.7955   -0.5704    1.2527 N.pl3   1  UNL1       -0.2127
     10 S          -3.7974   -1.8458    1.7863 S.O2    1  UNL1        0.0752
     11 O          -4.2155   -2.2580    3.1857 O.2     1  UNL1       -0.1499
     12 O          -3.9947   -3.0455    0.9089 O.2     1  UNL1       -0.1499
     13 C          -2.0925   -1.4279    1.7567 C.ar    1  UNL1        0.1449
     14 C          -1.4789   -0.8602    2.8541 C.ar    1  UNL1        0.0695
     15 CL         -2.4745   -0.5731    4.2772 Cl      1  UNL1       -0.0814
     16 C          -0.1400   -0.5339    2.8280 C.ar    1  UNL1       -0.0337
     17 C           0.6522   -0.7563    1.7110 C.ar    1  UNL1       -0.0149
     18 C           2.0661   -0.4033    1.7143 C.ar    1  UNL1       -0.0131
     19 C           2.7692   -0.4859    2.9037 C.ar    1  UNL1       -0.0357
     20 C           4.1128   -0.1524    2.9109 C.ar    1  UNL1        0.0303
     21 N           4.7403    0.2467    1.7915 N.ar    1  UNL1       -0.2403
     22 C           4.0947    0.3412    0.6132 C.ar    1  UNL1        0.1219
     23 N           4.7885    0.7678   -0.5552 N.pl3   1  UNL1       -0.3128
     24 C           4.0871    0.8406   -1.8199 C.3     1  UNL1        0.0261
     25 C           5.0069    0.7716   -3.0106 C.3     1  UNL1        0.0117
     26 N           6.1516    1.6180   -2.9420 N.3     1  UNL1       -0.3130
     27 C           6.3861    2.1728   -1.6289 C.3     1  UNL1        0.0117
     28 C           6.1824    1.1387   -0.5369 C.3     1  UNL1        0.0261
     29 C           2.7587    0.0117    0.5969 C.ar    1  UNL1       -0.0140
     30 C           0.0356   -1.3238    0.6159 C.ar    1  UNL1       -0.0337
     31 C          -1.3073   -1.6499    0.6448 C.ar    1  UNL1        0.0695
     32 CL         -2.1007   -2.3739   -0.7460 Cl      1  UNL1       -0.0814
     33 H          -3.1804    1.5133    1.4666 H       1  UNL1        0.0294
     34 H          -3.0118    2.8246    0.2615 H       1  UNL1        0.0294
     35 H          -1.8731    1.3867    0.2042 H       1  UNL1        0.0294
     36 H          -5.2448   -0.9728   -3.9284 H       1  UNL1        0.0473
     37 H          -4.7416    0.7075   -4.2619 H       1  UNL1        0.0473
     38 H          -6.4226    0.4049   -3.6843 H       1  UNL1        0.0473
     39 H          -5.9458   -2.5650   -1.6273 H       1  UNL1        0.0293
     40 H          -6.8042   -1.8028   -0.2429 H       1  UNL1        0.0293
     41 H          -7.1718   -1.3053   -1.9064 H       1  UNL1        0.0293
     42 H          -5.5114   -0.1314    1.8688 H       1  UNL1        0.1738
     43 H           0.3296   -0.0937    3.6825 H       1  UNL1        0.0639
     44 H           2.2568   -0.8106    3.8119 H       1  UNL1        0.0639
     45 H           4.6631   -0.2209    3.8593 H       1  UNL1        0.0830
     46 H           3.4604   -0.0972   -1.8784 H       1  UNL1        0.0477
     47 H           3.4018    1.6969   -1.8656 H       1  UNL1        0.0477
     48 H           4.3975    1.1153   -3.8982 H       1  UNL1        0.0439
     49 H           5.2903   -0.2736   -3.2553 H       1  UNL1        0.0439
     50 H           6.9875    1.0878   -3.2888 H       1  UNL1        0.1220
     51 H           7.3829    2.6281   -1.6047 H       1  UNL1        0.0439
     52 H           5.5983    2.9562   -1.4645 H       1  UNL1        0.0439
     53 H           6.3956    1.6442    0.4272 H       1  UNL1        0.0477
     54 H           6.8482    0.2679   -0.6824 H       1  UNL1        0.0477
     55 H           2.1771    0.0659   -0.3175 H       1  UNL1        0.0658
     56 H           0.6437   -1.5092   -0.2800 H       1  UNL1        0.0639
@<TRIPOS>BOND
     1     1     2    1
     2     2     3   ar
     3     3     4   ar
     4     4     5    1
     5     4     6   ar
     6     6     7    1
     7     6     8   ar
     8     8     9    1
     9     9    10    1
    10    10    11    2
    11    10    12    2
    12    10    13    1
    13    13    14   ar
    14    14    15    1
    15    14    16   ar
    16    16    17   ar
    17    17    18    1
    18    18    19   ar
    19    19    20   ar
    20    20    21   ar
    21    21    22   ar
    22    22    23    1
    23    23    24    1
    24    24    25    1
    25    25    26    1
    26    26    27    1
    27    27    28    1
    28    22    29   ar
    29    17    30   ar
    30    30    31   ar
    31    31    32    1
    32     8     2   ar
    33    31    13   ar
    34    29    18   ar
    35    28    23    1
    36     1    33    1
    37     1    34    1
    38     1    35    1
    39     5    36    1
    40     5    37    1
    41     5    38    1
    42     7    39    1
    43     7    40    1
    44     7    41    1
    45     9    42    1
    46    16    43    1
    47    19    44    1
    48    20    45    1
    49    24    46    1
    50    24    47    1
    51    25    48    1
    52    25    49    1
    53    26    50    1
    54    27    51    1
    55    27    52    1
    56    28    53    1
    57    28    54    1
    58    29    55    1
    59    30    56    1
