
     RDKit          3D

 35 38  0  0  0  0  0  0  0  0999 V2000
    3.0679    0.0285   -2.2838 C   0  0  0  0  0  0  0  0  0  0  0  0
    1.8916   -0.8160   -2.1526 N   0  0  0  0  0  0  0  0  0  0  0  0
    1.5937   -1.9681   -2.7719 C   0  0  0  0  0  0  0  0  0  0  0  0
    0.3935   -2.4224   -2.3502 N   0  0  0  0  0  0  0  0  0  0  0  0
   -0.1064   -1.5428   -1.4298 C   0  0  0  0  0  0  0  0  0  0  0  0
   -1.3701   -1.6084   -0.7013 C   0  0  0  0  0  0  0  0  0  0  0  0
   -2.3617   -0.6682   -0.8481 C   0  0  0  0  0  0  0  0  0  0  0  0
   -3.5442   -0.7690   -0.1419 C   0  0  0  0  0  0  0  0  0  0  0  0
   -3.7865   -1.8128    0.7407 C   0  0  0  0  0  0  0  0  0  0  0  0
   -4.9643   -1.8839    1.4209 F   0  0  0  0  0  0  0  0  0  0  0  0
   -2.7987   -2.7647    0.8982 C   0  0  0  0  0  0  0  0  0  0  0  0
   -3.0568   -4.1180    2.0102 Cl  0  0  0  0  0  0  0  0  0  0  0  0
   -1.6204   -2.6508    0.1849 C   0  0  0  0  0  0  0  0  0  0  0  0
    0.8525   -0.5521   -1.3296 C   0  0  0  0  0  0  0  0  0  0  0  0
    0.7470    0.6178   -0.4455 C   0  0  0  0  0  0  0  0  0  0  0  0
    0.3674    1.8439   -1.0022 C   0  0  0  0  0  0  0  0  0  0  0  0
    0.2585    2.9653   -0.2056 C   0  0  0  0  0  0  0  0  0  0  0  0
    0.5387    2.8104    1.1354 C   0  0  0  0  0  0  0  0  0  0  0  0
    0.5313    3.6800    2.1688 N   0  0  0  0  0  0  0  0  0  0  0  0
    0.8819    3.0519    3.3000 C   0  0  0  0  0  0  0  0  0  0  0  0
    1.1237    1.7386    2.9968 C   0  0  0  0  0  0  0  0  0  0  0  0
    1.5251    0.6912    3.8875 C   0  0  0  0  0  0  0  0  0  0  0  0
    1.8378   -0.1619    4.6287 N   0  0  0  0  0  0  0  0  0  0  0  0
    0.9030    1.6228    1.6550 N   0  0  0  0  0  0  0  0  0  0  0  0
    1.0011    0.5598    0.8735 N   0  0  0  0  0  0  0  0  0  0  0  0
    2.9632    0.9483   -1.6731 H   0  0  0  0  0  0  0  0  0  0  0  0
    3.9056   -0.5753   -1.8255 H   0  0  0  0  0  0  0  0  0  0  0  0
    3.3130    0.2594   -3.3398 H   0  0  0  0  0  0  0  0  0  0  0  0
    2.2380   -2.4623   -3.5136 H   0  0  0  0  0  0  0  0  0  0  0  0
   -2.2216    0.1549   -1.5180 H   0  0  0  0  0  0  0  0  0  0  0  0
   -4.3290   -0.0390   -0.2482 H   0  0  0  0  0  0  0  0  0  0  0  0
   -0.8732   -3.3966    0.3214 H   0  0  0  0  0  0  0  0  0  0  0  0
    0.1725    1.8531   -2.0648 H   0  0  0  0  0  0  0  0  0  0  0  0
   -0.0365    3.9029   -0.6516 H   0  0  0  0  0  0  0  0  0  0  0  0
    0.9623    3.4839    4.2753 H   0  0  0  0  0  0  0  0  0  0  0  0
  1  2  1  0
  2  3  1  0
  3  4  2  0
  4  5  1  0
  5  6  1  0
  6  7  2  0
  7  8  1  0
  8  9  2  0
  9 10  1  0
  9 11  1  0
 11 12  1  0
 11 13  2  0
  5 14  2  0
 14 15  1  0
 15 16  1  0
 16 17  2  0
 17 18  1  0
 18 19  2  0
 19 20  1  0
 20 21  2  0
 21 22  1  0
 22 23  3  0
 21 24  1  0
 24 25  1  0
 14  2  1  0
 25 15  2  0
 13  6  1  0
 24 18  1  0
  1 26  1  0
  1 27  1  0
  1 28  1  0
  3 29  1  0
  7 30  1  0
  8 31  1  0
 13 32  1  0
 16 33  1  0
 17 34  1  0
 20 35  1  0
M  END
$$$$
