@<TRIPOS>MOLECULE
*****
 35 38 0 0 0
SMALL
GASTEIGER

@<TRIPOS>ATOM
      1 C           3.0679    0.0285   -2.2838 C.3     1  UNL1        0.0133
      2 N           1.8916   -0.8160   -2.1526 N.ar    1  UNL1       -0.3315
      3 C           1.5937   -1.9681   -2.7719 C.ar    1  UNL1        0.0969
      4 N           0.3935   -2.4224   -2.3502 N.ar    1  UNL1       -0.2351
      5 C          -0.1064   -1.5428   -1.4298 C.ar    1  UNL1        0.0983
      6 C          -1.3701   -1.6084   -0.7013 C.ar    1  UNL1        0.0040
      7 C          -2.3617   -0.6682   -0.8481 C.ar    1  UNL1       -0.0497
      8 C          -3.5442   -0.7690   -0.1419 C.ar    1  UNL1       -0.0244
      9 C          -3.7865   -1.8128    0.7407 C.ar    1  UNL1        0.1417
     10 F          -4.9643   -1.8839    1.4209 F       1  UNL1       -0.2040
     11 C          -2.7987   -2.7647    0.8982 C.ar    1  UNL1        0.0767
     12 CL         -3.0568   -4.1180    2.0102 Cl      1  UNL1       -0.0806
     13 C          -1.6204   -2.6508    0.1849 C.ar    1  UNL1       -0.0313
     14 C           0.8525   -0.5521   -1.3296 C.ar    1  UNL1        0.0964
     15 C           0.7470    0.6178   -0.4455 C.ar    1  UNL1        0.1103
     16 C           0.3674    1.8439   -1.0022 C.ar    1  UNL1       -0.0290
     17 C           0.2585    2.9653   -0.2056 C.ar    1  UNL1       -0.0153
     18 C           0.5387    2.8104    1.1354 C.ar    1  UNL1        0.1555
     19 N           0.5313    3.6800    2.1688 N.ar    1  UNL1       -0.2333
     20 C           0.8819    3.0519    3.3000 C.ar    1  UNL1        0.0659
     21 C           1.1237    1.7386    2.9968 C.ar    1  UNL1        0.1618
     22 C           1.5251    0.6912    3.8875 C.1     1  UNL1        0.1208
     23 N           1.8378   -0.1619    4.6287 N.1     1  UNL1       -0.1892
     24 N           0.9030    1.6228    1.6550 N.ar    1  UNL1       -0.2023
     25 N           1.0011    0.5598    0.8735 N.ar    1  UNL1       -0.1623
     26 H           2.9632    0.9483   -1.6731 H       1  UNL1        0.0456
     27 H           3.9056   -0.5753   -1.8255 H       1  UNL1        0.0456
     28 H           3.3130    0.2594   -3.3398 H       1  UNL1        0.0456
     29 H           2.2380   -2.4623   -3.5136 H       1  UNL1        0.1029
     30 H          -2.2216    0.1549   -1.5180 H       1  UNL1        0.0625
     31 H          -4.3290   -0.0390   -0.2482 H       1  UNL1        0.0647
     32 H          -0.8732   -3.3966    0.3214 H       1  UNL1        0.0640
     33 H           0.1725    1.8531   -2.0648 H       1  UNL1        0.0641
     34 H          -0.0365    3.9029   -0.6516 H       1  UNL1        0.0655
     35 H           0.9623    3.4839    4.2753 H       1  UNL1        0.0859
@<TRIPOS>BOND
     1     1     2    1
     2     2     3   ar
     3     3     4   ar
     4     4     5   ar
     5     5     6    1
     6     6     7   ar
     7     7     8   ar
     8     8     9   ar
     9     9    10    1
    10     9    11   ar
    11    11    12    1
    12    11    13   ar
    13     5    14   ar
    14    14    15    1
    15    15    16   ar
    16    16    17   ar
    17    17    18   ar
    18    18    19   ar
    19    19    20   ar
    20    20    21   ar
    21    21    22    1
    22    22    23    3
    23    21    24   ar
    24    24    25   ar
    25    14     2   ar
    26    25    15   ar
    27    13     6   ar
    28    24    18   ar
    29     1    26    1
    30     1    27    1
    31     1    28    1
    32     3    29    1
    33     7    30    1
    34     8    31    1
    35    13    32    1
    36    16    33    1
    37    17    34    1
    38    20    35    1
