@<TRIPOS>MOLECULE
*****
 68 73 0 0 0
SMALL
GASTEIGER

@<TRIPOS>ATOM
      1 C          -9.2793    2.6948    1.4289 C.3     1  UNL1        0.0004
      2 N          -7.8452    2.4827    1.2480 N.am    1  UNL1       -0.3132
      3 C          -7.3617    1.1964    0.9371 C.2     1  UNL1        0.2604
      4 O          -8.1872    0.2816    0.8281 O.2     1  UNL1       -0.2686
      5 C          -5.9411    0.9723    0.7544 C.ar    1  UNL1        0.1068
      6 C          -4.9991    1.9888    0.9992 C.ar    1  UNL1       -0.0209
      7 C          -3.7778    1.4542    0.7529 C.ar    1  UNL1        0.0378
      8 C          -2.5045    2.0188    0.8473 C.ar    1  UNL1        0.0419
      9 N          -1.4657    1.2488    0.5512 N.ar    1  UNL1       -0.2219
     10 C          -1.5615   -0.0327    0.1685 C.ar    1  UNL1        0.2224
     11 N          -0.4796   -0.8692   -0.1484 N.pl3   1  UNL1       -0.2684
     12 C           0.8864   -0.5206   -0.1187 C.ar    1  UNL1        0.1251
     13 C           1.4029    0.6963    0.2238 C.ar    1  UNL1       -0.0197
     14 C           2.7846    0.9275    0.2176 C.ar    1  UNL1       -0.0355
     15 C           3.6805   -0.0554   -0.1319 C.ar    1  UNL1        0.0545
     16 N           5.0790    0.1914   -0.1341 N.am    1  UNL1       -0.2685
     17 C           5.8172   -0.0625    1.0895 C.3     1  UNL1        0.0354
     18 C           7.1973   -0.5716    0.8652 C.3     1  UNL1        0.0266
     19 C           7.1622   -1.5415   -0.3041 C.3     1  UNL1       -0.0344
     20 C           8.0254   -0.9717   -1.3899 C.3     1  UNL1       -0.0354
     21 C           8.1310    0.5005   -0.9651 C.3     1  UNL1        0.0188
     22 C           6.9918    1.2290   -1.5801 C.3     1  UNL1        0.0401
     23 C           5.6704    0.6733   -1.3376 C.2     1  UNL1        0.2214
     24 O           4.9329    0.6089   -2.3561 O.2     1  UNL1       -0.2752
     25 N           8.1437    0.4066    0.4375 N.3     1  UNL1       -0.2975
     26 C           8.2032    1.6018    1.1826 C.3     1  UNL1       -0.0121
     27 C           3.1247   -1.2725   -0.4723 C.ar    1  UNL1        0.0511
     28 N           1.8085   -1.4809   -0.4628 N.ar    1  UNL1       -0.2383
     29 N          -2.8296   -0.5346    0.0922 N.ar    1  UNL1       -0.1962
     30 C          -3.9418    0.1324    0.3611 C.ar    1  UNL1        0.1466
     31 N          -5.2749   -0.1338    0.3701 N.ar    1  UNL1       -0.3180
     32 C          -5.8618   -1.4054    0.0140 C.3     1  UNL1        0.0366
     33 C          -4.7953   -2.4134   -0.3673 C.3     1  UNL1       -0.0320
     34 C          -5.6172   -3.4168   -1.1925 C.3     1  UNL1       -0.0511
     35 C          -6.4613   -2.4827   -2.0574 C.3     1  UNL1       -0.0511
     36 C          -6.8706   -1.3749   -1.0826 C.3     1  UNL1       -0.0320
     37 H          -9.5259    3.6716    0.9711 H       1  UNL1        0.0426
     38 H          -9.8005    1.8969    0.8584 H       1  UNL1        0.0426
     39 H          -9.5243    2.6810    2.4977 H       1  UNL1        0.0426
     40 H          -7.2188    3.3144    1.3592 H       1  UNL1        0.1487
     41 H          -5.2072    3.0120    1.3250 H       1  UNL1        0.0647
     42 H          -2.4488    3.0478    1.1557 H       1  UNL1        0.0838
     43 H          -0.7262   -1.8677   -0.4400 H       1  UNL1        0.1564
     44 H           0.7294    1.4921    0.5038 H       1  UNL1        0.0652
     45 H           3.1340    1.9056    0.4968 H       1  UNL1        0.0638
     46 H           5.7538    0.8166    1.7652 H       1  UNL1        0.0484
     47 H           5.2496   -0.8754    1.6285 H       1  UNL1        0.0484
     48 H           7.5358   -1.1076    1.7672 H       1  UNL1        0.0478
     49 H           6.1453   -1.6896   -0.6914 H       1  UNL1        0.0281
     50 H           7.5398   -2.5488    0.0297 H       1  UNL1        0.0281
     51 H           7.5658   -1.0505   -2.3978 H       1  UNL1        0.0281
     52 H           9.0657   -1.3642   -1.3574 H       1  UNL1        0.0281
     53 H           9.0766    0.9286   -1.3536 H       1  UNL1        0.0467
     54 H           7.1983    1.3387   -2.6650 H       1  UNL1        0.0374
     55 H           6.9945    2.2844   -1.1790 H       1  UNL1        0.0374
     56 H           9.2681    1.7402    1.5339 H       1  UNL1        0.0391
     57 H           7.5911    1.6338    2.1035 H       1  UNL1        0.0391
     58 H           7.9900    2.5321    0.5840 H       1  UNL1        0.0391
     59 H           3.7680   -2.0965   -0.7596 H       1  UNL1        0.0849
     60 H          -6.3643   -1.8667    0.9224 H       1  UNL1        0.0528
     61 H          -4.0651   -1.9275   -1.0178 H       1  UNL1        0.0285
     62 H          -4.3609   -2.8522    0.5300 H       1  UNL1        0.0285
     63 H          -6.2599   -4.0289   -0.5518 H       1  UNL1        0.0266
     64 H          -4.9849   -4.0144   -1.8518 H       1  UNL1        0.0266
     65 H          -7.3233   -3.0016   -2.4715 H       1  UNL1        0.0266
     66 H          -5.8814   -2.0257   -2.8777 H       1  UNL1        0.0266
     67 H          -7.0318   -0.4129   -1.5677 H       1  UNL1        0.0285
     68 H          -7.8692   -1.7317   -0.7075 H       1  UNL1        0.0285
@<TRIPOS>BOND
     1     1     2    1
     2     2     3   am
     3     3     4    2
     4     3     5    1
     5     5     6   ar
     6     6     7   ar
     7     7     8   ar
     8     8     9   ar
     9     9    10   ar
    10    10    11    1
    11    11    12    1
    12    12    13   ar
    13    13    14   ar
    14    14    15   ar
    15    15    16    1
    16    16    17    1
    17    17    18    1
    18    18    19    1
    19    19    20    1
    20    20    21    1
    21    21    22    1
    22    22    23    1
    23    23    24    2
    24    21    25    1
    25    25    26    1
    26    15    27   ar
    27    27    28   ar
    28    10    29   ar
    29    29    30   ar
    30    30    31   ar
    31    31    32    1
    32    32    33    1
    33    33    34    1
    34    34    35    1
    35    35    36    1
    36    31     5   ar
    37    36    32    1
    38    30     7   ar
    39    28    12   ar
    40    23    16   am
    41    25    18    1
    42     1    37    1
    43     1    38    1
    44     1    39    1
    45     2    40    1
    46     6    41    1
    47     8    42    1
    48    11    43    1
    49    13    44    1
    50    14    45    1
    51    17    46    1
    52    17    47    1
    53    18    48    1
    54    19    49    1
    55    19    50    1
    56    20    51    1
    57    20    52    1
    58    21    53    1
    59    22    54    1
    60    22    55    1
    61    26    56    1
    62    26    57    1
    63    26    58    1
    64    27    59    1
    65    32    60    1
    66    33    61    1
    67    33    62    1
    68    34    63    1
    69    34    64    1
    70    35    65    1
    71    35    66    1
    72    36    67    1
    73    36    68    1
