
     RDKit          3D

 68 73  0  0  0  0  0  0  0  0999 V2000
   -9.2793    2.6948    1.4289 C   0  0  0  0  0  0  0  0  0  0  0  0
   -7.8452    2.4827    1.2480 N   0  0  0  0  0  0  0  0  0  0  0  0
   -7.3617    1.1964    0.9371 C   0  0  0  0  0  0  0  0  0  0  0  0
   -8.1872    0.2816    0.8281 O   0  0  0  0  0  0  0  0  0  0  0  0
   -5.9411    0.9723    0.7544 C   0  0  0  0  0  0  0  0  0  0  0  0
   -4.9991    1.9888    0.9992 C   0  0  0  0  0  0  0  0  0  0  0  0
   -3.7778    1.4542    0.7529 C   0  0  0  0  0  0  0  0  0  0  0  0
   -2.5045    2.0188    0.8473 C   0  0  0  0  0  0  0  0  0  0  0  0
   -1.4657    1.2488    0.5512 N   0  0  0  0  0  0  0  0  0  0  0  0
   -1.5615   -0.0327    0.1685 C   0  0  0  0  0  0  0  0  0  0  0  0
   -0.4796   -0.8692   -0.1484 N   0  0  0  0  0  0  0  0  0  0  0  0
    0.8864   -0.5206   -0.1187 C   0  0  0  0  0  0  0  0  0  0  0  0
    1.4029    0.6963    0.2238 C   0  0  0  0  0  0  0  0  0  0  0  0
    2.7846    0.9275    0.2176 C   0  0  0  0  0  0  0  0  0  0  0  0
    3.6805   -0.0554   -0.1319 C   0  0  0  0  0  0  0  0  0  0  0  0
    5.0790    0.1914   -0.1341 N   0  0  0  0  0  0  0  0  0  0  0  0
    5.8172   -0.0625    1.0895 C   0  0  0  0  0  0  0  0  0  0  0  0
    7.1973   -0.5716    0.8652 C   0  0  1  0  0  0  0  0  0  0  0  0
    7.1622   -1.5415   -0.3041 C   0  0  0  0  0  0  0  0  0  0  0  0
    8.0254   -0.9717   -1.3899 C   0  0  0  0  0  0  0  0  0  0  0  0
    8.1310    0.5005   -0.9651 C   0  0  1  0  0  0  0  0  0  0  0  0
    6.9918    1.2290   -1.5801 C   0  0  0  0  0  0  0  0  0  0  0  0
    5.6704    0.6733   -1.3376 C   0  0  0  0  0  0  0  0  0  0  0  0
    4.9329    0.6089   -2.3561 O   0  0  0  0  0  0  0  0  0  0  0  0
    8.1437    0.4066    0.4375 N   0  0  0  0  0  0  0  0  0  0  0  0
    8.2032    1.6018    1.1826 C   0  0  0  0  0  0  0  0  0  0  0  0
    3.1247   -1.2725   -0.4723 C   0  0  0  0  0  0  0  0  0  0  0  0
    1.8085   -1.4809   -0.4628 N   0  0  0  0  0  0  0  0  0  0  0  0
   -2.8296   -0.5346    0.0922 N   0  0  0  0  0  0  0  0  0  0  0  0
   -3.9418    0.1324    0.3611 C   0  0  0  0  0  0  0  0  0  0  0  0
   -5.2749   -0.1338    0.3701 N   0  0  0  0  0  0  0  0  0  0  0  0
   -5.8618   -1.4054    0.0140 C   0  0  0  0  0  0  0  0  0  0  0  0
   -4.7953   -2.4134   -0.3673 C   0  0  0  0  0  0  0  0  0  0  0  0
   -5.6172   -3.4168   -1.1925 C   0  0  0  0  0  0  0  0  0  0  0  0
   -6.4613   -2.4827   -2.0574 C   0  0  0  0  0  0  0  0  0  0  0  0
   -6.8706   -1.3749   -1.0826 C   0  0  0  0  0  0  0  0  0  0  0  0
   -9.5259    3.6716    0.9711 H   0  0  0  0  0  0  0  0  0  0  0  0
   -9.8005    1.8969    0.8584 H   0  0  0  0  0  0  0  0  0  0  0  0
   -9.5243    2.6810    2.4977 H   0  0  0  0  0  0  0  0  0  0  0  0
   -7.2188    3.3144    1.3592 H   0  0  0  0  0  0  0  0  0  0  0  0
   -5.2072    3.0120    1.3250 H   0  0  0  0  0  0  0  0  0  0  0  0
   -2.4488    3.0478    1.1557 H   0  0  0  0  0  0  0  0  0  0  0  0
   -0.7262   -1.8677   -0.4400 H   0  0  0  0  0  0  0  0  0  0  0  0
    0.7294    1.4921    0.5038 H   0  0  0  0  0  0  0  0  0  0  0  0
    3.1340    1.9056    0.4968 H   0  0  0  0  0  0  0  0  0  0  0  0
    5.7538    0.8166    1.7652 H   0  0  0  0  0  0  0  0  0  0  0  0
    5.2496   -0.8754    1.6285 H   0  0  0  0  0  0  0  0  0  0  0  0
    7.5358   -1.1076    1.7672 H   0  0  0  0  0  0  0  0  0  0  0  0
    6.1453   -1.6896   -0.6914 H   0  0  0  0  0  0  0  0  0  0  0  0
    7.5398   -2.5488    0.0297 H   0  0  0  0  0  0  0  0  0  0  0  0
    7.5658   -1.0505   -2.3978 H   0  0  0  0  0  0  0  0  0  0  0  0
    9.0657   -1.3642   -1.3574 H   0  0  0  0  0  0  0  0  0  0  0  0
    9.0766    0.9286   -1.3536 H   0  0  0  0  0  0  0  0  0  0  0  0
    7.1983    1.3387   -2.6650 H   0  0  0  0  0  0  0  0  0  0  0  0
    6.9945    2.2844   -1.1790 H   0  0  0  0  0  0  0  0  0  0  0  0
    9.2681    1.7402    1.5339 H   0  0  0  0  0  0  0  0  0  0  0  0
    7.5911    1.6338    2.1035 H   0  0  0  0  0  0  0  0  0  0  0  0
    7.9900    2.5321    0.5840 H   0  0  0  0  0  0  0  0  0  0  0  0
    3.7680   -2.0965   -0.7596 H   0  0  0  0  0  0  0  0  0  0  0  0
   -6.3643   -1.8667    0.9224 H   0  0  0  0  0  0  0  0  0  0  0  0
   -4.0651   -1.9275   -1.0178 H   0  0  0  0  0  0  0  0  0  0  0  0
   -4.3609   -2.8522    0.5300 H   0  0  0  0  0  0  0  0  0  0  0  0
   -6.2599   -4.0289   -0.5518 H   0  0  0  0  0  0  0  0  0  0  0  0
   -4.9849   -4.0144   -1.8518 H   0  0  0  0  0  0  0  0  0  0  0  0
   -7.3233   -3.0016   -2.4715 H   0  0  0  0  0  0  0  0  0  0  0  0
   -5.8814   -2.0257   -2.8777 H   0  0  0  0  0  0  0  0  0  0  0  0
   -7.0318   -0.4129   -1.5677 H   0  0  0  0  0  0  0  0  0  0  0  0
   -7.8692   -1.7317   -0.7075 H   0  0  0  0  0  0  0  0  0  0  0  0
  1  2  1  0
  2  3  1  0
  3  4  2  0
  3  5  1  0
  5  6  2  0
  6  7  1  0
  7  8  2  0
  8  9  1  0
  9 10  2  0
 10 11  1  0
 11 12  1  0
 12 13  2  0
 13 14  1  0
 14 15  2  0
 15 16  1  0
 16 17  1  0
 17 18  1  0
 18 19  1  0
 19 20  1  0
 20 21  1  0
 21 22  1  0
 22 23  1  0
 23 24  2  0
 21 25  1  0
 25 26  1  0
 15 27  1  0
 27 28  2  0
 10 29  1  0
 29 30  2  0
 30 31  1  0
 31 32  1  0
 32 33  1  0
 33 34  1  0
 34 35  1  0
 35 36  1  0
 31  5  1  0
 36 32  1  0
 30  7  1  0
 28 12  1  0
 23 16  1  0
 25 18  1  0
  1 37  1  0
  1 38  1  0
  1 39  1  0
  2 40  1  0
  6 41  1  0
  8 42  1  0
 11 43  1  0
 13 44  1  0
 14 45  1  0
 17 46  1  0
 17 47  1  0
 18 48  1  1
 19 49  1  0
 19 50  1  0
 20 51  1  0
 20 52  1  0
 21 53  1  6
 22 54  1  0
 22 55  1  0
 26 56  1  0
 26 57  1  0
 26 58  1  0
 27 59  1  0
 32 60  1  0
 33 61  1  0
 33 62  1  0
 34 63  1  0
 34 64  1  0
 35 65  1  0
 35 66  1  0
 36 67  1  0
 36 68  1  0
M  END
$$$$
