@<TRIPOS>MOLECULE
*****
 29 31 0 0 0
SMALL
GASTEIGER

@<TRIPOS>ATOM
      1 O           0.7606   -1.1929   -1.3509 O.2     1  UNL1       -0.2482
      2 C           0.5200   -0.3681   -0.4793 C.2     1  UNL1        0.3318
      3 N           1.5110    0.3874    0.1507 N.am    1  UNL1       -0.2664
      4 C           2.8949    0.2789   -0.1519 C.ar    1  UNL1        0.0350
      5 C           3.7923    1.0996    0.5574 C.ar    1  UNL1       -0.0404
      6 C           5.1276    1.0369    0.3080 C.ar    1  UNL1       -0.0600
      7 C           5.6544    0.1791   -0.6368 C.ar    1  UNL1       -0.0616
      8 C           4.8128   -0.6237   -1.3355 C.ar    1  UNL1       -0.0600
      9 C           3.4459   -0.5593   -1.0801 C.ar    1  UNL1       -0.0404
     10 N          -0.8458   -0.2007   -0.1194 N.ar    1  UNL1       -0.1980
     11 S          -1.4099    0.9413    1.1195 S.2     1  UNL1        0.0009
     12 C          -3.1455    0.5436    0.9565 C.ar    1  UNL1        0.0418
     13 C          -4.2771    1.0051    1.5826 C.ar    1  UNL1       -0.0459
     14 C          -5.5298    0.4878    1.2310 C.ar    1  UNL1       -0.0606
     15 C          -5.5531   -0.4750    0.2559 C.ar    1  UNL1       -0.0610
     16 C          -4.4146   -0.9134   -0.3477 C.ar    1  UNL1       -0.0483
     17 C          -3.1287   -0.4178   -0.0228 C.ar    1  UNL1        0.0555
     18 C          -1.9388   -0.7723   -0.5484 C.ar    1  UNL1        0.2735
     19 O          -1.8236   -1.6800   -1.4868 O.2     1  UNL1       -0.2660
     20 H           1.2085    1.0941    0.9109 H       1  UNL1        0.1566
     21 H           3.3966    1.7848    1.3086 H       1  UNL1        0.0636
     22 H           5.8451    1.6526    0.8339 H       1  UNL1        0.0618
     23 H           6.7321    0.1329   -0.8336 H       1  UNL1        0.0618
     24 H           5.2141   -1.3013   -2.0798 H       1  UNL1        0.0618
     25 H           2.8489   -1.2220   -1.6705 H       1  UNL1        0.0636
     26 H          -4.1947    1.7568    2.3350 H       1  UNL1        0.0629
     27 H          -6.4212    0.8388    1.7116 H       1  UNL1        0.0618
     28 H          -6.5394   -0.8734   -0.0119 H       1  UNL1        0.0618
     29 H          -4.5428   -1.6771   -1.1060 H       1  UNL1        0.0625
@<TRIPOS>BOND
     1     1     2    2
     2     2     3   am
     3     3     4    1
     4     4     5   ar
     5     5     6   ar
     6     6     7   ar
     7     7     8   ar
     8     8     9   ar
     9     2    10   am
    10    10    11   ar
    11    11    12   ar
    12    12    13   ar
    13    13    14   ar
    14    14    15   ar
    15    15    16   ar
    16    16    17   ar
    17    17    18   ar
    18    18    19    2
    19     9     4   ar
    20    18    10   ar
    21    17    12   ar
    22     3    20    1
    23     5    21    1
    24     6    22    1
    25     7    23    1
    26     8    24    1
    27     9    25    1
    28    13    26    1
    29    14    27    1
    30    15    28    1
    31    16    29    1
