
     RDKit          3D

 29 31  0  0  0  0  0  0  0  0999 V2000
    0.7606   -1.1929   -1.3509 O   0  0  0  0  0  0  0  0  0  0  0  0
    0.5200   -0.3681   -0.4793 C   0  0  0  0  0  0  0  0  0  0  0  0
    1.5110    0.3874    0.1507 N   0  0  0  0  0  0  0  0  0  0  0  0
    2.8949    0.2789   -0.1519 C   0  0  0  0  0  0  0  0  0  0  0  0
    3.7923    1.0996    0.5574 C   0  0  0  0  0  0  0  0  0  0  0  0
    5.1276    1.0369    0.3080 C   0  0  0  0  0  0  0  0  0  0  0  0
    5.6544    0.1791   -0.6368 C   0  0  0  0  0  0  0  0  0  0  0  0
    4.8128   -0.6237   -1.3355 C   0  0  0  0  0  0  0  0  0  0  0  0
    3.4459   -0.5593   -1.0801 C   0  0  0  0  0  0  0  0  0  0  0  0
   -0.8458   -0.2007   -0.1194 N   0  0  0  0  0  0  0  0  0  0  0  0
   -1.4099    0.9413    1.1195 S   0  0  0  0  0  0  0  0  0  0  0  0
   -3.1455    0.5436    0.9565 C   0  0  0  0  0  0  0  0  0  0  0  0
   -4.2771    1.0051    1.5826 C   0  0  0  0  0  0  0  0  0  0  0  0
   -5.5298    0.4878    1.2310 C   0  0  0  0  0  0  0  0  0  0  0  0
   -5.5531   -0.4750    0.2559 C   0  0  0  0  0  0  0  0  0  0  0  0
   -4.4146   -0.9134   -0.3477 C   0  0  0  0  0  0  0  0  0  0  0  0
   -3.1287   -0.4178   -0.0228 C   0  0  0  0  0  0  0  0  0  0  0  0
   -1.9388   -0.7723   -0.5484 C   0  0  0  0  0  0  0  0  0  0  0  0
   -1.8236   -1.6800   -1.4868 O   0  0  0  0  0  0  0  0  0  0  0  0
    1.2085    1.0941    0.9109 H   0  0  0  0  0  0  0  0  0  0  0  0
    3.3966    1.7848    1.3086 H   0  0  0  0  0  0  0  0  0  0  0  0
    5.8451    1.6526    0.8339 H   0  0  0  0  0  0  0  0  0  0  0  0
    6.7321    0.1329   -0.8336 H   0  0  0  0  0  0  0  0  0  0  0  0
    5.2141   -1.3013   -2.0798 H   0  0  0  0  0  0  0  0  0  0  0  0
    2.8489   -1.2220   -1.6705 H   0  0  0  0  0  0  0  0  0  0  0  0
   -4.1947    1.7568    2.3350 H   0  0  0  0  0  0  0  0  0  0  0  0
   -6.4212    0.8388    1.7116 H   0  0  0  0  0  0  0  0  0  0  0  0
   -6.5394   -0.8734   -0.0119 H   0  0  0  0  0  0  0  0  0  0  0  0
   -4.5428   -1.6771   -1.1060 H   0  0  0  0  0  0  0  0  0  0  0  0
  1  2  2  0
  2  3  1  0
  3  4  1  0
  4  5  2  0
  5  6  1  0
  6  7  2  0
  7  8  1  0
  8  9  2  0
  2 10  1  0
 10 11  1  0
 11 12  1  0
 12 13  2  0
 13 14  1  0
 14 15  2  0
 15 16  1  0
 16 17  2  0
 17 18  1  0
 18 19  2  0
  9  4  1  0
 18 10  1  0
 17 12  1  0
  3 20  1  0
  5 21  1  0
  6 22  1  0
  7 23  1  0
  8 24  1  0
  9 25  1  0
 13 26  1  0
 14 27  1  0
 15 28  1  0
 16 29  1  0
M  END
$$$$
