@<TRIPOS>MOLECULE
*****
 48 51 0 0 0
SMALL
GASTEIGER

@<TRIPOS>ATOM
      1 C          -5.2064    3.4412   -0.6974 C.3     1  UNL1        0.0001
      2 N          -4.5283    2.4191    0.0743 N.am    1  UNL1       -0.3172
      3 C          -3.7649    1.3863   -0.5287 C.2     1  UNL1        0.2296
      4 O          -3.7040    1.4007   -1.7916 O.2     1  UNL1       -0.2743
      5 C          -3.0573    0.3282    0.1967 C.3     1  UNL1        0.1052
      6 C          -1.9877    0.7246    1.1690 C.3     1  UNL1       -0.0220
      7 C          -1.6416   -0.0324   -0.0497 C.3     1  UNL1        0.0134
      8 C          -1.4493   -1.5034   -0.1046 C.3     1  UNL1        0.0935
      9 C          -2.3302   -2.0337   -1.2501 C.3     1  UNL1       -0.0351
     10 C          -0.0444   -1.8827   -0.4580 C.ar    1  UNL1        0.0158
     11 C           0.9923   -0.9805   -0.5618 C.ar    1  UNL1       -0.0463
     12 C           2.2757   -1.3823   -0.8864 C.ar    1  UNL1       -0.0217
     13 C           3.3818   -0.4391   -0.9914 C.2     1  UNL1       -0.0171
     14 C           3.5577    0.5696   -0.1714 C.2     1  UNL1        0.1506
     15 F           2.6068    0.6821    0.8194 F       1  UNL1       -0.2032
     16 C           4.6497    1.5345   -0.2414 C.ar    1  UNL1        0.1171
     17 C           5.6363    1.5121   -1.1893 C.ar    1  UNL1        0.0574
     18 N           6.6383    2.3904   -1.2526 N.ar    1  UNL1       -0.2398
     19 C           6.7031    3.3630   -0.3432 C.ar    1  UNL1        0.1472
     20 CL          8.0042    4.5473   -0.3820 Cl      1  UNL1       -0.0604
     21 C           5.7338    3.4448    0.6477 C.ar    1  UNL1        0.0651
     22 N           4.7370    2.5396    0.6799 N.ar    1  UNL1       -0.2482
     23 C           2.4747   -2.7301   -1.1035 C.ar    1  UNL1       -0.0518
     24 C           1.4788   -3.6783   -1.0144 C.ar    1  UNL1       -0.0255
     25 C           0.1977   -3.2211   -0.6825 C.ar    1  UNL1        0.1289
     26 F          -0.7966   -4.1454   -0.5905 F       1  UNL1       -0.2051
     27 N          -1.7382   -2.2255    1.1140 N.2     1  UNL1       -0.2521
     28 C          -2.9258   -2.1683    1.6015 C.2     1  UNL1        0.1485
     29 N          -3.3150   -2.8319    2.7781 N.pl3   1  UNL1       -0.3380
     30 S          -4.0656   -1.1316    0.6412 S.3     1  UNL1       -0.0746
     31 H          -5.8065    3.0510   -1.5175 H       1  UNL1        0.0426
     32 H          -4.4659    4.1541   -1.1578 H       1  UNL1        0.0426
     33 H          -5.8555    4.0316   -0.0202 H       1  UNL1        0.0426
     34 H          -4.5824    2.4112    1.1210 H       1  UNL1        0.1484
     35 H          -1.7315    1.8016    1.1906 H       1  UNL1        0.0287
     36 H          -1.9638    0.1511    2.1198 H       1  UNL1        0.0287
     37 H          -1.0954    0.5036   -0.8844 H       1  UNL1        0.0346
     38 H          -2.9350   -2.8764   -0.8479 H       1  UNL1        0.0256
     39 H          -1.7184   -2.3820   -2.0952 H       1  UNL1        0.0256
     40 H          -2.9784   -1.2341   -1.6576 H       1  UNL1        0.0256
     41 H           0.8004    0.0558   -0.3888 H       1  UNL1        0.0628
     42 H           4.1187   -0.5722   -1.8037 H       1  UNL1        0.0653
     43 H           5.6185    0.7430   -1.9394 H       1  UNL1        0.0853
     44 H           5.8227    4.2466    1.3647 H       1  UNL1        0.0860
     45 H           3.4874   -3.0430   -1.3591 H       1  UNL1        0.0624
     46 H           1.6388   -4.7225   -1.1831 H       1  UNL1        0.0646
     47 H          -2.7961   -3.7226    3.0111 H       1  UNL1        0.1442
     48 H          -4.0702   -2.4941    3.4114 H       1  UNL1        0.1442
@<TRIPOS>BOND
     1     1     2    1
     2     2     3   am
     3     3     4    2
     4     5     3    1
     5     5     6    1
     6     6     7    1
     7     7     8    1
     8     8     9    1
     9     8    10    1
    10    10    11   ar
    11    11    12   ar
    12    12    13    1
    13    13    14    2
    14    14    15    1
    15    14    16    1
    16    16    17   ar
    17    17    18   ar
    18    18    19   ar
    19    19    20    1
    20    19    21   ar
    21    21    22   ar
    22    12    23   ar
    23    23    24   ar
    24    24    25   ar
    25    25    26    1
    26     8    27    1
    27    27    28    2
    28    28    29    1
    29    28    30    1
    30     7     5    1
    31    25    10   ar
    32    30     5    1
    33    22    16   ar
    34     1    31    1
    35     1    32    1
    36     1    33    1
    37     2    34    1
    38     6    35    1
    39     6    36    1
    40     7    37    1
    41     9    38    1
    42     9    39    1
    43     9    40    1
    44    11    41    1
    45    13    42    1
    46    17    43    1
    47    21    44    1
    48    23    45    1
    49    24    46    1
    50    29    47    1
    51    29    48    1
