
     RDKit          3D

 48 51  0  0  0  0  0  0  0  0999 V2000
   -5.2064    3.4412   -0.6974 C   0  0  0  0  0  0  0  0  0  0  0  0
   -4.5283    2.4191    0.0743 N   0  0  0  0  0  0  0  0  0  0  0  0
   -3.7649    1.3863   -0.5287 C   0  0  0  0  0  0  0  0  0  0  0  0
   -3.7040    1.4007   -1.7916 O   0  0  0  0  0  0  0  0  0  0  0  0
   -3.0573    0.3282    0.1967 C   0  0  2  0  0  0  0  0  0  0  0  0
   -1.9877    0.7246    1.1690 C   0  0  0  0  0  0  0  0  0  0  0  0
   -1.6416   -0.0324   -0.0497 C   0  0  1  0  0  0  0  0  0  0  0  0
   -1.4493   -1.5034   -0.1046 C   0  0  1  0  0  0  0  0  0  0  0  0
   -2.3302   -2.0337   -1.2501 C   0  0  0  0  0  0  0  0  0  0  0  0
   -0.0444   -1.8827   -0.4580 C   0  0  0  0  0  0  0  0  0  0  0  0
    0.9923   -0.9805   -0.5618 C   0  0  0  0  0  0  0  0  0  0  0  0
    2.2757   -1.3823   -0.8864 C   0  0  0  0  0  0  0  0  0  0  0  0
    3.3818   -0.4391   -0.9914 C   0  0  0  0  0  0  0  0  0  0  0  0
    3.5577    0.5696   -0.1714 C   0  0  0  0  0  0  0  0  0  0  0  0
    2.6068    0.6821    0.8194 F   0  0  0  0  0  0  0  0  0  0  0  0
    4.6497    1.5345   -0.2414 C   0  0  0  0  0  0  0  0  0  0  0  0
    5.6363    1.5121   -1.1893 C   0  0  0  0  0  0  0  0  0  0  0  0
    6.6383    2.3904   -1.2526 N   0  0  0  0  0  0  0  0  0  0  0  0
    6.7031    3.3630   -0.3432 C   0  0  0  0  0  0  0  0  0  0  0  0
    8.0042    4.5473   -0.3820 Cl  0  0  0  0  0  0  0  0  0  0  0  0
    5.7338    3.4448    0.6477 C   0  0  0  0  0  0  0  0  0  0  0  0
    4.7370    2.5396    0.6799 N   0  0  0  0  0  0  0  0  0  0  0  0
    2.4747   -2.7301   -1.1035 C   0  0  0  0  0  0  0  0  0  0  0  0
    1.4788   -3.6783   -1.0144 C   0  0  0  0  0  0  0  0  0  0  0  0
    0.1977   -3.2211   -0.6825 C   0  0  0  0  0  0  0  0  0  0  0  0
   -0.7966   -4.1454   -0.5905 F   0  0  0  0  0  0  0  0  0  0  0  0
   -1.7382   -2.2255    1.1140 N   0  0  0  0  0  0  0  0  0  0  0  0
   -2.9258   -2.1683    1.6015 C   0  0  0  0  0  0  0  0  0  0  0  0
   -3.3150   -2.8319    2.7781 N   0  0  0  0  0  0  0  0  0  0  0  0
   -4.0656   -1.1316    0.6412 S   0  0  0  0  0  0  0  0  0  0  0  0
   -5.8065    3.0510   -1.5175 H   0  0  0  0  0  0  0  0  0  0  0  0
   -4.4659    4.1541   -1.1578 H   0  0  0  0  0  0  0  0  0  0  0  0
   -5.8555    4.0316   -0.0202 H   0  0  0  0  0  0  0  0  0  0  0  0
   -4.5824    2.4112    1.1210 H   0  0  0  0  0  0  0  0  0  0  0  0
   -1.7315    1.8016    1.1906 H   0  0  0  0  0  0  0  0  0  0  0  0
   -1.9638    0.1511    2.1198 H   0  0  0  0  0  0  0  0  0  0  0  0
   -1.0954    0.5036   -0.8844 H   0  0  0  0  0  0  0  0  0  0  0  0
   -2.9350   -2.8764   -0.8479 H   0  0  0  0  0  0  0  0  0  0  0  0
   -1.7184   -2.3820   -2.0952 H   0  0  0  0  0  0  0  0  0  0  0  0
   -2.9784   -1.2341   -1.6576 H   0  0  0  0  0  0  0  0  0  0  0  0
    0.8004    0.0558   -0.3888 H   0  0  0  0  0  0  0  0  0  0  0  0
    4.1187   -0.5722   -1.8037 H   0  0  0  0  0  0  0  0  0  0  0  0
    5.6185    0.7430   -1.9394 H   0  0  0  0  0  0  0  0  0  0  0  0
    5.8227    4.2466    1.3647 H   0  0  0  0  0  0  0  0  0  0  0  0
    3.4874   -3.0430   -1.3591 H   0  0  0  0  0  0  0  0  0  0  0  0
    1.6388   -4.7225   -1.1831 H   0  0  0  0  0  0  0  0  0  0  0  0
   -2.7961   -3.7226    3.0111 H   0  0  0  0  0  0  0  0  0  0  0  0
   -4.0702   -2.4941    3.4114 H   0  0  0  0  0  0  0  0  0  0  0  0
  1  2  1  0
  2  3  1  0
  3  4  2  0
  5  3  1  6
  5  6  1  0
  6  7  1  0
  7  8  1  0
  8  9  1  6
  8 10  1  0
 10 11  2  0
 11 12  1  0
 12 13  1  0
 13 14  2  0
 14 15  1  0
 14 16  1  0
 16 17  2  0
 17 18  1  0
 18 19  2  0
 19 20  1  0
 19 21  1  0
 21 22  2  0
 12 23  2  0
 23 24  1  0
 24 25  2  0
 25 26  1  0
  8 27  1  0
 27 28  2  0
 28 29  1  0
 28 30  1  0
  7  5  1  0
 25 10  1  0
 30  5  1  0
 22 16  1  0
  1 31  1  0
  1 32  1  0
  1 33  1  0
  2 34  1  0
  6 35  1  0
  6 36  1  0
  7 37  1  6
  9 38  1  0
  9 39  1  0
  9 40  1  0
 11 41  1  0
 13 42  1  0
 17 43  1  0
 21 44  1  0
 23 45  1  0
 24 46  1  0
 29 47  1  0
 29 48  1  0
M  END
$$$$
