
     RDKit          3D

 55 58  0  0  0  0  0  0  0  0999 V2000
    5.1689    1.7238   -0.2995 C   0  0  0  0  0  0  0  0  0  0  0  0
    4.7944    0.6527    0.5974 N   0  0  0  0  0  0  0  0  0  0  0  0
    3.8868    0.7800    1.6096 C   0  0  0  0  0  0  0  0  0  0  0  0
    3.1586    2.0166    1.9626 C   0  0  0  0  0  0  0  0  0  0  0  0
    1.9398    2.2272    1.2501 N   0  0  0  0  0  0  0  0  0  0  0  0
    0.7669    1.5060    1.4865 C   0  0  0  0  0  0  0  0  0  0  0  0
    0.6903    0.5775    2.5008 C   0  0  0  0  0  0  0  0  0  0  0  0
   -0.4777   -0.1488    2.7051 C   0  0  0  0  0  0  0  0  0  0  0  0
   -1.5783    0.0517    1.8936 C   0  0  0  0  0  0  0  0  0  0  0  0
   -1.5021    0.9911    0.8681 C   0  0  0  0  0  0  0  0  0  0  0  0
   -2.6279    1.2321   -0.0077 C   0  0  0  0  0  0  0  0  0  0  0  0
   -2.5172    2.1157   -0.9034 O   0  0  0  0  0  0  0  0  0  0  0  0
   -3.8524    0.5376    0.0747 N   0  0  0  0  0  0  0  0  0  0  0  0
   -4.9095    0.8604   -0.8512 C   0  0  0  0  0  0  0  0  0  0  0  0
   -6.1283    0.0595   -0.6945 C   0  0  0  0  0  0  0  0  0  0  0  0
   -7.2373    0.5940   -0.0400 C   0  0  0  0  0  0  0  0  0  0  0  0
   -8.4052   -0.1323    0.1369 C   0  0  0  0  0  0  0  0  0  0  0  0
   -8.5038   -1.4240   -0.3371 C   0  0  0  0  0  0  0  0  0  0  0  0
   -7.4219   -1.9692   -0.9853 C   0  0  0  0  0  0  0  0  0  0  0  0
   -6.2413   -1.2333   -1.1636 C   0  0  0  0  0  0  0  0  0  0  0  0
   -5.0865   -1.8266   -1.8711 C   0  0  0  0  0  0  0  0  0  0  0  0
   -4.7346   -1.1074   -2.9963 F   0  0  0  0  0  0  0  0  0  0  0  0
   -4.0196   -2.1179   -1.0500 F   0  0  0  0  0  0  0  0  0  0  0  0
   -5.5040   -3.0746   -2.3659 F   0  0  0  0  0  0  0  0  0  0  0  0
   -0.3535    1.7058    0.6661 C   0  0  0  0  0  0  0  0  0  0  0  0
    3.8371   -0.4204    2.1766 N   0  0  0  0  0  0  0  0  0  0  0  0
    4.6700   -1.2549    1.5519 N   0  0  0  0  0  0  0  0  0  0  0  0
    5.2767   -0.5939    0.5592 C   0  0  0  0  0  0  0  0  0  0  0  0
    6.2449   -1.1252   -0.3551 C   0  0  0  0  0  0  0  0  0  0  0  0
    5.8457   -2.1370   -1.2124 C   0  0  0  0  0  0  0  0  0  0  0  0
    6.7424   -2.6769   -2.1071 C   0  0  0  0  0  0  0  0  0  0  0  0
    7.9994   -2.2386   -2.1629 N   0  0  0  0  0  0  0  0  0  0  0  0
    8.4379   -1.2584   -1.3529 C   0  0  0  0  0  0  0  0  0  0  0  0
    7.5592   -0.7062   -0.4530 C   0  0  0  0  0  0  0  0  0  0  0  0
    4.9166    2.6893    0.1527 H   0  0  0  0  0  0  0  0  0  0  0  0
    6.2317    1.6284   -0.5372 H   0  0  0  0  0  0  0  0  0  0  0  0
    4.5368    1.5823   -1.2212 H   0  0  0  0  0  0  0  0  0  0  0  0
    3.8509    2.8932    1.8664 H   0  0  0  0  0  0  0  0  0  0  0  0
    2.8924    1.9602    3.0461 H   0  0  0  0  0  0  0  0  0  0  0  0
    1.9221    2.9670    0.5052 H   0  0  0  0  0  0  0  0  0  0  0  0
    1.4835    0.3703    3.1850 H   0  0  0  0  0  0  0  0  0  0  0  0
   -0.5384   -0.8787    3.5009 H   0  0  0  0  0  0  0  0  0  0  0  0
   -2.4943   -0.4981    2.0319 H   0  0  0  0  0  0  0  0  0  0  0  0
   -3.9996   -0.1888    0.7876 H   0  0  0  0  0  0  0  0  0  0  0  0
   -4.5066    0.8804   -1.8891 H   0  0  0  0  0  0  0  0  0  0  0  0
   -5.1630    1.9433   -0.6448 H   0  0  0  0  0  0  0  0  0  0  0  0
   -7.1756    1.6175    0.3422 H   0  0  0  0  0  0  0  0  0  0  0  0
   -9.2778    0.2632    0.6419 H   0  0  0  0  0  0  0  0  0  0  0  0
   -9.4108   -1.9869   -0.1992 H   0  0  0  0  0  0  0  0  0  0  0  0
   -7.4606   -2.9896   -1.3755 H   0  0  0  0  0  0  0  0  0  0  0  0
   -0.2969    2.4250   -0.1195 H   0  0  0  0  0  0  0  0  0  0  0  0
    4.8328   -2.5075   -1.1844 H   0  0  0  0  0  0  0  0  0  0  0  0
    6.3682   -3.4762   -2.7608 H   0  0  0  0  0  0  0  0  0  0  0  0
    9.4664   -0.9569   -1.4561 H   0  0  0  0  0  0  0  0  0  0  0  0
    7.9046    0.0767    0.1965 H   0  0  0  0  0  0  0  0  0  0  0  0
  1  2  1  0
  2  3  1  0
  3  4  1  0
  4  5  1  0
  5  6  1  0
  6  7  2  0
  7  8  1  0
  8  9  2  0
  9 10  1  0
 10 11  1  0
 11 12  2  0
 11 13  1  0
 13 14  1  0
 14 15  1  0
 15 16  2  0
 16 17  1  0
 17 18  2  0
 18 19  1  0
 19 20  2  0
 20 21  1  0
 21 22  1  0
 21 23  1  0
 21 24  1  0
 10 25  2  0
  3 26  2  0
 26 27  1  0
 27 28  2  0
 28 29  1  0
 29 30  2  0
 30 31  1  0
 31 32  2  0
 32 33  1  0
 33 34  2  0
 28  2  1  0
 34 29  1  0
 25  6  1  0
 20 15  1  0
  1 35  1  0
  1 36  1  0
  1 37  1  0
  4 38  1  0
  4 39  1  0
  5 40  1  0
  7 41  1  0
  8 42  1  0
  9 43  1  0
 13 44  1  0
 14 45  1  0
 14 46  1  0
 16 47  1  0
 17 48  1  0
 18 49  1  0
 19 50  1  0
 25 51  1  0
 30 52  1  0
 31 53  1  0
 33 54  1  0
 34 55  1  0
M  END
$$$$
