@<TRIPOS>MOLECULE
*****
 55 58 0 0 0
SMALL
GASTEIGER

@<TRIPOS>ATOM
      1 C           5.1689    1.7238   -0.2995 C.3     1  UNL1        0.0150
      2 N           4.7944    0.6527    0.5974 N.ar    1  UNL1       -0.3127
      3 C           3.8868    0.7800    1.6096 C.ar    1  UNL1        0.1506
      4 C           3.1586    2.0166    1.9626 C.3     1  UNL1        0.0692
      5 N           1.9398    2.2272    1.2501 N.pl3   1  UNL1       -0.3367
      6 C           0.7669    1.5060    1.4865 C.ar    1  UNL1        0.0282
      7 C           0.6903    0.5775    2.5008 C.ar    1  UNL1       -0.0408
      8 C          -0.4777   -0.1488    2.7051 C.ar    1  UNL1       -0.0593
      9 C          -1.5783    0.0517    1.8936 C.ar    1  UNL1       -0.0495
     10 C          -1.5021    0.9911    0.8681 C.ar    1  UNL1        0.0384
     11 C          -2.6279    1.2321   -0.0077 C.2     1  UNL1        0.2444
     12 O          -2.5172    2.1157   -0.9034 O.2     1  UNL1       -0.2702
     13 N          -3.8524    0.5376    0.0747 N.am    1  UNL1       -0.3072
     14 C          -4.9095    0.8604   -0.8512 C.3     1  UNL1        0.0377
     15 C          -6.1283    0.0595   -0.6945 C.ar    1  UNL1       -0.0187
     16 C          -7.2373    0.5940   -0.0400 C.ar    1  UNL1       -0.0565
     17 C          -8.4052   -0.1323    0.1369 C.ar    1  UNL1       -0.0614
     18 C          -8.5038   -1.4240   -0.3371 C.ar    1  UNL1       -0.0612
     19 C          -7.4219   -1.9692   -0.9853 C.ar    1  UNL1       -0.0498
     20 C          -6.2413   -1.2333   -1.1636 C.ar    1  UNL1        0.0595
     21 C          -5.0865   -1.8266   -1.8711 C.3     1  UNL1        0.4177
     22 F          -4.7346   -1.1074   -2.9963 F       1  UNL1       -0.1659
     23 F          -4.0196   -2.1179   -1.0500 F       1  UNL1       -0.1659
     24 F          -5.5040   -3.0746   -2.3659 F       1  UNL1       -0.1659
     25 C          -0.3535    1.7058    0.6661 C.ar    1  UNL1       -0.0287
     26 N           3.8371   -0.4204    2.1766 N.ar    1  UNL1       -0.1324
     27 N           4.6700   -1.2549    1.5519 N.ar    1  UNL1       -0.1291
     28 C           5.2767   -0.5939    0.5592 C.ar    1  UNL1        0.1641
     29 C           6.2449   -1.1252   -0.3551 C.ar    1  UNL1        0.0221
     30 C           5.8457   -2.1370   -1.2124 C.ar    1  UNL1       -0.0329
     31 C           6.7424   -2.6769   -2.1071 C.ar    1  UNL1        0.0282
     32 N           7.9994   -2.2386   -2.1629 N.ar    1  UNL1       -0.2632
     33 C           8.4379   -1.2584   -1.3529 C.ar    1  UNL1        0.0282
     34 C           7.5592   -0.7062   -0.4530 C.ar    1  UNL1       -0.0329
     35 H           4.9166    2.6893    0.1527 H       1  UNL1        0.0457
     36 H           6.2317    1.6284   -0.5372 H       1  UNL1        0.0457
     37 H           4.5368    1.5823   -1.2212 H       1  UNL1        0.0457
     38 H           3.8509    2.8932    1.8664 H       1  UNL1        0.0542
     39 H           2.8924    1.9602    3.0461 H       1  UNL1        0.0542
     40 H           1.9221    2.9670    0.5052 H       1  UNL1        0.1465
     41 H           1.4835    0.3703    3.1850 H       1  UNL1        0.0636
     42 H          -0.5384   -0.8787    3.5009 H       1  UNL1        0.0618
     43 H          -2.4943   -0.4981    2.0319 H       1  UNL1        0.0625
     44 H          -3.9996   -0.1888    0.7876 H       1  UNL1        0.1493
     45 H          -4.5066    0.8804   -1.8891 H       1  UNL1        0.0512
     46 H          -5.1630    1.9433   -0.6448 H       1  UNL1        0.0512
     47 H          -7.1756    1.6175    0.3422 H       1  UNL1        0.0621
     48 H          -9.2778    0.2632    0.6419 H       1  UNL1        0.0618
     49 H          -9.4108   -1.9869   -0.1992 H       1  UNL1        0.0618
     50 H          -7.4606   -2.9896   -1.3755 H       1  UNL1        0.0623
     51 H          -0.2969    2.4250   -0.1195 H       1  UNL1        0.0643
     52 H           4.8328   -2.5075   -1.1844 H       1  UNL1        0.0640
     53 H           6.3682   -3.4762   -2.7608 H       1  UNL1        0.0830
     54 H           9.4664   -0.9569   -1.4561 H       1  UNL1        0.0830
     55 H           7.9046    0.0767    0.1965 H       1  UNL1        0.0640
@<TRIPOS>BOND
     1     1     2    1
     2     2     3   ar
     3     3     4    1
     4     4     5    1
     5     5     6    1
     6     6     7   ar
     7     7     8   ar
     8     8     9   ar
     9     9    10   ar
    10    10    11    1
    11    11    12    2
    12    11    13   am
    13    13    14    1
    14    14    15    1
    15    15    16   ar
    16    16    17   ar
    17    17    18   ar
    18    18    19   ar
    19    19    20   ar
    20    20    21    1
    21    21    22    1
    22    21    23    1
    23    21    24    1
    24    10    25   ar
    25     3    26   ar
    26    26    27   ar
    27    27    28   ar
    28    28    29    1
    29    29    30   ar
    30    30    31   ar
    31    31    32   ar
    32    32    33   ar
    33    33    34   ar
    34    28     2   ar
    35    34    29   ar
    36    25     6   ar
    37    20    15   ar
    38     1    35    1
    39     1    36    1
    40     1    37    1
    41     4    38    1
    42     4    39    1
    43     5    40    1
    44     7    41    1
    45     8    42    1
    46     9    43    1
    47    13    44    1
    48    14    45    1
    49    14    46    1
    50    16    47    1
    51    17    48    1
    52    18    49    1
    53    19    50    1
    54    25    51    1
    55    30    52    1
    56    31    53    1
    57    33    54    1
    58    34    55    1
