@<TRIPOS>MOLECULE
*****
 46 48 0 0 0
SMALL
GASTEIGER

@<TRIPOS>ATOM
      1 C          -2.6977   -3.4511   -2.2049 C.3     1  UNL1       -0.0570
      2 C          -2.4300   -2.5023   -1.0710 C.3     1  UNL1        0.0217
      3 C          -1.0000   -2.5887   -0.6204 C.2     1  UNL1        0.2198
      4 O          -0.2138   -3.3941   -1.1970 O.2     1  UNL1       -0.2753
      5 N          -0.5987   -1.7556    0.4388 N.am    1  UNL1       -0.2670
      6 C           0.7657   -1.8084    0.8946 C.3     1  UNL1        0.0448
      7 C           1.6675   -0.8768    0.2248 C.ar    1  UNL1       -0.0296
      8 C           2.3392   -1.2657   -0.9069 C.ar    1  UNL1       -0.0553
      9 C           3.1974   -0.3615   -1.5355 C.ar    1  UNL1       -0.0366
     10 C           3.3681    0.9083   -1.0245 C.ar    1  UNL1        0.0879
     11 S           4.4627    2.0155   -1.8532 S.O2    1  UNL1       -0.0059
     12 C           6.0801    1.8162   -1.1728 C.3     1  UNL1        0.0596
     13 O           4.4086    1.7375   -3.3205 O.2     1  UNL1       -0.1696
     14 O           3.9760    3.4269   -1.6233 O.2     1  UNL1       -0.1696
     15 C           2.7004    1.3039    0.1058 C.ar    1  UNL1       -0.0366
     16 C           1.8452    0.3899    0.7246 C.ar    1  UNL1       -0.0553
     17 C          -1.5104   -0.8814    1.0471 C.ar    1  UNL1        0.0400
     18 C          -2.2452   -1.3196    2.1265 C.ar    1  UNL1       -0.0050
     19 C          -3.1656   -0.4772    2.7613 C.ar    1  UNL1        0.1258
     20 F          -3.8626   -0.9697    3.8246 F       1  UNL1       -0.2054
     21 C          -3.3619    0.8070    2.3274 C.ar    1  UNL1       -0.0156
     22 C          -2.6383    1.2671    1.2498 C.ar    1  UNL1        0.0249
     23 C          -2.8337    2.6374    0.7705 C.ar    1  UNL1        0.1795
     24 N          -2.2123    3.2326   -0.2579 N.ar    1  UNL1       -0.1084
     25 N          -2.6570    4.4799   -0.3843 N.ar    1  UNL1       -0.0229
     26 N          -3.5511    4.6751    0.5536 N.ar    1  UNL1       -0.0464
     27 N          -3.6708    3.5527    1.2711 N.ar    1  UNL1       -0.2388
     28 C          -1.7327    0.4139    0.6377 C.ar    1  UNL1       -0.0293
     29 H          -3.0324   -4.4128   -1.7590 H       1  UNL1        0.0234
     30 H          -1.7815   -3.6861   -2.7907 H       1  UNL1        0.0234
     31 H          -3.5121   -3.0568   -2.8426 H       1  UNL1        0.0234
     32 H          -2.6362   -1.4721   -1.4251 H       1  UNL1        0.0356
     33 H          -3.0611   -2.7042   -0.1818 H       1  UNL1        0.0356
     34 H           1.1234   -2.8727    0.7639 H       1  UNL1        0.0518
     35 H           0.7432   -1.6682    2.0003 H       1  UNL1        0.0518
     36 H           2.2645   -2.2297   -1.3677 H       1  UNL1        0.0621
     37 H           3.7292   -0.6527   -2.4218 H       1  UNL1        0.0637
     38 H           5.9792    1.6225   -0.0781 H       1  UNL1        0.0468
     39 H           6.6869    2.7323   -1.3561 H       1  UNL1        0.0468
     40 H           6.5651    0.9318   -1.6165 H       1  UNL1        0.0468
     41 H           2.8591    2.2920    0.4686 H       1  UNL1        0.0637
     42 H           1.3439    0.7620    1.6170 H       1  UNL1        0.0621
     43 H          -2.1354   -2.3051    2.5068 H       1  UNL1        0.0665
     44 H          -4.0836    1.4692    2.8243 H       1  UNL1        0.0653
     45 H          -4.3333    3.4815    2.0773 H       1  UNL1        0.1923
     46 H          -1.1480    0.7572   -0.2183 H       1  UNL1        0.0643
@<TRIPOS>BOND
     1     1     2    1
     2     2     3    1
     3     3     4    2
     4     3     5   am
     5     5     6    1
     6     6     7    1
     7     7     8   ar
     8     8     9   ar
     9     9    10   ar
    10    10    11    1
    11    11    12    1
    12    11    13    2
    13    11    14    2
    14    10    15   ar
    15    15    16   ar
    16     5    17    1
    17    17    18   ar
    18    18    19   ar
    19    19    20    1
    20    19    21   ar
    21    21    22   ar
    22    22    23    1
    23    23    24   ar
    24    24    25   ar
    25    25    26   ar
    26    26    27   ar
    27    22    28   ar
    28    16     7   ar
    29    28    17   ar
    30    27    23   ar
    31     1    29    1
    32     1    30    1
    33     1    31    1
    34     2    32    1
    35     2    33    1
    36     6    34    1
    37     6    35    1
    38     8    36    1
    39     9    37    1
    40    12    38    1
    41    12    39    1
    42    12    40    1
    43    15    41    1
    44    16    42    1
    45    18    43    1
    46    21    44    1
    47    27    45    1
    48    28    46    1
