
     RDKit          3D

 46 48  0  0  0  0  0  0  0  0999 V2000
   -2.6977   -3.4511   -2.2049 C   0  0  0  0  0  0  0  0  0  0  0  0
   -2.4300   -2.5023   -1.0710 C   0  0  0  0  0  0  0  0  0  0  0  0
   -1.0000   -2.5887   -0.6204 C   0  0  0  0  0  0  0  0  0  0  0  0
   -0.2138   -3.3941   -1.1970 O   0  0  0  0  0  0  0  0  0  0  0  0
   -0.5987   -1.7556    0.4388 N   0  0  0  0  0  0  0  0  0  0  0  0
    0.7657   -1.8084    0.8946 C   0  0  0  0  0  0  0  0  0  0  0  0
    1.6675   -0.8768    0.2248 C   0  0  0  0  0  0  0  0  0  0  0  0
    2.3392   -1.2657   -0.9069 C   0  0  0  0  0  0  0  0  0  0  0  0
    3.1974   -0.3615   -1.5355 C   0  0  0  0  0  0  0  0  0  0  0  0
    3.3681    0.9083   -1.0245 C   0  0  0  0  0  0  0  0  0  0  0  0
    4.4627    2.0155   -1.8532 S   0  0  0  0  0  6  0  0  0  0  0  0
    6.0801    1.8162   -1.1728 C   0  0  0  0  0  0  0  0  0  0  0  0
    4.4086    1.7375   -3.3205 O   0  0  0  0  0  0  0  0  0  0  0  0
    3.9760    3.4269   -1.6233 O   0  0  0  0  0  0  0  0  0  0  0  0
    2.7004    1.3039    0.1058 C   0  0  0  0  0  0  0  0  0  0  0  0
    1.8452    0.3899    0.7246 C   0  0  0  0  0  0  0  0  0  0  0  0
   -1.5104   -0.8814    1.0471 C   0  0  0  0  0  0  0  0  0  0  0  0
   -2.2452   -1.3196    2.1265 C   0  0  0  0  0  0  0  0  0  0  0  0
   -3.1656   -0.4772    2.7613 C   0  0  0  0  0  0  0  0  0  0  0  0
   -3.8626   -0.9697    3.8246 F   0  0  0  0  0  0  0  0  0  0  0  0
   -3.3619    0.8070    2.3274 C   0  0  0  0  0  0  0  0  0  0  0  0
   -2.6383    1.2671    1.2498 C   0  0  0  0  0  0  0  0  0  0  0  0
   -2.8337    2.6374    0.7705 C   0  0  0  0  0  0  0  0  0  0  0  0
   -2.2123    3.2326   -0.2579 N   0  0  0  0  0  0  0  0  0  0  0  0
   -2.6570    4.4799   -0.3843 N   0  0  0  0  0  0  0  0  0  0  0  0
   -3.5511    4.6751    0.5536 N   0  0  0  0  0  0  0  0  0  0  0  0
   -3.6708    3.5527    1.2711 N   0  0  0  0  0  0  0  0  0  0  0  0
   -1.7327    0.4139    0.6377 C   0  0  0  0  0  0  0  0  0  0  0  0
   -3.0324   -4.4128   -1.7590 H   0  0  0  0  0  0  0  0  0  0  0  0
   -1.7815   -3.6861   -2.7907 H   0  0  0  0  0  0  0  0  0  0  0  0
   -3.5121   -3.0568   -2.8426 H   0  0  0  0  0  0  0  0  0  0  0  0
   -2.6362   -1.4721   -1.4251 H   0  0  0  0  0  0  0  0  0  0  0  0
   -3.0611   -2.7042   -0.1818 H   0  0  0  0  0  0  0  0  0  0  0  0
    1.1234   -2.8727    0.7639 H   0  0  0  0  0  0  0  0  0  0  0  0
    0.7432   -1.6682    2.0003 H   0  0  0  0  0  0  0  0  0  0  0  0
    2.2645   -2.2297   -1.3677 H   0  0  0  0  0  0  0  0  0  0  0  0
    3.7292   -0.6527   -2.4218 H   0  0  0  0  0  0  0  0  0  0  0  0
    5.9792    1.6225   -0.0781 H   0  0  0  0  0  0  0  0  0  0  0  0
    6.6869    2.7323   -1.3561 H   0  0  0  0  0  0  0  0  0  0  0  0
    6.5651    0.9318   -1.6165 H   0  0  0  0  0  0  0  0  0  0  0  0
    2.8591    2.2920    0.4686 H   0  0  0  0  0  0  0  0  0  0  0  0
    1.3439    0.7620    1.6170 H   0  0  0  0  0  0  0  0  0  0  0  0
   -2.1354   -2.3051    2.5068 H   0  0  0  0  0  0  0  0  0  0  0  0
   -4.0836    1.4692    2.8243 H   0  0  0  0  0  0  0  0  0  0  0  0
   -4.3333    3.4815    2.0773 H   0  0  0  0  0  0  0  0  0  0  0  0
   -1.1480    0.7572   -0.2183 H   0  0  0  0  0  0  0  0  0  0  0  0
  1  2  1  0
  2  3  1  0
  3  4  2  0
  3  5  1  0
  5  6  1  0
  6  7  1  0
  7  8  2  0
  8  9  1  0
  9 10  2  0
 10 11  1  0
 11 12  1  0
 11 13  2  0
 11 14  2  0
 10 15  1  0
 15 16  2  0
  5 17  1  0
 17 18  2  0
 18 19  1  0
 19 20  1  0
 19 21  2  0
 21 22  1  0
 22 23  1  0
 23 24  2  0
 24 25  1  0
 25 26  2  0
 26 27  1  0
 22 28  2  0
 16  7  1  0
 28 17  1  0
 27 23  1  0
  1 29  1  0
  1 30  1  0
  1 31  1  0
  2 32  1  0
  2 33  1  0
  6 34  1  0
  6 35  1  0
  8 36  1  0
  9 37  1  0
 12 38  1  0
 12 39  1  0
 12 40  1  0
 15 41  1  0
 16 42  1  0
 18 43  1  0
 21 44  1  0
 27 45  1  0
 28 46  1  0
M  END
$$$$
