@<TRIPOS>MOLECULE
*****
 55 55 0 0 0
SMALL
GASTEIGER

@<TRIPOS>ATOM
      1 C           8.7160   -0.5281   -1.0069 C.3     1  UNL1       -0.0653
      2 C           7.2224   -0.2546   -1.0498 C.3     1  UNL1       -0.0558
      3 C           6.4805   -1.1232   -0.0803 C.3     1  UNL1       -0.0512
      4 C           5.0053   -0.8273   -0.1570 C.3     1  UNL1       -0.0295
      5 C           4.6690    0.5931    0.1704 C.3     1  UNL1        0.0477
      6 O           3.3157    0.8616    0.1036 O.3     1  UNL1       -0.3798
      7 C           2.5336    0.1196    0.9554 C.3     1  UNL1        0.0477
      8 C           1.0858    0.5770    0.7171 C.3     1  UNL1       -0.0294
      9 C           0.1511   -0.1939    1.6204 C.3     1  UNL1       -0.0498
     10 C          -1.2909    0.2306    1.4258 C.3     1  UNL1       -0.0401
     11 C          -1.7665    0.0052    0.0328 C.3     1  UNL1       -0.0006
     12 N          -3.1323    0.4223   -0.1642 N.3     1  UNL1       -0.2923
     13 C          -3.4074    0.1361   -1.5912 C.3     1  UNL1        0.0279
     14 C          -4.7349    0.7865   -1.8888 C.3     1  UNL1        0.0962
     15 O          -4.7225    2.1006   -1.4337 O.3     1  UNL1       -0.3879
     16 C          -5.7966    0.0095   -1.1497 C.3     1  UNL1        0.1095
     17 O          -6.4856   -0.8179   -2.0359 O.3     1  UNL1       -0.3866
     18 C          -5.2089   -0.8770   -0.0814 C.3     1  UNL1        0.1011
     19 O          -6.2246   -1.1553    0.8294 O.3     1  UNL1       -0.3875
     20 C          -4.0936   -0.1846    0.6830 C.3     1  UNL1        0.0621
     21 C          -4.7717    0.7509    1.6601 C.3     1  UNL1        0.0622
     22 O          -3.9367    1.3909    2.5325 O.3     1  UNL1       -0.3934
     23 H           8.8703   -1.6362   -0.9421 H       1  UNL1        0.0230
     24 H           9.1680    0.0040   -0.1603 H       1  UNL1        0.0230
     25 H           9.1525   -0.2118   -1.9680 H       1  UNL1        0.0230
     26 H           7.1080    0.8152   -0.7651 H       1  UNL1        0.0263
     27 H           6.8320   -0.4269   -2.0596 H       1  UNL1        0.0263
     28 H           6.6837   -2.1735   -0.3320 H       1  UNL1        0.0266
     29 H           6.8618   -0.9671    0.9524 H       1  UNL1        0.0266
     30 H           4.6354   -1.1191   -1.1607 H       1  UNL1        0.0287
     31 H           4.5146   -1.4894    0.5890 H       1  UNL1        0.0287
     32 H           5.1462    1.2657   -0.5910 H       1  UNL1        0.0560
     33 H           5.0701    0.8774    1.1460 H       1  UNL1        0.0560
     34 H           2.5563   -0.9669    0.7821 H       1  UNL1        0.0560
     35 H           2.7902    0.3475    2.0112 H       1  UNL1        0.0560
     36 H           1.0889    1.6614    0.9885 H       1  UNL1        0.0287
     37 H           0.8396    0.5207   -0.3437 H       1  UNL1        0.0287
     38 H           0.3080   -1.2693    1.5493 H       1  UNL1        0.0266
     39 H           0.4009    0.0880    2.6831 H       1  UNL1        0.0266
     40 H          -1.3330    1.3160    1.6335 H       1  UNL1        0.0278
     41 H          -1.9314   -0.3620    2.1237 H       1  UNL1        0.0278
     42 H          -1.1317    0.5819   -0.6758 H       1  UNL1        0.0427
     43 H          -1.6879   -1.0797   -0.2638 H       1  UNL1        0.0427
     44 H          -2.6050    0.6507   -2.1567 H       1  UNL1        0.0453
     45 H          -3.4544   -0.9411   -1.7729 H       1  UNL1        0.0453
     46 H          -4.9442    0.8343   -2.9778 H       1  UNL1        0.0633
     47 H          -5.6325    2.3769   -1.0934 H       1  UNL1        0.2099
     48 H          -6.5308    0.7211   -0.7249 H       1  UNL1        0.0646
     49 H          -7.4433   -0.6169   -2.0980 H       1  UNL1        0.2100
     50 H          -4.8564   -1.8449   -0.4858 H       1  UNL1        0.0636
     51 H          -5.9494   -1.9823    1.3321 H       1  UNL1        0.2100
     52 H          -3.6130   -0.9841    1.2699 H       1  UNL1        0.0511
     53 H          -5.3818    1.5173    1.1446 H       1  UNL1        0.0573
     54 H          -5.5151    0.1886    2.2937 H       1  UNL1        0.0573
     55 H          -3.6236    2.2823    2.2425 H       1  UNL1        0.2095
@<TRIPOS>BOND
     1     1     2    1
     2     2     3    1
     3     3     4    1
     4     4     5    1
     5     5     6    1
     6     6     7    1
     7     7     8    1
     8     8     9    1
     9     9    10    1
    10    10    11    1
    11    11    12    1
    12    12    13    1
    13    13    14    1
    14    14    15    1
    15    14    16    1
    16    16    17    1
    17    16    18    1
    18    18    19    1
    19    18    20    1
    20    20    21    1
    21    21    22    1
    22    20    12    1
    23     1    23    1
    24     1    24    1
    25     1    25    1
    26     2    26    1
    27     2    27    1
    28     3    28    1
    29     3    29    1
    30     4    30    1
    31     4    31    1
    32     5    32    1
    33     5    33    1
    34     7    34    1
    35     7    35    1
    36     8    36    1
    37     8    37    1
    38     9    38    1
    39     9    39    1
    40    10    40    1
    41    10    41    1
    42    11    42    1
    43    11    43    1
    44    13    44    1
    45    13    45    1
    46    14    46    1
    47    15    47    1
    48    16    48    1
    49    17    49    1
    50    18    50    1
    51    19    51    1
    52    20    52    1
    53    21    53    1
    54    21    54    1
    55    22    55    1
