
     RDKit          3D

 43 47  0  0  0  0  0  0  0  0999 V2000
   -2.9555   -4.0331    2.4525 N   0  0  0  0  0  0  0  0  0  0  0  0
   -2.2907   -4.0044    1.4953 C   0  0  0  0  0  0  0  0  0  0  0  0
   -1.4798   -3.9920    0.3100 C   0  0  0  0  0  0  0  0  0  0  0  0
   -1.2052   -5.0293   -0.5550 C   0  0  0  0  0  0  0  0  0  0  0  0
   -0.4023   -4.5868   -1.5376 N   0  0  0  0  0  0  0  0  0  0  0  0
   -0.1524   -3.2967   -1.3307 C   0  0  0  0  0  0  0  0  0  0  0  0
    0.6141   -2.3828   -2.0504 C   0  0  0  0  0  0  0  0  0  0  0  0
    0.6672   -1.0988   -1.5571 C   0  0  0  0  0  0  0  0  0  0  0  0
   -0.0009   -0.7250   -0.4093 C   0  0  0  0  0  0  0  0  0  0  0  0
    0.1006    0.6261    0.0427 C   0  0  0  0  0  0  0  0  0  0  0  0
    1.1955    1.3243    0.4527 C   0  0  0  0  0  0  0  0  0  0  0  0
    2.5735    0.8600    0.5361 C   0  0  0  0  0  0  0  0  0  0  0  0
    3.5154    1.5075   -0.2376 C   0  0  0  0  0  0  0  0  0  0  0  0
    4.8199    1.0966   -0.1833 C   0  0  0  0  0  0  0  0  0  0  0  0
    5.2072    0.0440    0.6340 C   0  0  0  0  0  0  0  0  0  0  0  0
    6.4948   -0.3870    0.7094 F   0  0  0  0  0  0  0  0  0  0  0  0
    4.2246   -0.5768    1.3940 C   0  0  0  0  0  0  0  0  0  0  0  0
    4.6783   -1.8999    2.4287 Cl  0  0  0  0  0  0  0  0  0  0  0  0
    2.9167   -0.1802    1.3529 C   0  0  0  0  0  0  0  0  0  0  0  0
    0.8557    2.5848    0.8010 N   0  0  0  0  0  0  0  0  0  0  0  0
   -0.4596    2.6807    0.6093 C   0  0  0  0  0  0  0  0  0  0  0  0
   -0.9240    1.4886    0.1470 N   0  0  0  0  0  0  0  0  0  0  0  0
   -2.3088    1.3030   -0.1473 C   0  0  0  0  0  0  0  0  0  0  0  0
   -2.6809    2.2498   -1.2712 C   0  0  0  0  0  0  0  0  0  0  0  0
   -3.6450    3.2156   -0.6549 C   0  0  0  0  0  0  0  0  0  0  0  0
   -3.5919    3.0564    0.7077 O   0  0  0  0  0  0  0  0  0  0  0  0
   -3.1293    1.8014    1.0028 C   0  0  0  0  0  0  0  0  0  0  0  0
   -0.7186   -1.6817    0.2195 N   0  0  0  0  0  0  0  0  0  0  0  0
   -0.8014   -2.9270   -0.2128 N   0  0  0  0  0  0  0  0  0  0  0  0
   -1.5613   -6.0450   -0.4839 H   0  0  0  0  0  0  0  0  0  0  0  0
    1.1385   -2.6688   -2.9480 H   0  0  0  0  0  0  0  0  0  0  0  0
    1.2669   -0.3587   -2.1090 H   0  0  0  0  0  0  0  0  0  0  0  0
    3.2182    2.3286   -0.8763 H   0  0  0  0  0  0  0  0  0  0  0  0
    5.6014    1.5845   -0.7828 H   0  0  0  0  0  0  0  0  0  0  0  0
    2.1879   -0.6764    1.9475 H   0  0  0  0  0  0  0  0  0  0  0  0
   -1.0360    3.5921    0.8052 H   0  0  0  0  0  0  0  0  0  0  0  0
   -2.5866    0.2901   -0.4661 H   0  0  0  0  0  0  0  0  0  0  0  0
   -3.1055    1.7166   -2.1354 H   0  0  0  0  0  0  0  0  0  0  0  0
   -1.7938    2.8175   -1.6377 H   0  0  0  0  0  0  0  0  0  0  0  0
   -3.3528    4.2806   -0.8785 H   0  0  0  0  0  0  0  0  0  0  0  0
   -4.6609    3.0982   -1.0830 H   0  0  0  0  0  0  0  0  0  0  0  0
   -2.4817    1.8885    1.9190 H   0  0  0  0  0  0  0  0  0  0  0  0
   -3.9513    1.1147    1.2876 H   0  0  0  0  0  0  0  0  0  0  0  0
  1  2  3  0
  2  3  1  0
  3  4  2  0
  4  5  1  0
  5  6  2  0
  6  7  1  0
  7  8  2  0
  8  9  1  0
  9 10  1  0
 10 11  2  0
 11 12  1  0
 12 13  2  0
 13 14  1  0
 14 15  2  0
 15 16  1  0
 15 17  1  0
 17 18  1  0
 17 19  2  0
 11 20  1  0
 20 21  2  0
 21 22  1  0
 22 23  1  0
 23 24  1  0
 24 25  1  0
 25 26  1  0
 26 27  1  0
  9 28  2  0
 28 29  1  0
 29  3  1  0
 29  6  1  0
 22 10  1  0
 27 23  1  0
 19 12  1  0
  4 30  1  0
  7 31  1  0
  8 32  1  0
 13 33  1  0
 14 34  1  0
 19 35  1  0
 21 36  1  0
 23 37  1  0
 24 38  1  0
 24 39  1  0
 25 40  1  0
 25 41  1  0
 27 42  1  0
 27 43  1  0
M  END
$$$$
