@<TRIPOS>MOLECULE
*****
 43 47 0 0 0
SMALL
GASTEIGER

@<TRIPOS>ATOM
      1 N          -2.9555   -4.0331    2.4525 N.1     1  UNL1       -0.1892
      2 C          -2.2907   -4.0044    1.4953 C.1     1  UNL1        0.1208
      3 C          -1.4798   -3.9920    0.3100 C.ar    1  UNL1        0.1618
      4 C          -1.2052   -5.0293   -0.5550 C.ar    1  UNL1        0.0659
      5 N          -0.4023   -4.5868   -1.5376 N.ar    1  UNL1       -0.2333
      6 C          -0.1524   -3.2967   -1.3307 C.ar    1  UNL1        0.1555
      7 C           0.6141   -2.3828   -2.0504 C.ar    1  UNL1       -0.0153
      8 C           0.6672   -1.0988   -1.5571 C.ar    1  UNL1       -0.0290
      9 C          -0.0009   -0.7250   -0.4093 C.ar    1  UNL1        0.1103
     10 C           0.1006    0.6261    0.0427 C.ar    1  UNL1        0.0969
     11 C           1.1955    1.3243    0.4527 C.ar    1  UNL1        0.0983
     12 C           2.5735    0.8600    0.5361 C.ar    1  UNL1        0.0040
     13 C           3.5154    1.5075   -0.2376 C.ar    1  UNL1       -0.0497
     14 C           4.8199    1.0966   -0.1833 C.ar    1  UNL1       -0.0244
     15 C           5.2072    0.0440    0.6340 C.ar    1  UNL1        0.1417
     16 F           6.4948   -0.3870    0.7094 F       1  UNL1       -0.2040
     17 C           4.2246   -0.5768    1.3940 C.ar    1  UNL1        0.0767
     18 CL          4.6783   -1.8999    2.4287 Cl      1  UNL1       -0.0806
     19 C           2.9167   -0.1802    1.3529 C.ar    1  UNL1       -0.0313
     20 N           0.8557    2.5848    0.8010 N.ar    1  UNL1       -0.2351
     21 C          -0.4596    2.6807    0.6093 C.ar    1  UNL1        0.0974
     22 N          -0.9240    1.4886    0.1470 N.ar    1  UNL1       -0.3230
     23 C          -2.3088    1.3030   -0.1473 C.3     1  UNL1        0.0614
     24 C          -2.6809    2.2498   -1.2712 C.3     1  UNL1       -0.0064
     25 C          -3.6450    3.2156   -0.6549 C.3     1  UNL1        0.0497
     26 O          -3.5919    3.0564    0.7077 O.3     1  UNL1       -0.3777
     27 C          -3.1293    1.8014    1.0028 C.3     1  UNL1        0.0685
     28 N          -0.7186   -1.6817    0.2195 N.ar    1  UNL1       -0.1623
     29 N          -0.8014   -2.9270   -0.2128 N.ar    1  UNL1       -0.2023
     30 H          -1.5613   -6.0450   -0.4839 H       1  UNL1        0.0859
     31 H           1.1385   -2.6688   -2.9480 H       1  UNL1        0.0655
     32 H           1.2669   -0.3587   -2.1090 H       1  UNL1        0.0641
     33 H           3.2182    2.3286   -0.8763 H       1  UNL1        0.0625
     34 H           5.6014    1.5845   -0.7828 H       1  UNL1        0.0647
     35 H           2.1879   -0.6764    1.9475 H       1  UNL1        0.0640
     36 H          -1.0360    3.5921    0.8052 H       1  UNL1        0.1029
     37 H          -2.5866    0.2901   -0.4661 H       1  UNL1        0.0552
     38 H          -3.1055    1.7166   -2.1354 H       1  UNL1        0.0308
     39 H          -1.7938    2.8175   -1.6377 H       1  UNL1        0.0308
     40 H          -3.3528    4.2806   -0.8785 H       1  UNL1        0.0560
     41 H          -4.6609    3.0982   -1.0830 H       1  UNL1        0.0560
     42 H          -2.4817    1.8885    1.9190 H       1  UNL1        0.0580
     43 H          -3.9513    1.1147    1.2876 H       1  UNL1        0.0580
@<TRIPOS>BOND
     1     1     2    3
     2     2     3    1
     3     3     4   ar
     4     4     5   ar
     5     5     6   ar
     6     6     7   ar
     7     7     8   ar
     8     8     9   ar
     9     9    10    1
    10    10    11   ar
    11    11    12    1
    12    12    13   ar
    13    13    14   ar
    14    14    15   ar
    15    15    16    1
    16    15    17   ar
    17    17    18    1
    18    17    19   ar
    19    11    20   ar
    20    20    21   ar
    21    21    22   ar
    22    22    23    1
    23    23    24    1
    24    24    25    1
    25    25    26    1
    26    26    27    1
    27     9    28   ar
    28    28    29   ar
    29    29     3   ar
    30    29     6   ar
    31    22    10   ar
    32    27    23    1
    33    19    12   ar
    34     4    30    1
    35     7    31    1
    36     8    32    1
    37    13    33    1
    38    14    34    1
    39    19    35    1
    40    21    36    1
    41    23    37    1
    42    24    38    1
    43    24    39    1
    44    25    40    1
    45    25    41    1
    46    27    42    1
    47    27    43    1
