@<TRIPOS>MOLECULE
*****
 32 32 0 0 0
SMALL
GASTEIGER

@<TRIPOS>ATOM
      1 C           4.6254   -0.2823   -0.2378 C.3     1  UNL1       -0.0499
      2 C           3.2429    0.2455    0.0317 C.3     1  UNL1        0.0021
      3 C           3.0857    1.5738   -0.7059 C.3     1  UNL1       -0.0499
      4 N           2.1947   -0.6676   -0.3067 N.3     1  UNL1       -0.3110
      5 C           0.8832   -0.1584   -0.0474 C.3     1  UNL1        0.0263
      6 C          -0.2010   -1.1574   -0.4203 C.3     1  UNL1        0.0927
      7 O          -0.0602   -2.3337    0.3059 O.3     1  UNL1       -0.3859
      8 C          -1.5542   -0.5811   -0.2199 C.ar    1  UNL1       -0.0143
      9 C          -2.1703   -0.4727    1.0090 C.ar    1  UNL1       -0.0109
     10 C          -3.4470    0.0829    1.1116 C.ar    1  UNL1        0.1586
     11 O          -4.0783    0.1975    2.3444 O.3     1  UNL1       -0.5033
     12 C          -4.1265    0.5379   -0.0108 C.ar    1  UNL1        0.1582
     13 O          -5.3936    1.0978    0.0277 O.3     1  UNL1       -0.5033
     14 C          -3.5464    0.4467   -1.2482 C.ar    1  UNL1       -0.0162
     15 C          -2.2788   -0.1096   -1.3152 C.ar    1  UNL1       -0.0524
     16 H           4.8477   -0.1183   -1.3192 H       1  UNL1        0.0245
     17 H           4.7711   -1.3308    0.0338 H       1  UNL1        0.0245
     18 H           5.3531    0.3490    0.3154 H       1  UNL1        0.0245
     19 H           3.1693    0.4622    1.1227 H       1  UNL1        0.0455
     20 H           2.5007    2.2838   -0.0771 H       1  UNL1        0.0245
     21 H           2.5479    1.3870   -1.6539 H       1  UNL1        0.0245
     22 H           4.0561    2.0438   -0.9445 H       1  UNL1        0.0245
     23 H           2.2930   -1.1689   -1.1950 H       1  UNL1        0.1223
     24 H           0.7497    0.0589    1.0330 H       1  UNL1        0.0453
     25 H           0.7575    0.7624   -0.6284 H       1  UNL1        0.0453
     26 H          -0.0956   -1.4331   -1.4810 H       1  UNL1        0.0656
     27 H          -0.2614   -3.1534   -0.2071 H       1  UNL1        0.2103
     28 H          -1.6427   -0.8269    1.8871 H       1  UNL1        0.0659
     29 H          -4.9445   -0.3426    2.4898 H       1  UNL1        0.2923
     30 H          -5.4853    2.0273   -0.3612 H       1  UNL1        0.2923
     31 H          -3.9957    0.7740   -2.1857 H       1  UNL1        0.0655
     32 H          -1.7966   -0.1938   -2.2822 H       1  UNL1        0.0622
@<TRIPOS>BOND
     1     1     2    1
     2     2     3    1
     3     2     4    1
     4     4     5    1
     5     5     6    1
     6     6     7    1
     7     6     8    1
     8     8     9   ar
     9     9    10   ar
    10    10    11    1
    11    10    12   ar
    12    12    13    1
    13    12    14   ar
    14    14    15   ar
    15    15     8   ar
    16     1    16    1
    17     1    17    1
    18     1    18    1
    19     2    19    1
    20     3    20    1
    21     3    21    1
    22     3    22    1
    23     4    23    1
    24     5    24    1
    25     5    25    1
    26     6    26    1
    27     7    27    1
    28     9    28    1
    29    11    29    1
    30    13    30    1
    31    14    31    1
    32    15    32    1
