
     RDKit          3D

 51 54  0  0  0  0  0  0  0  0999 V2000
   -5.9785    1.8028   -0.7172 C   0  0  0  0  0  0  0  0  0  0  0  0
   -5.1051    0.6461   -0.4858 N   0  0  0  0  0  0  0  0  0  0  0  0
   -4.8808    0.5587    0.9954 C   0  0  0  0  0  0  0  0  0  0  0  0
   -3.5025    0.5158    1.1718 C   0  0  0  0  0  0  0  0  0  0  0  0
   -2.1156    0.4528    1.3297 C   0  0  0  0  0  0  0  0  0  0  0  0
   -1.5375    0.5468   -0.1133 C   0  0  0  0  0  0  0  0  0  0  0  0
   -2.6486    0.2234   -1.1287 C   0  0  0  0  0  0  0  0  0  0  0  0
   -3.8750    0.9648   -1.1862 C   0  0  0  0  0  0  0  0  0  0  0  0
   -0.4025   -0.2476   -0.3344 N   0  0  0  0  0  0  0  0  0  0  0  0
    0.6968    0.3327   -0.7874 N   0  0  0  0  0  0  0  0  0  0  0  0
    1.8553   -0.3048   -1.0404 C   0  0  0  0  0  0  0  0  0  0  0  0
    3.0142    0.5078   -1.5130 C   0  0  0  0  0  0  0  0  0  0  0  0
    3.9590    0.8671   -0.4354 C   0  0  0  0  0  0  0  0  0  0  0  0
    5.1680    0.3591   -0.0173 C   0  0  0  0  0  0  0  0  0  0  0  0
    5.8364    0.9000    1.0557 C   0  0  0  0  0  0  0  0  0  0  0  0
    5.3700    1.9686    1.7877 C   0  0  0  0  0  0  0  0  0  0  0  0
    6.2728    2.6066    3.1419 Cl  0  0  0  0  0  0  0  0  0  0  0  0
    4.1620    2.5076    1.4012 C   0  0  0  0  0  0  0  0  0  0  0  0
    3.5040    1.9558    0.3257 C   0  0  0  0  0  0  0  0  0  0  0  0
    1.8298   -1.6558   -0.7909 C   0  0  0  0  0  0  0  0  0  0  0  0
    2.9775   -2.3623   -1.0396 C   0  0  0  0  0  0  0  0  0  0  0  0
    3.0339   -3.7205   -0.8229 C   0  0  0  0  0  0  0  0  0  0  0  0
    1.9431   -4.4125   -0.3514 C   0  0  0  0  0  0  0  0  0  0  0  0
    0.7794   -3.6791   -0.1034 C   0  0  0  0  0  0  0  0  0  0  0  0
    0.7180   -2.3197   -0.3189 C   0  0  0  0  0  0  0  0  0  0  0  0
   -0.3908   -1.5525   -0.1042 C   0  0  0  0  0  0  0  0  0  0  0  0
   -1.3981   -2.1931    0.3308 O   0  0  0  0  0  0  0  0  0  0  0  0
   -5.6965    2.5417    0.0893 H   0  0  0  0  0  0  0  0  0  0  0  0
   -5.7427    2.2647   -1.6733 H   0  0  0  0  0  0  0  0  0  0  0  0
   -7.0288    1.5009   -0.5800 H   0  0  0  0  0  0  0  0  0  0  0  0
   -5.5016   -0.3138    1.3513 H   0  0  0  0  0  0  0  0  0  0  0  0
   -5.4481    1.3973    1.5051 H   0  0  0  0  0  0  0  0  0  0  0  0
   -3.4670   -0.4383    0.6040 H   0  0  0  0  0  0  0  0  0  0  0  0
   -3.4110    1.5268    0.7243 H   0  0  0  0  0  0  0  0  0  0  0  0
   -1.6733   -0.4478    1.8548 H   0  0  0  0  0  0  0  0  0  0  0  0
   -1.6187    1.2706    1.9367 H   0  0  0  0  0  0  0  0  0  0  0  0
   -1.3452    1.6341   -0.2726 H   0  0  0  0  0  0  0  0  0  0  0  0
   -2.7782   -0.8807   -1.2603 H   0  0  0  0  0  0  0  0  0  0  0  0
   -2.0795    0.4681   -2.0646 H   0  0  0  0  0  0  0  0  0  0  0  0
   -4.2646    0.8451   -2.2427 H   0  0  0  0  0  0  0  0  0  0  0  0
   -3.6604    2.0712   -1.2201 H   0  0  0  0  0  0  0  0  0  0  0  0
    2.6122    1.4356   -1.9620 H   0  0  0  0  0  0  0  0  0  0  0  0
    3.5251   -0.0139   -2.3574 H   0  0  0  0  0  0  0  0  0  0  0  0
    5.5053   -0.4694   -0.6174 H   0  0  0  0  0  0  0  0  0  0  0  0
    6.7866    0.4101    1.2933 H   0  0  0  0  0  0  0  0  0  0  0  0
    3.8079    3.3381    1.9757 H   0  0  0  0  0  0  0  0  0  0  0  0
    2.5559    2.4844    0.1298 H   0  0  0  0  0  0  0  0  0  0  0  0
    3.8404   -1.8735   -1.4134 H   0  0  0  0  0  0  0  0  0  0  0  0
    3.9229   -4.3412   -1.0028 H   0  0  0  0  0  0  0  0  0  0  0  0
    1.9726   -5.4936   -0.1733 H   0  0  0  0  0  0  0  0  0  0  0  0
   -0.0983   -4.1852    0.2675 H   0  0  0  0  0  0  0  0  0  0  0  0
  1  2  1  0
  2  3  1  0
  3  4  1  0
  4  5  1  0
  5  6  1  0
  6  7  1  0
  7  8  1  0
  6  9  1  0
  9 10  1  0
 10 11  2  0
 11 12  1  0
 12 13  1  0
 13 14  2  0
 14 15  1  0
 15 16  2  0
 16 17  1  0
 16 18  1  0
 18 19  2  0
 11 20  1  0
 20 21  2  0
 21 22  1  0
 22 23  2  0
 23 24  1  0
 24 25  2  0
 25 26  1  0
 26 27  2  0
  8  2  1  0
 26  9  1  0
 19 13  1  0
 25 20  1  0
  1 28  1  0
  1 29  1  0
  1 30  1  0
  3 31  1  0
  3 32  1  0
  4 33  1  0
  4 34  1  0
  5 35  1  0
  5 36  1  0
  6 37  1  0
  7 38  1  0
  7 39  1  0
  8 40  1  0
  8 41  1  0
 12 42  1  0
 12 43  1  0
 14 44  1  0
 15 45  1  0
 18 46  1  0
 19 47  1  0
 21 48  1  0
 22 49  1  0
 23 50  1  0
 24 51  1  0
M  END
$$$$
