@<TRIPOS>MOLECULE
*****
 28 27 0 0 0
SMALL
GASTEIGER

@<TRIPOS>ATOM
      1 C           0.4652   -1.0568    0.5218 C.3     1  UNL1        0.1077
      2 O           0.4156   -0.9438    1.9023 O.3     1  UNL1       -0.3868
      3 C           1.5356   -0.1532   -0.0007 C.3     1  UNL1        0.0875
      4 O           2.7499   -0.5390    0.5568 O.3     1  UNL1       -0.2841
      5 P           4.0372    0.3923    0.0540 P.3     1  UNL1        0.4724
      6 O           5.2912    0.2079    1.2006 O.3     1  UNL1       -0.3026
      7 O           3.6894    2.0535    0.0239 O.3     1  UNL1       -0.3026
      8 O           4.5992   -0.0343   -1.2724 O.2     1  UNL1       -0.2275
      9 C          -0.8768   -0.8339   -0.1241 C.3     1  UNL1        0.1177
     10 O          -1.7375   -1.8181    0.4004 O.3     1  UNL1       -0.3861
     11 C          -1.4827    0.4982    0.1231 C.3     1  UNL1        0.1614
     12 O          -1.6488    0.6966    1.5088 O.3     1  UNL1       -0.3797
     13 C          -2.8726    0.4504   -0.4440 C.2     1  UNL1        0.2556
     14 O          -2.8795    0.1835   -1.8108 O.2     1  UNL1       -0.4916
     15 N          -3.9469    0.6340    0.2449 N.2     1  UNL1       -0.0506
     16 O          -5.1626    0.5644   -0.3937 O.2     1  UNL1       -0.4066
     17 H           0.7516   -2.1058    0.3034 H       1  UNL1        0.0643
     18 H           0.5467   -1.8026    2.3694 H       1  UNL1        0.2100
     19 H           1.3779    0.8964    0.3664 H       1  UNL1        0.0592
     20 H           1.5454   -0.1294   -1.1144 H       1  UNL1        0.0592
     21 H           5.6503   -0.7139    1.1995 H       1  UNL1        0.2220
     22 H           3.7681    2.4115   -0.8740 H       1  UNL1        0.2220
     23 H          -0.8599   -1.0259   -1.2133 H       1  UNL1        0.0651
     24 H          -1.8806   -1.6718    1.3735 H       1  UNL1        0.2100
     25 H          -0.9841    1.3313   -0.3805 H       1  UNL1        0.0720
     26 H          -2.3953    1.3347    1.6549 H       1  UNL1        0.2106
     27 H          -3.7801    0.0957   -2.2828 H       1  UNL1        0.2936
     28 H          -5.9159    1.0782    0.0846 H       1  UNL1        0.3279
@<TRIPOS>BOND
     1     1     2    1
     2     1     3    1
     3     3     4    1
     4     4     5    1
     5     5     6    1
     6     5     7    1
     7     5     8    2
     8     1     9    1
     9     9    10    1
    10     9    11    1
    11    11    12    1
    12    11    13    1
    13    13    14    1
    14    13    15    2
    15    15    16    1
    16     1    17    1
    17     2    18    1
    18     3    19    1
    19     3    20    1
    20     6    21    1
    21     7    22    1
    22     9    23    1
    23    10    24    1
    24    11    25    1
    25    12    26    1
    26    14    27    1
    27    16    28    1
