
     RDKit          3D

 58 64  0  0  0  0  0  0  0  0999 V2000
    4.8043   -0.1795   -2.4286 C   0  0  0  0  0  0  0  0  0  0  0  0
    4.2339   -0.3037   -1.0791 C   0  0  0  0  0  0  0  0  0  0  0  0
    2.8547   -0.4267   -0.9426 C   0  0  0  0  0  0  0  0  0  0  0  0
    2.2746   -0.5452    0.2965 C   0  0  0  0  0  0  0  0  0  0  0  0
    0.8503   -0.6636    0.3923 N   0  0  0  0  0  0  0  0  0  0  0  0
    0.1621   -1.9133    0.3276 C   0  0  0  0  0  0  0  0  0  0  0  0
    0.6881   -3.0619    0.1522 O   0  0  0  0  0  0  0  0  0  0  0  0
   -1.2631   -1.7093    0.4920 C   0  0  0  0  0  0  0  0  0  0  0  0
   -2.5086   -2.2972    0.5606 C   0  0  0  0  0  0  0  0  0  0  0  0
   -2.7880   -3.7519    0.4362 C   0  0  0  0  0  0  0  0  0  0  0  0
   -3.0581   -4.3097   -0.9254 C   0  0  0  0  0  0  0  0  0  0  0  0
   -4.1629   -4.1996    0.0631 C   0  0  0  0  0  0  0  0  0  0  0  0
   -3.3900   -1.2978    0.7586 N   0  0  0  0  0  0  0  0  0  0  0  0
   -2.7653   -0.1358    0.8157 N   0  0  0  0  0  0  0  0  0  0  0  0
   -3.3933    1.1293    1.0153 C   0  0  0  0  0  0  0  0  0  0  0  0
   -3.4366    1.9118    2.1507 C   0  0  0  0  0  0  0  0  0  0  0  0
   -4.1675    3.0660    1.8696 C   0  0  0  0  0  0  0  0  0  0  0  0
   -4.5350    2.9410    0.5902 N   0  0  0  0  0  0  0  0  0  0  0  0
   -4.0898    1.8096    0.0703 N   0  0  0  0  0  0  0  0  0  0  0  0
   -4.3045    1.3567   -1.2901 C   0  0  0  0  0  0  0  0  0  0  0  0
   -1.4259   -0.3582    0.6514 C   0  0  0  0  0  0  0  0  0  0  0  0
   -0.1328    0.3509    0.5827 C   0  0  0  0  0  0  0  0  0  0  0  0
   -0.1397    1.4189   -0.4434 C   0  0  0  0  0  0  0  0  0  0  0  0
   -0.1841    2.7494   -0.0585 C   0  0  0  0  0  0  0  0  0  0  0  0
   -0.2024    3.7899   -0.9647 C   0  0  0  0  0  0  0  0  0  0  0  0
   -0.1756    3.5041   -2.3174 C   0  0  0  0  0  0  0  0  0  0  0  0
   -0.1971    4.7885   -3.5102 Cl  0  0  0  0  0  0  0  0  0  0  0  0
   -0.1313    2.1792   -2.7079 C   0  0  0  0  0  0  0  0  0  0  0  0
   -0.1131    1.1379   -1.7933 C   0  0  0  0  0  0  0  0  0  0  0  0
    3.0847   -0.5383    1.3658 N   0  0  0  0  0  0  0  0  0  0  0  0
    4.4095   -0.4206    1.2401 N   0  0  0  0  0  0  0  0  0  0  0  0
    5.3974   -0.3893    2.1423 C   0  0  0  0  0  0  0  0  0  0  0  0
    5.3108   -0.4805    3.6226 C   0  0  0  0  0  0  0  0  0  0  0  0
    6.5857   -0.2535    1.4974 N   0  0  0  0  0  0  0  0  0  0  0  0
    6.3483   -0.2000    0.2051 N   0  0  0  0  0  0  0  0  0  0  0  0
    5.0099   -0.3025    0.0428 C   0  0  0  0  0  0  0  0  0  0  0  0
    5.8015   -0.6545   -2.5114 H   0  0  0  0  0  0  0  0  0  0  0  0
    4.1379   -0.6831   -3.1791 H   0  0  0  0  0  0  0  0  0  0  0  0
    4.8552    0.9153   -2.6788 H   0  0  0  0  0  0  0  0  0  0  0  0
    2.2811   -0.4276   -1.8579 H   0  0  0  0  0  0  0  0  0  0  0  0
   -2.2160   -4.4442    1.1201 H   0  0  0  0  0  0  0  0  0  0  0  0
   -2.6572   -5.3335   -1.1672 H   0  0  0  0  0  0  0  0  0  0  0  0
   -3.0662   -3.6377   -1.7965 H   0  0  0  0  0  0  0  0  0  0  0  0
   -4.9179   -3.3852   -0.0629 H   0  0  0  0  0  0  0  0  0  0  0  0
   -4.5392   -5.1229    0.5288 H   0  0  0  0  0  0  0  0  0  0  0  0
   -2.9767    1.6662    3.1033 H   0  0  0  0  0  0  0  0  0  0  0  0
   -4.3741    3.8761    2.5709 H   0  0  0  0  0  0  0  0  0  0  0  0
   -5.2708    1.7361   -1.6995 H   0  0  0  0  0  0  0  0  0  0  0  0
   -4.3628    0.2598   -1.3212 H   0  0  0  0  0  0  0  0  0  0  0  0
   -3.5207    1.7348   -1.9788 H   0  0  0  0  0  0  0  0  0  0  0  0
   -0.0137    0.8667    1.5865 H   0  0  0  0  0  0  0  0  0  0  0  0
   -0.2068    3.0317    0.9956 H   0  0  0  0  0  0  0  0  0  0  0  0
   -0.2377    4.8365   -0.6372 H   0  0  0  0  0  0  0  0  0  0  0  0
   -0.1088    1.9049   -3.7681 H   0  0  0  0  0  0  0  0  0  0  0  0
   -0.0785    0.0980   -2.0824 H   0  0  0  0  0  0  0  0  0  0  0  0
    5.9345    0.3083    4.0940 H   0  0  0  0  0  0  0  0  0  0  0  0
    4.2701   -0.4884    3.9672 H   0  0  0  0  0  0  0  0  0  0  0  0
    5.8173   -1.4522    3.8945 H   0  0  0  0  0  0  0  0  0  0  0  0
  1  2  1  0
  2  3  2  0
  3  4  1  0
  4  5  1  0
  5  6  1  0
  6  7  2  0
  6  8  1  0
  8  9  1  0
  9 10  1  0
 10 11  1  0
 11 12  1  0
  9 13  2  0
 13 14  1  0
 14 15  1  0
 15 16  2  0
 16 17  1  0
 17 18  2  0
 18 19  1  0
 19 20  1  0
 14 21  1  0
 21 22  1  0
 22 23  1  0
 23 24  2  0
 24 25  1  0
 25 26  2  0
 26 27  1  0
 26 28  1  0
 28 29  2  0
  4 30  2  0
 30 31  1  0
 31 32  1  0
 32 33  1  0
 32 34  2  0
 34 35  1  0
 35 36  2  0
 36  2  1  0
 22  5  1  0
 29 23  1  0
 36 31  1  0
 21  8  2  0
 12 10  1  0
 19 15  1  0
  1 37  1  0
  1 38  1  0
  1 39  1  0
  3 40  1  0
 10 41  1  0
 11 42  1  0
 11 43  1  0
 12 44  1  0
 12 45  1  0
 16 46  1  0
 17 47  1  0
 20 48  1  0
 20 49  1  0
 20 50  1  0
 22 51  1  0
 24 52  1  0
 25 53  1  0
 28 54  1  0
 29 55  1  0
 33 56  1  0
 33 57  1  0
 33 58  1  0
M  END
$$$$
