@<TRIPOS>MOLECULE
*****
 58 64 0 0 0
SMALL
GASTEIGER

@<TRIPOS>ATOM
      1 C           4.8043   -0.1795   -2.4286 C.3     1  UNL1       -0.0360
      2 C           4.2339   -0.3037   -1.0791 C.ar    1  UNL1       -0.0012
      3 C           2.8547   -0.4267   -0.9426 C.ar    1  UNL1       -0.0131
      4 C           2.2746   -0.5452    0.2965 C.ar    1  UNL1        0.1499
      5 N           0.8503   -0.6636    0.3923 N.am    1  UNL1       -0.2373
      6 C           0.1621   -1.9133    0.3276 C.2     1  UNL1        0.2564
      7 O           0.6881   -3.0619    0.1522 O.2     1  UNL1       -0.2694
      8 C          -1.2631   -1.7093    0.4920 C.ar    1  UNL1        0.0840
      9 C          -2.5086   -2.2972    0.5606 C.ar    1  UNL1        0.0790
     10 C          -2.7880   -3.7519    0.4362 C.3     1  UNL1        0.0039
     11 C          -3.0581   -4.3097   -0.9254 C.3     1  UNL1       -0.0441
     12 C          -4.1629   -4.1996    0.0631 C.3     1  UNL1       -0.0441
     13 N          -3.3900   -1.2978    0.7586 N.ar    1  UNL1       -0.1686
     14 N          -2.7653   -0.1358    0.8157 N.ar    1  UNL1       -0.2158
     15 C          -3.3933    1.1293    1.0153 C.ar    1  UNL1        0.1525
     16 C          -3.4366    1.9118    2.1507 C.ar    1  UNL1        0.0020
     17 C          -4.1675    3.0660    1.8696 C.ar    1  UNL1        0.0515
     18 N          -4.5350    2.9410    0.5902 N.ar    1  UNL1       -0.1780
     19 N          -4.0898    1.8096    0.0703 N.ar    1  UNL1       -0.2500
     20 C          -4.3045    1.3567   -1.2901 C.3     1  UNL1        0.0324
     21 C          -1.4259   -0.3582    0.6514 C.ar    1  UNL1        0.0842
     22 C          -0.1328    0.3509    0.5827 C.3     1  UNL1        0.1007
     23 C          -0.1397    1.4189   -0.4434 C.ar    1  UNL1       -0.0207
     24 C          -0.1841    2.7494   -0.0585 C.ar    1  UNL1       -0.0550
     25 C          -0.2024    3.7899   -0.9647 C.ar    1  UNL1       -0.0431
     26 C          -0.1756    3.5041   -2.3174 C.ar    1  UNL1        0.0410
     27 CL         -0.1971    4.7885   -3.5102 Cl      1  UNL1       -0.0835
     28 C          -0.1313    2.1792   -2.7079 C.ar    1  UNL1       -0.0431
     29 C          -0.1131    1.1379   -1.7933 C.ar    1  UNL1       -0.0550
     30 N           3.0847   -0.5383    1.3658 N.ar    1  UNL1       -0.1478
     31 N           4.4095   -0.4206    1.2401 N.ar    1  UNL1       -0.1953
     32 C           5.3974   -0.3893    2.1423 C.ar    1  UNL1        0.1521
     33 C           5.3108   -0.4805    3.6226 C.3     1  UNL1       -0.0027
     34 N           6.5857   -0.2535    1.4974 N.ar    1  UNL1       -0.1325
     35 N           6.3483   -0.2000    0.2051 N.ar    1  UNL1       -0.1277
     36 C           5.0099   -0.3025    0.0428 C.ar    1  UNL1        0.1809
     37 H           5.8015   -0.6545   -2.5114 H       1  UNL1        0.0279
     38 H           4.1379   -0.6831   -3.1791 H       1  UNL1        0.0279
     39 H           4.8552    0.9153   -2.6788 H       1  UNL1        0.0279
     40 H           2.2811   -0.4276   -1.8579 H       1  UNL1        0.0656
     41 H          -2.2160   -4.4442    1.1201 H       1  UNL1        0.0365
     42 H          -2.6572   -5.3335   -1.1672 H       1  UNL1        0.0272
     43 H          -3.0662   -3.6377   -1.7965 H       1  UNL1        0.0272
     44 H          -4.9179   -3.3852   -0.0629 H       1  UNL1        0.0272
     45 H          -4.5392   -5.1229    0.5288 H       1  UNL1        0.0272
     46 H          -2.9767    1.6662    3.1033 H       1  UNL1        0.0670
     47 H          -4.3741    3.8761    2.5709 H       1  UNL1        0.0848
     48 H          -5.2708    1.7361   -1.6995 H       1  UNL1        0.0473
     49 H          -4.3628    0.2598   -1.3212 H       1  UNL1        0.0473
     50 H          -3.5207    1.7348   -1.9788 H       1  UNL1        0.0473
     51 H          -0.0137    0.8667    1.5865 H       1  UNL1        0.0621
     52 H          -0.2068    3.0317    0.9956 H       1  UNL1        0.0621
     53 H          -0.2377    4.8365   -0.6372 H       1  UNL1        0.0632
     54 H          -0.1088    1.9049   -3.7681 H       1  UNL1        0.0632
     55 H          -0.0785    0.0980   -2.0824 H       1  UNL1        0.0621
     56 H           5.9345    0.3083    4.0940 H       1  UNL1        0.0309
     57 H           4.2701   -0.4884    3.9672 H       1  UNL1        0.0309
     58 H           5.8173   -1.4522    3.8945 H       1  UNL1        0.0309
@<TRIPOS>BOND
     1     1     2    1
     2     2     3   ar
     3     3     4   ar
     4     4     5    1
     5     5     6   am
     6     6     7    2
     7     6     8    1
     8     8     9   ar
     9     9    10    1
    10    10    11    1
    11    11    12    1
    12     9    13   ar
    13    13    14   ar
    14    14    15    1
    15    15    16   ar
    16    16    17   ar
    17    17    18   ar
    18    18    19   ar
    19    19    20    1
    20    14    21   ar
    21    21    22    1
    22    22    23    1
    23    23    24   ar
    24    24    25   ar
    25    25    26   ar
    26    26    27    1
    27    26    28   ar
    28    28    29   ar
    29     4    30   ar
    30    30    31   ar
    31    31    32   ar
    32    32    33    1
    33    32    34   ar
    34    34    35   ar
    35    35    36   ar
    36    36     2   ar
    37    22     5    1
    38    29    23   ar
    39    36    31   ar
    40    21     8   ar
    41    12    10    1
    42    19    15   ar
    43     1    37    1
    44     1    38    1
    45     1    39    1
    46     3    40    1
    47    10    41    1
    48    11    42    1
    49    11    43    1
    50    12    44    1
    51    12    45    1
    52    16    46    1
    53    17    47    1
    54    20    48    1
    55    20    49    1
    56    20    50    1
    57    22    51    1
    58    24    52    1
    59    25    53    1
    60    28    54    1
    61    29    55    1
    62    33    56    1
    63    33    57    1
    64    33    58    1
