@<TRIPOS>MOLECULE
*****
 44 47 0 0 0
SMALL
GASTEIGER

@<TRIPOS>ATOM
      1 O           5.4883    0.3712    0.3015 O.3     1  UNL1       -0.3946
      2 C           4.5064    0.2636    1.2966 C.3     1  UNL1        0.0496
      3 C           3.7546   -1.0386    1.0267 C.3     1  UNL1        0.0144
      4 C           3.1250   -1.0168   -0.3179 C.ar    1  UNL1        0.0653
      5 C           3.7398   -1.4595   -1.4803 C.ar    1  UNL1        0.0514
      6 N           2.8571   -1.2735   -2.4513 N.ar    1  UNL1       -0.2344
      7 C           1.7119   -0.7312   -1.9432 C.ar    1  UNL1        0.1544
      8 C           0.5442   -0.3745   -2.5758 C.ar    1  UNL1       -0.0153
      9 C          -0.4697    0.1615   -1.7955 C.ar    1  UNL1       -0.0290
     10 C          -0.2839    0.3174   -0.4434 C.ar    1  UNL1        0.1103
     11 C          -1.3561    0.8780    0.3910 C.ar    1  UNL1        0.0968
     12 C          -2.5653    0.2685    0.6673 C.ar    1  UNL1        0.0982
     13 C          -3.0869   -1.0204    0.2254 C.ar    1  UNL1        0.0027
     14 C          -3.5349   -1.2107   -1.0598 C.ar    1  UNL1       -0.0498
     15 C          -4.0296   -2.4390   -1.4972 C.ar    1  UNL1       -0.0258
     16 C          -4.0590   -3.4780   -0.5908 C.ar    1  UNL1        0.1234
     17 F          -4.5491   -4.6728   -1.0477 F       1  UNL1       -0.2055
     18 C          -3.6164   -3.3174    0.7057 C.ar    1  UNL1       -0.0258
     19 C          -3.1307   -2.0844    1.1089 C.ar    1  UNL1       -0.0498
     20 N          -3.2136    1.1614    1.4772 N.ar    1  UNL1       -0.2351
     21 C          -2.4253    2.2328    1.6626 C.ar    1  UNL1        0.0973
     22 N          -1.2794    2.0878    1.0087 N.ar    1  UNL1       -0.3229
     23 C          -0.1371    2.9821    0.9196 C.3     1  UNL1        0.0852
     24 C          -0.2234    3.9542   -0.2085 C.3     1  UNL1        0.2569
     25 F           0.9270    4.7406   -0.1713 F       1  UNL1       -0.2073
     26 F          -0.2053    3.3203   -1.4334 F       1  UNL1       -0.2073
     27 N           0.8965   -0.0604    0.0931 N.ar    1  UNL1       -0.1632
     28 N           1.8877   -0.5746   -0.6135 N.ar    1  UNL1       -0.2166
     29 H           6.0181    1.2029    0.4276 H       1  UNL1        0.2094
     30 H           3.8147    1.1148    1.2121 H       1  UNL1        0.0561
     31 H           4.9836    0.1784    2.2736 H       1  UNL1        0.0561
     32 H           2.9818   -1.2002    1.8297 H       1  UNL1        0.0351
     33 H           4.4594   -1.8807    1.1139 H       1  UNL1        0.0351
     34 H           4.7455   -1.8683   -1.5272 H       1  UNL1        0.0848
     35 H           0.4512   -0.5196   -3.6439 H       1  UNL1        0.0655
     36 H          -1.3911    0.4496   -2.2878 H       1  UNL1        0.0641
     37 H          -3.5364   -0.4246   -1.8018 H       1  UNL1        0.0625
     38 H          -4.3730   -2.5582   -2.5095 H       1  UNL1        0.0646
     39 H          -3.6590   -4.1672    1.3880 H       1  UNL1        0.0646
     40 H          -2.7826   -1.9532    2.1233 H       1  UNL1        0.0625
     41 H          -2.6909    3.0987    2.2659 H       1  UNL1        0.1029
     42 H          -0.0175    3.5088    1.8854 H       1  UNL1        0.0548
     43 H           0.8134    2.3993    0.7814 H       1  UNL1        0.0548
     44 H          -1.0902    4.6317   -0.1486 H       1  UNL1        0.1037
@<TRIPOS>BOND
     1     1     2    1
     2     2     3    1
     3     3     4    1
     4     4     5   ar
     5     5     6   ar
     6     6     7   ar
     7     7     8   ar
     8     8     9   ar
     9     9    10   ar
    10    10    11    1
    11    11    12   ar
    12    12    13    1
    13    13    14   ar
    14    14    15   ar
    15    15    16   ar
    16    16    17    1
    17    16    18   ar
    18    18    19   ar
    19    12    20   ar
    20    20    21   ar
    21    21    22   ar
    22    22    23    1
    23    23    24    1
    24    24    25    1
    25    24    26    1
    26    10    27   ar
    27    27    28   ar
    28    28     4   ar
    29    28     7   ar
    30    22    11   ar
    31    19    13   ar
    32     1    29    1
    33     2    30    1
    34     2    31    1
    35     3    32    1
    36     3    33    1
    37     5    34    1
    38     8    35    1
    39     9    36    1
    40    14    37    1
    41    15    38    1
    42    18    39    1
    43    19    40    1
    44    21    41    1
    45    23    42    1
    46    23    43    1
    47    24    44    1
