
     RDKit          3D

 44 47  0  0  0  0  0  0  0  0999 V2000
    5.4883    0.3712    0.3015 O   0  0  0  0  0  0  0  0  0  0  0  0
    4.5064    0.2636    1.2966 C   0  0  0  0  0  0  0  0  0  0  0  0
    3.7546   -1.0386    1.0267 C   0  0  0  0  0  0  0  0  0  0  0  0
    3.1250   -1.0168   -0.3179 C   0  0  0  0  0  0  0  0  0  0  0  0
    3.7398   -1.4595   -1.4803 C   0  0  0  0  0  0  0  0  0  0  0  0
    2.8571   -1.2735   -2.4513 N   0  0  0  0  0  0  0  0  0  0  0  0
    1.7119   -0.7312   -1.9432 C   0  0  0  0  0  0  0  0  0  0  0  0
    0.5442   -0.3745   -2.5758 C   0  0  0  0  0  0  0  0  0  0  0  0
   -0.4697    0.1615   -1.7955 C   0  0  0  0  0  0  0  0  0  0  0  0
   -0.2839    0.3174   -0.4434 C   0  0  0  0  0  0  0  0  0  0  0  0
   -1.3561    0.8780    0.3910 C   0  0  0  0  0  0  0  0  0  0  0  0
   -2.5653    0.2685    0.6673 C   0  0  0  0  0  0  0  0  0  0  0  0
   -3.0869   -1.0204    0.2254 C   0  0  0  0  0  0  0  0  0  0  0  0
   -3.5349   -1.2107   -1.0598 C   0  0  0  0  0  0  0  0  0  0  0  0
   -4.0296   -2.4390   -1.4972 C   0  0  0  0  0  0  0  0  0  0  0  0
   -4.0590   -3.4780   -0.5908 C   0  0  0  0  0  0  0  0  0  0  0  0
   -4.5491   -4.6728   -1.0477 F   0  0  0  0  0  0  0  0  0  0  0  0
   -3.6164   -3.3174    0.7057 C   0  0  0  0  0  0  0  0  0  0  0  0
   -3.1307   -2.0844    1.1089 C   0  0  0  0  0  0  0  0  0  0  0  0
   -3.2136    1.1614    1.4772 N   0  0  0  0  0  0  0  0  0  0  0  0
   -2.4253    2.2328    1.6626 C   0  0  0  0  0  0  0  0  0  0  0  0
   -1.2794    2.0878    1.0087 N   0  0  0  0  0  0  0  0  0  0  0  0
   -0.1371    2.9821    0.9196 C   0  0  0  0  0  0  0  0  0  0  0  0
   -0.2234    3.9542   -0.2085 C   0  0  0  0  0  0  0  0  0  0  0  0
    0.9270    4.7406   -0.1713 F   0  0  0  0  0  0  0  0  0  0  0  0
   -0.2053    3.3203   -1.4334 F   0  0  0  0  0  0  0  0  0  0  0  0
    0.8965   -0.0604    0.0931 N   0  0  0  0  0  0  0  0  0  0  0  0
    1.8877   -0.5746   -0.6135 N   0  0  0  0  0  0  0  0  0  0  0  0
    6.0181    1.2029    0.4276 H   0  0  0  0  0  0  0  0  0  0  0  0
    3.8147    1.1148    1.2121 H   0  0  0  0  0  0  0  0  0  0  0  0
    4.9836    0.1784    2.2736 H   0  0  0  0  0  0  0  0  0  0  0  0
    2.9818   -1.2002    1.8297 H   0  0  0  0  0  0  0  0  0  0  0  0
    4.4594   -1.8807    1.1139 H   0  0  0  0  0  0  0  0  0  0  0  0
    4.7455   -1.8683   -1.5272 H   0  0  0  0  0  0  0  0  0  0  0  0
    0.4512   -0.5196   -3.6439 H   0  0  0  0  0  0  0  0  0  0  0  0
   -1.3911    0.4496   -2.2878 H   0  0  0  0  0  0  0  0  0  0  0  0
   -3.5364   -0.4246   -1.8018 H   0  0  0  0  0  0  0  0  0  0  0  0
   -4.3730   -2.5582   -2.5095 H   0  0  0  0  0  0  0  0  0  0  0  0
   -3.6590   -4.1672    1.3880 H   0  0  0  0  0  0  0  0  0  0  0  0
   -2.7826   -1.9532    2.1233 H   0  0  0  0  0  0  0  0  0  0  0  0
   -2.6909    3.0987    2.2659 H   0  0  0  0  0  0  0  0  0  0  0  0
   -0.0175    3.5088    1.8854 H   0  0  0  0  0  0  0  0  0  0  0  0
    0.8134    2.3993    0.7814 H   0  0  0  0  0  0  0  0  0  0  0  0
   -1.0902    4.6317   -0.1486 H   0  0  0  0  0  0  0  0  0  0  0  0
  1  2  1  0
  2  3  1  0
  3  4  1  0
  4  5  2  0
  5  6  1  0
  6  7  2  0
  7  8  1  0
  8  9  2  0
  9 10  1  0
 10 11  1  0
 11 12  2  0
 12 13  1  0
 13 14  2  0
 14 15  1  0
 15 16  2  0
 16 17  1  0
 16 18  1  0
 18 19  2  0
 12 20  1  0
 20 21  2  0
 21 22  1  0
 22 23  1  0
 23 24  1  0
 24 25  1  0
 24 26  1  0
 10 27  2  0
 27 28  1  0
 28  4  1  0
 28  7  1  0
 22 11  1  0
 19 13  1  0
  1 29  1  0
  2 30  1  0
  2 31  1  0
  3 32  1  0
  3 33  1  0
  5 34  1  0
  8 35  1  0
  9 36  1  0
 14 37  1  0
 15 38  1  0
 18 39  1  0
 19 40  1  0
 21 41  1  0
 23 42  1  0
 23 43  1  0
 24 44  1  0
M  END
$$$$
