
     RDKit          3D

 30 31  0  0  0  0  0  0  0  0999 V2000
    4.5620   -1.0147    0.3726 C   0  0  0  0  0  0  0  0  0  0  0  0
    4.3789   -0.2824   -0.9150 C   0  0  0  0  0  0  0  0  0  0  0  0
    2.9117   -0.2440   -1.2687 C   0  0  0  0  0  0  0  0  0  0  0  0
    2.0366    0.5895    0.0055 S   0  0  0  0  0  0  0  0  0  0  0  0
    2.2545   -0.1197    1.3021 O   0  0  0  0  0  0  0  0  0  0  0  0
    2.5185    2.0002    0.1593 O   0  0  0  0  0  0  0  0  0  0  0  0
    0.3359    0.6752   -0.3387 N   0  0  0  0  0  0  0  0  0  0  0  0
   -0.1543    1.3418   -1.4642 N   0  0  0  0  0  0  0  0  0  0  0  0
   -1.4166    1.4063   -1.7212 C   0  0  0  0  0  0  0  0  0  0  0  0
   -2.4260    0.8076   -0.8871 C   0  0  0  0  0  0  0  0  0  0  0  0
   -2.1679    0.0901    0.2915 C   0  0  0  0  0  0  0  0  0  0  0  0
   -3.2331   -0.4230    0.9820 C   0  0  0  0  0  0  0  0  0  0  0  0
   -4.5003   -0.1975    0.4670 C   0  0  0  0  0  0  0  0  0  0  0  0
   -5.7946   -0.6095    0.9680 C   0  0  0  0  0  0  0  0  0  0  0  0
   -4.1884    0.7792   -1.0564 S   0  0  0  0  0  0  0  0  0  0  0  0
   -0.6464    0.0095    0.6059 B   0  0  0  0  0  0  0  0  0  0  0  0
   -0.1171   -0.9773    1.5662 O   0  0  0  0  0  0  0  0  0  0  0  0
    3.7468   -1.7587    0.5966 H   0  0  0  0  0  0  0  0  0  0  0  0
    5.5241   -1.5956    0.3918 H   0  0  0  0  0  0  0  0  0  0  0  0
    4.5717   -0.3142    1.2342 H   0  0  0  0  0  0  0  0  0  0  0  0
    4.7021    0.7793   -0.8334 H   0  0  0  0  0  0  0  0  0  0  0  0
    4.9351   -0.7574   -1.7680 H   0  0  0  0  0  0  0  0  0  0  0  0
    2.7737    0.2056   -2.2657 H   0  0  0  0  0  0  0  0  0  0  0  0
    2.5614   -1.3166   -1.2847 H   0  0  0  0  0  0  0  0  0  0  0  0
   -1.7702    1.9287   -2.5994 H   0  0  0  0  0  0  0  0  0  0  0  0
   -3.1437   -0.9885    1.8969 H   0  0  0  0  0  0  0  0  0  0  0  0
   -6.5832   -0.1278    0.3285 H   0  0  0  0  0  0  0  0  0  0  0  0
   -5.9101   -1.7074    0.8306 H   0  0  0  0  0  0  0  0  0  0  0  0
   -5.9409   -0.3901    2.0393 H   0  0  0  0  0  0  0  0  0  0  0  0
    0.1798   -0.5028    2.3644 H   0  0  0  0  0  0  0  0  0  0  0  0
  1  2  1  0
  2  3  1  0
  3  4  1  0
  4  5  2  0
  4  6  2  0
  4  7  1  0
  7  8  1  0
  8  9  2  0
  9 10  1  0
 10 11  2  0
 11 12  1  0
 12 13  2  0
 13 14  1  0
 13 15  1  0
 11 16  1  0
 16 17  1  0
 16  7  1  0
 15 10  1  0
  1 18  1  0
  1 19  1  0
  1 20  1  0
  2 21  1  0
  2 22  1  0
  3 23  1  0
  3 24  1  0
  9 25  1  0
 12 26  1  0
 14 27  1  0
 14 28  1  0
 14 29  1  0
 17 30  1  0
M  END
$$$$
