@<TRIPOS>MOLECULE
*****
 30 31 0 0 0
SMALL
GASTEIGER

@<TRIPOS>ATOM
      1 C           4.5620   -1.0147    0.3726 C.3     1  UNL1        0.0000
      2 C           4.3789   -0.2824   -0.9150 C.3     1  UNL1        0.0000
      3 C           2.9117   -0.2440   -1.2687 C.3     1  UNL1        0.0000
      4 S           2.0366    0.5895    0.0055 S.O2    1  UNL1        0.0000
      5 O           2.2545   -0.1197    1.3021 O.2     1  UNL1        0.0000
      6 O           2.5185    2.0002    0.1593 O.2     1  UNL1        0.0000
      7 N           0.3359    0.6752   -0.3387 N.ar    1  UNL1        0.0000
      8 N          -0.1543    1.3418   -1.4642 N.ar    1  UNL1        0.0000
      9 C          -1.4166    1.4063   -1.7212 C.ar    1  UNL1        0.0000
     10 C          -2.4260    0.8076   -0.8871 C.ar    1  UNL1        0.0000
     11 C          -2.1679    0.0901    0.2915 C.ar    1  UNL1        0.0000
     12 C          -3.2331   -0.4230    0.9820 C.ar    1  UNL1        0.0000
     13 C          -4.5003   -0.1975    0.4670 C.ar    1  UNL1        0.0000
     14 C          -5.7946   -0.6095    0.9680 C.3     1  UNL1        0.0000
     15 S          -4.1884    0.7792   -1.0564 S.2     1  UNL1        0.0000
     16 B          -0.6464    0.0095    0.6059 B       1  UNL1        0.0000
     17 O          -0.1171   -0.9773    1.5662 O.3     1  UNL1        0.0000
     18 H           3.7468   -1.7587    0.5966 H       1  UNL1        0.0000
     19 H           5.5241   -1.5956    0.3918 H       1  UNL1        0.0000
     20 H           4.5717   -0.3142    1.2342 H       1  UNL1        0.0000
     21 H           4.7021    0.7793   -0.8334 H       1  UNL1        0.0000
     22 H           4.9351   -0.7574   -1.7680 H       1  UNL1        0.0000
     23 H           2.7737    0.2056   -2.2657 H       1  UNL1        0.0000
     24 H           2.5614   -1.3166   -1.2847 H       1  UNL1        0.0000
     25 H          -1.7702    1.9287   -2.5994 H       1  UNL1        0.0000
     26 H          -3.1437   -0.9885    1.8969 H       1  UNL1        0.0000
     27 H          -6.5832   -0.1278    0.3285 H       1  UNL1        0.0000
     28 H          -5.9101   -1.7074    0.8306 H       1  UNL1        0.0000
     29 H          -5.9409   -0.3901    2.0393 H       1  UNL1        0.0000
     30 H           0.1798   -0.5028    2.3644 H       1  UNL1        0.0000
@<TRIPOS>BOND
     1     1     2    1
     2     2     3    1
     3     3     4    1
     4     4     5    2
     5     4     6    2
     6     4     7    1
     7     7     8   ar
     8     8     9   ar
     9     9    10   ar
    10    10    11   ar
    11    11    12   ar
    12    12    13   ar
    13    13    14    1
    14    13    15   ar
    15    11    16   ar
    16    16    17    1
    17    16     7   ar
    18    15    10   ar
    19     1    18    1
    20     1    19    1
    21     1    20    1
    22     2    21    1
    23     2    22    1
    24     3    23    1
    25     3    24    1
    26     9    25    1
    27    12    26    1
    28    14    27    1
    29    14    28    1
    30    14    29    1
    31    17    30    1
