@<TRIPOS>MOLECULE
*****
 60 64 0 0 0
SMALL
GASTEIGER

@<TRIPOS>ATOM
      1 C           3.6314    2.4824    0.3109 C.3     1  UNL1       -0.0379
      2 C           3.3245    1.0297    0.3009 C.ar    1  UNL1       -0.0272
      3 C           2.0031    0.6393    0.3167 C.ar    1  UNL1       -0.0478
      4 C           1.6512   -0.7152    0.3083 C.ar    1  UNL1        0.0009
      5 C           0.2230   -1.0769    0.3260 C.ar    1  UNL1        0.0769
      6 C          -0.1555   -2.3935    0.3183 C.ar    1  UNL1       -0.0077
      7 C          -1.4997   -2.7469    0.3345 C.ar    1  UNL1        0.0999
      8 N          -2.1362   -3.9425    0.3271 N.ar    1  UNL1       -0.1712
      9 N          -3.4387   -3.7369    0.3450 N.ar    1  UNL1       -0.2732
     10 C          -4.5381   -4.6733    0.3462 C.3     1  UNL1        0.0302
     11 C          -3.6460   -2.3861    0.3644 C.ar    1  UNL1        0.0380
     12 C          -2.4320   -1.7188    0.3589 C.ar    1  UNL1        0.0812
     13 C          -2.0656   -0.3985    0.3672 C.ar    1  UNL1        0.2265
     14 O          -2.8885    0.6181    0.3896 O.3     1  UNL1       -0.4725
     15 C          -4.1522    1.0442    0.4318 C.3     1  UNL1        0.1037
     16 C          -4.8534    0.5726    1.7026 C.3     1  UNL1       -0.0274
     17 C          -4.9997    0.8705   -0.8030 C.3     1  UNL1        0.0196
     18 C          -6.3907    1.3774   -0.6403 C.3     1  UNL1        0.0182
     19 N          -6.4551    2.6765   -1.3154 N.am    1  UNL1       -0.3149
     20 C          -5.2104    3.0057   -1.8804 C.2     1  UNL1        0.2135
     21 O          -4.8438    4.1397   -2.2747 O.2     1  UNL1       -0.2758
     22 C          -4.4152    1.7489   -1.9187 C.3     1  UNL1        0.0315
     23 N          -0.7237   -0.1419    0.3497 N.ar    1  UNL1       -0.2122
     24 C           2.6639   -1.6357    0.2838 C.ar    1  UNL1       -0.0508
     25 C           4.0011   -1.2489    0.2677 C.ar    1  UNL1       -0.0382
     26 C           4.3629    0.0919    0.2759 C.ar    1  UNL1        0.0538
     27 N           5.6980    0.5250    0.2602 N.pl3   1  UNL1       -0.2071
     28 C           6.5076    0.8047   -0.8920 C.3     1  UNL1        0.0361
     29 C           7.8525    0.1482   -0.5549 C.3     1  UNL1       -0.0143
     30 C           8.2966    0.8638    0.7301 C.3     1  UNL1        0.0865
     31 S           6.7184    0.8359    1.6037 S.O2    1  UNL1        0.0455
     32 O           6.5302    2.2138    2.1590 O.2     1  UNL1       -0.1550
     33 O           6.6902   -0.2233    2.6338 O.2     1  UNL1       -0.1550
     34 H           3.3223    2.8770    1.3022 H       1  UNL1        0.0278
     35 H           3.0546    2.9356   -0.5260 H       1  UNL1        0.0278
     36 H           4.6924    2.6809    0.1019 H       1  UNL1        0.0278
     37 H           1.1852    1.3459    0.3360 H       1  UNL1        0.0627
     38 H           0.5750   -3.1850    0.2995 H       1  UNL1        0.0661
     39 H          -4.2060   -5.6682    0.0110 H       1  UNL1        0.0473
     40 H          -5.2930   -4.2678   -0.3870 H       1  UNL1        0.0473
     41 H          -5.0703   -4.7092    1.3154 H       1  UNL1        0.0473
     42 H          -4.6014   -1.8857    0.3781 H       1  UNL1        0.0834
     43 H          -4.1226    2.1886    0.5915 H       1  UNL1        0.0734
     44 H          -4.9795    1.3615    2.4551 H       1  UNL1        0.0265
     45 H          -4.1923   -0.1885    2.1619 H       1  UNL1        0.0265
     46 H          -5.8011    0.0454    1.4624 H       1  UNL1        0.0265
     47 H          -4.9557   -0.1529   -1.1944 H       1  UNL1        0.0356
     48 H          -6.6946    1.5561    0.4009 H       1  UNL1        0.0466
     49 H          -7.0908    0.7135   -1.1866 H       1  UNL1        0.0466
     50 H          -7.3198    3.2314   -1.3424 H       1  UNL1        0.1487
     51 H          -3.3762    2.0280   -1.6476 H       1  UNL1        0.0363
     52 H          -4.5167    1.2855   -2.9011 H       1  UNL1        0.0363
     53 H           2.4709   -2.6853    0.2762 H       1  UNL1        0.0625
     54 H           4.8069   -1.9675    0.2484 H       1  UNL1        0.0637
     55 H           6.7465    1.8991   -0.9773 H       1  UNL1        0.0483
     56 H           6.1278    0.3838   -1.8218 H       1  UNL1        0.0483
     57 H           8.5774    0.2749   -1.3578 H       1  UNL1        0.0297
     58 H           7.7162   -0.9164   -0.2704 H       1  UNL1        0.0297
     59 H           8.5843    1.8849    0.4576 H       1  UNL1        0.0519
     60 H           9.0503    0.2847    1.2648 H       1  UNL1        0.0519
@<TRIPOS>BOND
     1     1     2    1
     2     2     3   ar
     3     3     4   ar
     4     4     5    1
     5     5     6   ar
     6     6     7   ar
     7     7     8   ar
     8     8     9   ar
     9     9    10    1
    10     9    11   ar
    11    11    12   ar
    12    12    13   ar
    13    13    14    1
    14    14    15    1
    15    15    16    1
    16    15    17    1
    17    17    18    1
    18    18    19    1
    19    19    20   am
    20    20    21    2
    21    20    22    1
    22    13    23   ar
    23     4    24   ar
    24    24    25   ar
    25    25    26   ar
    26    26    27    1
    27    27    28    1
    28    28    29    1
    29    29    30    1
    30    30    31    1
    31    31    32    2
    32    31    33    2
    33    26     2   ar
    34    31    27    1
    35    23     5   ar
    36    12     7   ar
    37    22    17    1
    38     1    34    1
    39     1    35    1
    40     1    36    1
    41     3    37    1
    42     6    38    1
    43    10    39    1
    44    10    40    1
    45    10    41    1
    46    11    42    1
    47    15    43    1
    48    16    44    1
    49    16    45    1
    50    16    46    1
    51    17    47    1
    52    18    48    1
    53    18    49    1
    54    19    50    1
    55    22    51    1
    56    22    52    1
    57    24    53    1
    58    25    54    1
    59    28    55    1
    60    28    56    1
    61    29    57    1
    62    29    58    1
    63    30    59    1
    64    30    60    1
