
     RDKit          3D

 24 24  0  0  0  0  0  0  0  0999 V2000
   -2.6664    0.0991    1.2826 O   0  0  0  0  0  0  0  0  0  0  0  0
   -2.4497    0.1530   -0.0860 C   0  0  0  0  0  0  0  0  0  0  0  0
   -0.9780    0.2790   -0.4103 C   0  0  1  0  0  0  0  0  0  0  0  0
   -0.4979    1.5036    0.2035 N   0  0  0  0  0  0  0  0  0  0  0  0
    0.9151    1.7203   -0.1174 C   0  0  0  0  0  0  0  0  0  0  0  0
    1.6625    0.5440    0.5141 C   0  0  2  0  0  0  0  0  0  0  0  0
    3.0325    0.7514    0.4997 O   0  0  0  0  0  0  0  0  0  0  0  0
    1.2602   -0.6577   -0.3348 C   0  0  1  0  0  0  0  0  0  0  0  0
    2.0653   -1.7477   -0.1139 O   0  0  0  0  0  0  0  0  0  0  0  0
   -0.2015   -0.9293    0.0446 C   0  0  2  0  0  0  0  0  0  0  0  0
   -0.6946   -2.0376   -0.6021 O   0  0  0  0  0  0  0  0  0  0  0  0
   -3.4092   -0.5351    1.4400 H   0  0  0  0  0  0  0  0  0  0  0  0
   -2.7986   -0.7968   -0.5497 H   0  0  0  0  0  0  0  0  0  0  0  0
   -3.0087    0.9770   -0.5314 H   0  0  0  0  0  0  0  0  0  0  0  0
   -0.8739    0.3463   -1.5133 H   0  0  0  0  0  0  0  0  0  0  0  0
   -1.0265    2.2845   -0.2266 H   0  0  0  0  0  0  0  0  0  0  0  0
    1.0375    1.6322   -1.2188 H   0  0  0  0  0  0  0  0  0  0  0  0
    1.2425    2.6690    0.2968 H   0  0  0  0  0  0  0  0  0  0  0  0
    1.2441    0.4398    1.5372 H   0  0  0  0  0  0  0  0  0  0  0  0
    3.4684   -0.1104    0.2966 H   0  0  0  0  0  0  0  0  0  0  0  0
    1.2346   -0.4005   -1.4154 H   0  0  0  0  0  0  0  0  0  0  0  0
    1.7562   -2.3594    0.5818 H   0  0  0  0  0  0  0  0  0  0  0  0
   -0.2669   -1.0672    1.1500 H   0  0  0  0  0  0  0  0  0  0  0  0
   -0.0471   -2.7577   -0.7272 H   0  0  0  0  0  0  0  0  0  0  0  0
  1  2  1  0
  2  3  1  0
  3  4  1  0
  4  5  1  0
  5  6  1  0
  6  7  1  0
  6  8  1  0
  8  9  1  0
  8 10  1  0
 10 11  1  0
 10  3  1  0
  1 12  1  0
  2 13  1  0
  2 14  1  0
  3 15  1  6
  4 16  1  0
  5 17  1  0
  5 18  1  0
  6 19  1  1
  7 20  1  0
  8 21  1  6
  9 22  1  0
 10 23  1  1
 11 24  1  0
M  END
$$$$
