@<TRIPOS>MOLECULE
*****
 24 24 0 0 0
SMALL
GASTEIGER

@<TRIPOS>ATOM
      1 O          -2.6664    0.0991    1.2826 O.3     1  UNK1       -0.3934
      2 C          -2.4497    0.1530   -0.0860 C.3     1  UNK1        0.0620
      3 C          -0.9780    0.2790   -0.4103 C.3     1  UNK1        0.0596
      4 N          -0.4979    1.5036    0.2035 N.3     1  UNK1       -0.3064
      5 C           0.9151    1.7203   -0.1174 C.3     0  UNK0        0.0249
      6 C           1.6625    0.5440    0.5141 C.3     1  UNK1        0.0959
      7 O           3.0325    0.7514    0.4997 O.3     1  UNK1       -0.3879
      8 C           1.2602   -0.6577   -0.3348 C.3     1  UNK1        0.1095
      9 O           2.0653   -1.7477   -0.1139 O.3     1  UNK1       -0.3866
     10 C          -0.2015   -0.9293    0.0446 C.3     1  UNK1        0.1009
     11 O          -0.6946   -2.0376   -0.6021 O.3     1  UNK1       -0.3875
     12 H          -3.4092   -0.5351    1.4400 H       1  UNK1        0.2095
     13 H          -2.7986   -0.7968   -0.5497 H       1  UNK1        0.0573
     14 H          -3.0087    0.9770   -0.5314 H       1  UNK1        0.0573
     15 H          -0.8739    0.3463   -1.5133 H       1  UNK1        0.0509
     16 H          -1.0265    2.2845   -0.2266 H       1  UNK1        0.1224
     17 H           1.0375    1.6322   -1.2188 H       0  UNK0        0.0450
     18 H           1.2425    2.6690    0.2968 H       0  UNK0        0.0450
     19 H           1.2441    0.4398    1.5372 H       1  UNK1        0.0633
     20 H           3.4684   -0.1104    0.2966 H       1  UNK1        0.2099
     21 H           1.2346   -0.4005   -1.4154 H       1  UNK1        0.0646
     22 H           1.7562   -2.3594    0.5818 H       1  UNK1        0.2100
     23 H          -0.2669   -1.0672    1.1500 H       1  UNK1        0.0636
     24 H          -0.0471   -2.7577   -0.7272 H       1  UNK1        0.2100
@<TRIPOS>BOND
     1     1     2    1
     2     2     3    1
     3     3     4    1
     4     4     5    1
     5     5     6    1
     6     6     7    1
     7     6     8    1
     8     8     9    1
     9     8    10    1
    10    10    11    1
    11    10     3    1
    12     1    12    1
    13     2    13    1
    14     2    14    1
    15     3    15    1
    16     4    16    1
    17     5    17    1
    18     5    18    1
    19     6    19    1
    20     7    20    1
    21     8    21    1
    22     9    22    1
    23    10    23    1
    24    11    24    1
