@<TRIPOS>MOLECULE
*****
 55 59 0 0 0
SMALL
GASTEIGER

@<TRIPOS>ATOM
      1 C          -0.6120    0.8651    0.8596 C.3     1  UNL1        0.0250
      2 C          -1.3281    2.1980    0.8347 C.3     1  UNL1       -0.0464
      3 C           0.7648    1.1146    1.3800 C.3     1  UNL1       -0.0186
      4 C           1.6733   -0.0865    1.3493 C.3     1  UNL1        0.0180
      5 N           2.3380   -0.0857    0.0575 N.pl3   1  UNL1       -0.2835
      6 C           1.6750    0.2249   -1.1951 C.3     1  UNL1        0.0321
      7 C           0.3607   -0.5040   -1.1731 C.3     1  UNL1        0.0311
      8 N          -0.6497    0.1559   -0.3886 N.am    1  UNL1       -0.2931
      9 C          -1.9432    0.0819   -0.9828 C.2     1  UNL1        0.2490
     10 O          -1.9929   -0.5470   -2.0945 O.2     1  UNL1       -0.2699
     11 C          -3.3043    0.4786   -0.7828 C.ar    1  UNL1        0.0642
     12 C          -4.2000   -0.3466   -0.0935 C.ar    1  UNL1        0.0982
     13 C          -5.5247    0.0671    0.0869 C.ar    1  UNL1       -0.0336
     14 C          -5.8814    1.2919   -0.4362 C.ar    1  UNL1       -0.0567
     15 C          -5.0312    2.1324   -1.1199 C.ar    1  UNL1       -0.0496
     16 C          -5.5476    3.4295   -1.6328 C.3     1  UNL1       -0.0397
     17 C          -3.7330    1.6942   -1.2799 C.ar    1  UNL1       -0.0446
     18 N          -3.7809   -1.6214    0.4363 N.ar    1  UNL1       -0.1496
     19 N          -4.6221   -2.6457    0.5160 N.ar    1  UNL1       -0.1556
     20 C          -3.9916   -3.6901    1.0342 C.ar    1  UNL1        0.0697
     21 C          -2.7053   -3.2526    1.2724 C.ar    1  UNL1        0.0697
     22 N          -2.6109   -1.9662    0.8898 N.ar    1  UNL1       -0.1556
     23 C           3.7029   -0.4071    0.0401 C.ar    1  UNL1        0.2912
     24 N           4.4291   -0.7114    1.1185 N.ar    1  UNL1       -0.1953
     25 C           5.6949   -0.9636    0.7283 C.ar    1  UNL1        0.1126
     26 C           5.7163   -0.7990   -0.6554 C.ar    1  UNL1        0.1571
     27 O           4.4914   -0.4673   -0.9931 O.2     1  UNL1       -0.4244
     28 C           6.9317   -1.0114   -1.2728 C.ar    1  UNL1       -0.0157
     29 C           8.0568   -1.3664   -0.5521 C.ar    1  UNL1       -0.0398
     30 C           7.9787   -1.5161    0.8200 C.ar    1  UNL1        0.0432
     31 CL          9.3541   -1.9647    1.8204 Cl      1  UNL1       -0.0835
     32 C           6.7908   -1.3199    1.5162 C.ar    1  UNL1       -0.0142
     33 H          -1.1343    0.2792    1.6730 H       1  UNL1        0.0498
     34 H          -2.3752    2.1118    1.2469 H       1  UNL1        0.0248
     35 H          -0.8415    2.9124    1.5625 H       1  UNL1        0.0248
     36 H          -1.2739    2.7128   -0.1308 H       1  UNL1        0.0248
     37 H           1.2223    1.9903    0.8398 H       1  UNL1        0.0298
     38 H           0.6736    1.4327    2.4467 H       1  UNL1        0.0298
     39 H           1.0752   -1.0201    1.4503 H       1  UNL1        0.0466
     40 H           2.4152   -0.0127    2.1777 H       1  UNL1        0.0466
     41 H           2.2801   -0.2272   -1.9915 H       1  UNL1        0.0480
     42 H           1.6013    1.3016   -1.3856 H       1  UNL1        0.0480
     43 H          -0.0014   -0.7465   -2.1760 H       1  UNL1        0.0480
     44 H           0.5447   -1.4925   -0.6598 H       1  UNL1        0.0480
     45 H          -6.2405   -0.5269    0.6042 H       1  UNL1        0.0640
     46 H          -6.9139    1.6194   -0.2981 H       1  UNL1        0.0621
     47 H          -5.0102    3.6364   -2.5782 H       1  UNL1        0.0278
     48 H          -5.4014    4.2045   -0.8508 H       1  UNL1        0.0278
     49 H          -6.6375    3.3175   -1.8398 H       1  UNL1        0.0278
     50 H          -3.0699    2.3633   -1.8201 H       1  UNL1        0.0628
     51 H          -4.2413   -4.7288    1.2922 H       1  UNL1        0.0864
     52 H          -1.8268   -3.7420    1.6865 H       1  UNL1        0.0864
     53 H           6.9693   -0.8897   -2.3381 H       1  UNL1        0.0655
     54 H           9.0129   -1.5351   -1.0242 H       1  UNL1        0.0633
     55 H           6.6736   -1.4221    2.5767 H       1  UNL1        0.0654
@<TRIPOS>BOND
     1     1     2    1
     2     1     3    1
     3     3     4    1
     4     4     5    1
     5     5     6    1
     6     6     7    1
     7     7     8    1
     8     8     9   am
     9     9    10    2
    10     9    11    1
    11    11    12   ar
    12    12    13   ar
    13    13    14   ar
    14    14    15   ar
    15    15    16    1
    16    15    17   ar
    17    12    18    1
    18    18    19   ar
    19    19    20   ar
    20    20    21   ar
    21    21    22   ar
    22     5    23    1
    23    23    24   ar
    24    24    25   ar
    25    25    26   ar
    26    26    27   ar
    27    26    28   ar
    28    28    29   ar
    29    29    30   ar
    30    30    31    1
    31    30    32   ar
    32     8     1    1
    33    17    11   ar
    34    22    18   ar
    35    27    23   ar
    36    32    25   ar
    37     1    33    1
    38     2    34    1
    39     2    35    1
    40     2    36    1
    41     3    37    1
    42     3    38    1
    43     4    39    1
    44     4    40    1
    45     6    41    1
    46     6    42    1
    47     7    43    1
    48     7    44    1
    49    13    45    1
    50    14    46    1
    51    16    47    1
    52    16    48    1
    53    16    49    1
    54    17    50    1
    55    20    51    1
    56    21    52    1
    57    28    53    1
    58    29    54    1
    59    32    55    1
