@<TRIPOS>MOLECULE
*****
 57 60 0 0 0
SMALL
GASTEIGER

@<TRIPOS>ATOM
      1 N          -9.8416   -1.5597   -1.4388 N.am    1  UNL1       -0.3253
      2 C          -8.9404   -0.4645   -1.2432 C.2     1  UNL1        0.2436
      3 O          -9.2843    0.7129   -1.5048 O.2     1  UNL1       -0.2703
      4 C          -7.6183   -0.7521   -0.7343 C.ar    1  UNL1        0.0625
      5 C          -7.2458   -2.0415   -0.4493 C.ar    1  UNL1       -0.0475
      6 C          -5.9901   -2.2825    0.0303 C.ar    1  UNL1       -0.0603
      7 C          -5.0804   -1.2460    0.2358 C.ar    1  UNL1       -0.0492
      8 C          -5.4784    0.0420   -0.0583 C.ar    1  UNL1        0.0409
      9 C          -4.6486    1.1171    0.1140 C.ar    1  UNL1        0.1300
     10 N          -3.3413    0.9711    0.6010 N.pl3   1  UNL1       -0.3244
     11 C          -2.4909    2.1521    0.7682 C.3     1  UNL1        0.0357
     12 C          -1.1646    1.7450    1.2927 C.ar    1  UNL1       -0.0286
     13 C          -0.9813    1.6965    2.6540 C.ar    1  UNL1       -0.0570
     14 C           0.2485    1.3188    3.1022 C.ar    1  UNL1       -0.0597
     15 C           1.3113    0.9850    2.2593 C.ar    1  UNL1       -0.0405
     16 C           1.1220    1.0354    0.9046 C.ar    1  UNL1        0.0340
     17 N           2.1118    0.7235   -0.0551 N.am    1  UNL1       -0.2815
     18 C           3.4310    0.3167    0.1566 C.2     1  UNL1        0.2484
     19 O           3.8413    0.1969    1.3294 O.2     1  UNL1       -0.2699
     20 C           4.3759    0.0178   -0.9428 C.ar    1  UNL1        0.0417
     21 C           4.0174    0.1208   -2.2464 C.ar    1  UNL1       -0.0313
     22 C           4.9589   -0.1764   -3.2363 C.ar    1  UNL1        0.0304
     23 N           6.1990   -0.5578   -2.8988 N.ar    1  UNL1       -0.2405
     24 C           6.5595   -0.6615   -1.6088 C.ar    1  UNL1        0.1194
     25 N           7.8970   -1.0730   -1.2582 N.pl3   1  UNL1       -0.3269
     26 C           8.2343   -1.1688    0.1447 C.3     1  UNL1        0.0336
     27 C           9.6709   -1.6120    0.3338 C.3     1  UNL1        0.0597
     28 O          10.0015   -1.7061    1.6812 O.3     1  UNL1       -0.3935
     29 C           5.6409   -0.3715   -0.6323 C.ar    1  UNL1       -0.0098
     30 C          -0.1502    1.4260    0.4261 C.ar    1  UNL1       -0.0358
     31 N          -5.0761    2.3423   -0.1833 N.ar    1  UNL1       -0.2203
     32 C          -6.2855    2.5941   -0.6475 C.ar    1  UNL1        0.1187
     33 N          -7.1237    1.5719   -0.8290 N.ar    1  UNL1       -0.2345
     34 C          -6.7513    0.3064   -0.5468 C.ar    1  UNL1        0.0881
     35 H          -9.6850   -2.1732   -2.2639 H       1  UNL1        0.1453
     36 H         -10.6004   -1.6869   -0.7542 H       1  UNL1        0.1453
     37 H          -7.9558   -2.8599   -0.6086 H       1  UNL1        0.0626
     38 H          -5.6545   -3.2719    0.2669 H       1  UNL1        0.0618
     39 H          -4.1024   -1.4303    0.6089 H       1  UNL1        0.0625
     40 H          -2.9353    0.0585    0.8539 H       1  UNL1        0.1478
     41 H          -2.3630    2.6663   -0.2242 H       1  UNL1        0.0511
     42 H          -2.9622    2.8243    1.5102 H       1  UNL1        0.0511
     43 H          -1.8067    1.9559    3.3381 H       1  UNL1        0.0621
     44 H           0.4589    1.2601    4.1710 H       1  UNL1        0.0618
     45 H           2.2604    0.6939    2.6678 H       1  UNL1        0.0636
     46 H           1.8263    0.8056   -1.0834 H       1  UNL1        0.1551
     47 H           3.0577    0.4155   -2.5838 H       1  UNL1        0.0640
     48 H           4.6800   -0.0966   -4.2961 H       1  UNL1        0.0830
     49 H           8.5783   -1.2883   -2.0128 H       1  UNL1        0.1475
     50 H           8.1010   -0.1848    0.6176 H       1  UNL1        0.0484
     51 H           7.5671   -1.8988    0.6355 H       1  UNL1        0.0484
     52 H           9.8348   -2.6162   -0.1176 H       1  UNL1        0.0573
     53 H          10.3571   -0.8825   -0.1272 H       1  UNL1        0.0573
     54 H          10.2086   -2.6381    1.9583 H       1  UNL1        0.2095
     55 H           5.9490   -0.4604    0.4152 H       1  UNL1        0.0659
     56 H          -0.3267    1.4741   -0.6519 H       1  UNL1        0.0639
     57 H          -6.6157    3.6148   -0.8858 H       1  UNL1        0.1048
@<TRIPOS>BOND
     1     1     2   am
     2     2     3    2
     3     2     4    1
     4     4     5   ar
     5     5     6   ar
     6     6     7   ar
     7     7     8   ar
     8     8     9   ar
     9     9    10    1
    10    10    11    1
    11    11    12    1
    12    12    13   ar
    13    13    14   ar
    14    14    15   ar
    15    15    16   ar
    16    16    17    1
    17    17    18   am
    18    18    19    2
    19    18    20    1
    20    20    21   ar
    21    21    22   ar
    22    22    23   ar
    23    23    24   ar
    24    24    25    1
    25    25    26    1
    26    26    27    1
    27    27    28    1
    28    24    29   ar
    29    16    30   ar
    30     9    31   ar
    31    31    32   ar
    32    32    33   ar
    33    33    34   ar
    34    34     4   ar
    35    34     8   ar
    36    30    12   ar
    37    29    20   ar
    38     1    35    1
    39     1    36    1
    40     5    37    1
    41     6    38    1
    42     7    39    1
    43    10    40    1
    44    11    41    1
    45    11    42    1
    46    13    43    1
    47    14    44    1
    48    15    45    1
    49    17    46    1
    50    21    47    1
    51    22    48    1
    52    25    49    1
    53    26    50    1
    54    26    51    1
    55    27    52    1
    56    27    53    1
    57    28    54    1
    58    29    55    1
    59    30    56    1
    60    32    57    1
