
     RDKit          3D

 57 60  0  0  0  0  0  0  0  0999 V2000
   -9.8416   -1.5597   -1.4388 N   0  0  0  0  0  0  0  0  0  0  0  0
   -8.9404   -0.4645   -1.2432 C   0  0  0  0  0  0  0  0  0  0  0  0
   -9.2843    0.7129   -1.5048 O   0  0  0  0  0  0  0  0  0  0  0  0
   -7.6183   -0.7521   -0.7343 C   0  0  0  0  0  0  0  0  0  0  0  0
   -7.2458   -2.0415   -0.4493 C   0  0  0  0  0  0  0  0  0  0  0  0
   -5.9901   -2.2825    0.0303 C   0  0  0  0  0  0  0  0  0  0  0  0
   -5.0804   -1.2460    0.2358 C   0  0  0  0  0  0  0  0  0  0  0  0
   -5.4784    0.0420   -0.0583 C   0  0  0  0  0  0  0  0  0  0  0  0
   -4.6486    1.1171    0.1140 C   0  0  0  0  0  0  0  0  0  0  0  0
   -3.3413    0.9711    0.6010 N   0  0  0  0  0  0  0  0  0  0  0  0
   -2.4909    2.1521    0.7682 C   0  0  0  0  0  0  0  0  0  0  0  0
   -1.1646    1.7450    1.2927 C   0  0  0  0  0  0  0  0  0  0  0  0
   -0.9813    1.6965    2.6540 C   0  0  0  0  0  0  0  0  0  0  0  0
    0.2485    1.3188    3.1022 C   0  0  0  0  0  0  0  0  0  0  0  0
    1.3113    0.9850    2.2593 C   0  0  0  0  0  0  0  0  0  0  0  0
    1.1220    1.0354    0.9046 C   0  0  0  0  0  0  0  0  0  0  0  0
    2.1118    0.7235   -0.0551 N   0  0  0  0  0  0  0  0  0  0  0  0
    3.4310    0.3167    0.1566 C   0  0  0  0  0  0  0  0  0  0  0  0
    3.8413    0.1969    1.3294 O   0  0  0  0  0  0  0  0  0  0  0  0
    4.3759    0.0178   -0.9428 C   0  0  0  0  0  0  0  0  0  0  0  0
    4.0174    0.1208   -2.2464 C   0  0  0  0  0  0  0  0  0  0  0  0
    4.9589   -0.1764   -3.2363 C   0  0  0  0  0  0  0  0  0  0  0  0
    6.1990   -0.5578   -2.8988 N   0  0  0  0  0  0  0  0  0  0  0  0
    6.5595   -0.6615   -1.6088 C   0  0  0  0  0  0  0  0  0  0  0  0
    7.8970   -1.0730   -1.2582 N   0  0  0  0  0  0  0  0  0  0  0  0
    8.2343   -1.1688    0.1447 C   0  0  0  0  0  0  0  0  0  0  0  0
    9.6709   -1.6120    0.3338 C   0  0  0  0  0  0  0  0  0  0  0  0
   10.0015   -1.7061    1.6812 O   0  0  0  0  0  0  0  0  0  0  0  0
    5.6409   -0.3715   -0.6323 C   0  0  0  0  0  0  0  0  0  0  0  0
   -0.1502    1.4260    0.4261 C   0  0  0  0  0  0  0  0  0  0  0  0
   -5.0761    2.3423   -0.1833 N   0  0  0  0  0  0  0  0  0  0  0  0
   -6.2855    2.5941   -0.6475 C   0  0  0  0  0  0  0  0  0  0  0  0
   -7.1237    1.5719   -0.8290 N   0  0  0  0  0  0  0  0  0  0  0  0
   -6.7513    0.3064   -0.5468 C   0  0  0  0  0  0  0  0  0  0  0  0
   -9.6850   -2.1732   -2.2639 H   0  0  0  0  0  0  0  0  0  0  0  0
  -10.6004   -1.6869   -0.7542 H   0  0  0  0  0  0  0  0  0  0  0  0
   -7.9558   -2.8599   -0.6086 H   0  0  0  0  0  0  0  0  0  0  0  0
   -5.6545   -3.2719    0.2669 H   0  0  0  0  0  0  0  0  0  0  0  0
   -4.1024   -1.4303    0.6089 H   0  0  0  0  0  0  0  0  0  0  0  0
   -2.9353    0.0585    0.8539 H   0  0  0  0  0  0  0  0  0  0  0  0
   -2.3630    2.6663   -0.2242 H   0  0  0  0  0  0  0  0  0  0  0  0
   -2.9622    2.8243    1.5102 H   0  0  0  0  0  0  0  0  0  0  0  0
   -1.8067    1.9559    3.3381 H   0  0  0  0  0  0  0  0  0  0  0  0
    0.4589    1.2601    4.1710 H   0  0  0  0  0  0  0  0  0  0  0  0
    2.2604    0.6939    2.6678 H   0  0  0  0  0  0  0  0  0  0  0  0
    1.8263    0.8056   -1.0834 H   0  0  0  0  0  0  0  0  0  0  0  0
    3.0577    0.4155   -2.5838 H   0  0  0  0  0  0  0  0  0  0  0  0
    4.6800   -0.0966   -4.2961 H   0  0  0  0  0  0  0  0  0  0  0  0
    8.5783   -1.2883   -2.0128 H   0  0  0  0  0  0  0  0  0  0  0  0
    8.1010   -0.1848    0.6176 H   0  0  0  0  0  0  0  0  0  0  0  0
    7.5671   -1.8988    0.6355 H   0  0  0  0  0  0  0  0  0  0  0  0
    9.8348   -2.6162   -0.1176 H   0  0  0  0  0  0  0  0  0  0  0  0
   10.3571   -0.8825   -0.1272 H   0  0  0  0  0  0  0  0  0  0  0  0
   10.2086   -2.6381    1.9583 H   0  0  0  0  0  0  0  0  0  0  0  0
    5.9490   -0.4604    0.4152 H   0  0  0  0  0  0  0  0  0  0  0  0
   -0.3267    1.4741   -0.6519 H   0  0  0  0  0  0  0  0  0  0  0  0
   -6.6157    3.6148   -0.8858 H   0  0  0  0  0  0  0  0  0  0  0  0
  1  2  1  0
  2  3  2  0
  2  4  1  0
  4  5  2  0
  5  6  1  0
  6  7  2  0
  7  8  1  0
  8  9  2  0
  9 10  1  0
 10 11  1  0
 11 12  1  0
 12 13  2  0
 13 14  1  0
 14 15  2  0
 15 16  1  0
 16 17  1  0
 17 18  1  0
 18 19  2  0
 18 20  1  0
 20 21  2  0
 21 22  1  0
 22 23  2  0
 23 24  1  0
 24 25  1  0
 25 26  1  0
 26 27  1  0
 27 28  1  0
 24 29  2  0
 16 30  2  0
  9 31  1  0
 31 32  2  0
 32 33  1  0
 33 34  2  0
 34  4  1  0
 34  8  1  0
 30 12  1  0
 29 20  1  0
  1 35  1  0
  1 36  1  0
  5 37  1  0
  6 38  1  0
  7 39  1  0
 10 40  1  0
 11 41  1  0
 11 42  1  0
 13 43  1  0
 14 44  1  0
 15 45  1  0
 17 46  1  0
 21 47  1  0
 22 48  1  0
 25 49  1  0
 26 50  1  0
 26 51  1  0
 27 52  1  0
 27 53  1  0
 28 54  1  0
 29 55  1  0
 30 56  1  0
 32 57  1  0
M  END
$$$$
