
     RDKit          3D

 65 68  0  0  0  0  0  0  0  0999 V2000
   -1.2217    0.9097   -3.0473 C   0  0  0  0  0  0  0  0  0  0  0  0
   -0.5668   -0.4295   -2.8343 C   0  0  0  0  0  0  0  0  0  0  0  0
    0.5232   -0.3082   -1.8552 N   0  0  0  0  0  0  0  0  0  0  0  0
    1.7987   -0.0326   -2.1183 N   0  0  0  0  0  0  0  0  0  0  0  0
    2.4908   -0.0055   -0.9702 C   0  0  0  0  0  0  0  0  0  0  0  0
    3.9389    0.2613   -0.7840 C   0  0  0  0  0  0  0  0  0  0  0  0
    4.3402    1.5961   -1.3519 C   0  0  0  0  0  0  0  0  0  0  0  0
    5.7768    1.8588   -0.9542 C   0  0  0  0  0  0  0  0  0  0  0  0
    6.4361    0.6712   -0.4475 N   0  0  0  0  0  0  0  0  0  0  0  0
    7.3608    0.7711    0.6181 C   0  0  0  0  0  0  0  0  0  0  0  0
    7.5952    1.8981    1.1097 O   0  0  0  0  0  0  0  0  0  0  0  0
    8.0585   -0.4144    1.1688 C   0  0  0  0  0  0  0  0  0  0  0  0
    8.9857   -0.0148    2.2962 C   0  0  0  0  0  0  0  0  0  0  0  0
    9.9494    0.8907    1.8346 O   0  0  0  0  0  0  0  0  0  0  0  0
    6.1847   -0.6484   -0.9971 C   0  0  0  0  0  0  0  0  0  0  0  0
    4.7815   -0.7903   -1.5097 C   0  0  0  0  0  0  0  0  0  0  0  0
    1.5963   -0.2738    0.0044 N   0  0  0  0  0  0  0  0  0  0  0  0
    0.3791   -0.4624   -0.5294 C   0  0  0  0  0  0  0  0  0  0  0  0
   -0.8506   -0.7715    0.1804 C   0  0  0  0  0  0  0  0  0  0  0  0
   -0.7873   -1.6671    1.2262 C   0  0  0  0  0  0  0  0  0  0  0  0
   -1.8481   -2.0291    1.9517 N   0  0  0  0  0  0  0  0  0  0  0  0
   -3.0422   -1.4961    1.6517 C   0  0  0  0  0  0  0  0  0  0  0  0
   -4.2290   -1.8160    2.3623 N   0  0  0  0  0  0  0  0  0  0  0  0
   -3.1402   -0.5972    0.6117 C   0  0  0  0  0  0  0  0  0  0  0  0
   -4.4495   -0.0178    0.2887 C   0  0  0  0  0  0  0  0  0  0  0  0
   -4.7555    0.8621   -0.6708 N   0  0  0  0  0  0  0  0  0  0  0  0
   -6.0561    1.1241   -0.6193 N   0  0  0  0  0  0  0  0  0  0  0  0
   -6.5668    0.3941    0.3898 C   0  0  0  0  0  0  0  0  0  0  0  0
   -7.9856    0.3425    0.8466 C   0  0  0  0  0  0  0  0  0  0  0  0
   -8.2746    1.3800    1.9100 C   0  0  0  0  0  0  0  0  0  0  0  0
   -8.9243    0.5691   -0.3320 C   0  0  0  0  0  0  0  0  0  0  0  0
   -8.3392   -1.0110    1.4309 C   0  0  0  0  0  0  0  0  0  0  0  0
   -5.5774   -0.2718    0.9046 O   0  0  0  0  0  0  0  0  0  0  0  0
   -2.0473   -0.2386   -0.1188 N   0  0  0  0  0  0  0  0  0  0  0  0
   -1.1072    1.5153   -2.1326 H   0  0  0  0  0  0  0  0  0  0  0  0
   -2.3078    0.7429   -3.1836 H   0  0  0  0  0  0  0  0  0  0  0  0
   -0.8440    1.4238   -3.9545 H   0  0  0  0  0  0  0  0  0  0  0  0
   -1.3053   -1.1530   -2.4791 H   0  0  0  0  0  0  0  0  0  0  0  0
   -0.0795   -0.7878   -3.7716 H   0  0  0  0  0  0  0  0  0  0  0  0
    4.2321    0.2207    0.2644 H   0  0  0  0  0  0  0  0  0  0  0  0
    4.3347    1.5601   -2.4760 H   0  0  0  0  0  0  0  0  0  0  0  0
    3.7044    2.4328   -0.9999 H   0  0  0  0  0  0  0  0  0  0  0  0
    5.7810    2.6114   -0.1298 H   0  0  0  0  0  0  0  0  0  0  0  0
    6.3652    2.2922   -1.7855 H   0  0  0  0  0  0  0  0  0  0  0  0
    8.6586   -0.9072    0.3642 H   0  0  0  0  0  0  0  0  0  0  0  0
    7.3457   -1.1568    1.6025 H   0  0  0  0  0  0  0  0  0  0  0  0
    8.3760    0.4927    3.0711 H   0  0  0  0  0  0  0  0  0  0  0  0
    9.4596   -0.9406    2.6932 H   0  0  0  0  0  0  0  0  0  0  0  0
   10.4027    0.5321    1.0244 H   0  0  0  0  0  0  0  0  0  0  0  0
    6.3492   -1.4451   -0.2405 H   0  0  0  0  0  0  0  0  0  0  0  0
    6.8741   -0.8614   -1.8557 H   0  0  0  0  0  0  0  0  0  0  0  0
    4.3970   -1.8035   -1.3423 H   0  0  0  0  0  0  0  0  0  0  0  0
    4.7631   -0.4952   -2.5855 H   0  0  0  0  0  0  0  0  0  0  0  0
    0.1696   -2.1108    1.4863 H   0  0  0  0  0  0  0  0  0  0  0  0
   -5.0491   -2.3042    1.9380 H   0  0  0  0  0  0  0  0  0  0  0  0
   -4.3110   -1.5607    3.3615 H   0  0  0  0  0  0  0  0  0  0  0  0
   -9.1312    1.0255    2.5527 H   0  0  0  0  0  0  0  0  0  0  0  0
   -8.5460    2.3404    1.4507 H   0  0  0  0  0  0  0  0  0  0  0  0
   -7.3998    1.4588    2.5826 H   0  0  0  0  0  0  0  0  0  0  0  0
   -9.9327    0.8250    0.0188 H   0  0  0  0  0  0  0  0  0  0  0  0
   -8.4518    1.3936   -0.9329 H   0  0  0  0  0  0  0  0  0  0  0  0
   -8.9799   -0.3053   -0.9885 H   0  0  0  0  0  0  0  0  0  0  0  0
   -7.6294   -1.7972    1.0962 H   0  0  0  0  0  0  0  0  0  0  0  0
   -9.3781   -1.2957    1.1661 H   0  0  0  0  0  0  0  0  0  0  0  0
   -8.2943   -1.0041    2.5389 H   0  0  0  0  0  0  0  0  0  0  0  0
  1  2  1  0
  2  3  1  0
  3  4  1  0
  4  5  2  0
  5  6  1  0
  6  7  1  0
  7  8  1  0
  8  9  1  0
  9 10  1  0
 10 11  2  0
 10 12  1  0
 12 13  1  0
 13 14  1  0
  9 15  1  0
 15 16  1  0
  5 17  1  0
 17 18  2  0
 18 19  1  0
 19 20  2  0
 20 21  1  0
 21 22  2  0
 22 23  1  0
 22 24  1  0
 24 25  1  0
 25 26  2  0
 26 27  1  0
 27 28  2  0
 28 29  1  0
 29 30  1  0
 29 31  1  0
 29 32  1  0
 28 33  1  0
 24 34  2  0
 18  3  1  0
 34 19  1  0
 16  6  1  0
 33 25  1  0
  1 35  1  0
  1 36  1  0
  1 37  1  0
  2 38  1  0
  2 39  1  0
  6 40  1  0
  7 41  1  0
  7 42  1  0
  8 43  1  0
  8 44  1  0
 12 45  1  0
 12 46  1  0
 13 47  1  0
 13 48  1  0
 14 49  1  0
 15 50  1  0
 15 51  1  0
 16 52  1  0
 16 53  1  0
 20 54  1  0
 23 55  1  0
 23 56  1  0
 30 57  1  0
 30 58  1  0
 30 59  1  0
 31 60  1  0
 31 61  1  0
 31 62  1  0
 32 63  1  0
 32 64  1  0
 32 65  1  0
M  END
$$$$
