@<TRIPOS>MOLECULE
*****
 65 68 0 0 0
SMALL
GASTEIGER

@<TRIPOS>ATOM
      1 C          -1.2217    0.9097   -3.0473 C.3     1  UNL1       -0.0454
      2 C          -0.5668   -0.4295   -2.8343 C.3     1  UNL1        0.0411
      3 N           0.5232   -0.3082   -1.8552 N.ar    1  UNL1       -0.2438
      4 N           1.7987   -0.0326   -2.1183 N.ar    1  UNL1       -0.1541
      5 C           2.4908   -0.0055   -0.9702 C.ar    1  UNL1        0.1548
      6 C           3.9389    0.2613   -0.7840 C.3     1  UNL1        0.0236
      7 C           4.3402    1.5961   -1.3519 C.3     1  UNL1       -0.0273
      8 C           5.7768    1.8588   -0.9542 C.3     1  UNL1        0.0153
      9 N           6.4361    0.6712   -0.4475 N.am    1  UNL1       -0.3014
     10 C           7.3608    0.7711    0.6181 C.2     1  UNL1        0.2177
     11 O           7.5952    1.8981    1.1097 O.2     1  UNL1       -0.2755
     12 C           8.0585   -0.4144    1.1688 C.3     1  UNL1        0.0473
     13 C           8.9857   -0.0148    2.2962 C.3     1  UNL1        0.0525
     14 O           9.9494    0.8907    1.8346 O.3     1  UNL1       -0.3945
     15 C           6.1847   -0.6484   -0.9971 C.3     1  UNL1        0.0153
     16 C           4.7815   -0.7903   -1.5097 C.3     1  UNL1       -0.0273
     17 N           1.5963   -0.2738    0.0044 N.ar    1  UNL1       -0.2093
     18 C           0.3791   -0.4624   -0.5294 C.ar    1  UNL1        0.1787
     19 C          -0.8506   -0.7715    0.1804 C.ar    1  UNL1        0.1266
     20 C          -0.7873   -1.6671    1.2262 C.ar    1  UNL1        0.0587
     21 N          -1.8481   -2.0291    1.9517 N.ar    1  UNL1       -0.2361
     22 C          -3.0422   -1.4961    1.6517 C.ar    1  UNL1        0.1472
     23 N          -4.2290   -1.8160    2.3623 N.pl3   1  UNL1       -0.3413
     24 C          -3.1402   -0.5972    0.6117 C.ar    1  UNL1        0.1672
     25 C          -4.4495   -0.0178    0.2887 C.ar    1  UNL1        0.2701
     26 N          -4.7555    0.8621   -0.6708 N.ar    1  UNL1       -0.1055
     27 N          -6.0561    1.1241   -0.6193 N.ar    1  UNL1       -0.1115
     28 C          -6.5668    0.3941    0.3898 C.ar    1  UNL1        0.2230
     29 C          -7.9856    0.3425    0.8466 C.3     1  UNL1        0.0401
     30 C          -8.2746    1.3800    1.9100 C.3     1  UNL1       -0.0516
     31 C          -8.9243    0.5691   -0.3320 C.3     1  UNL1       -0.0516
     32 C          -8.3392   -1.0110    1.4309 C.3     1  UNL1       -0.0516
     33 O          -5.5774   -0.2718    0.9046 O.2     1  UNL1       -0.4183
     34 N          -2.0473   -0.2386   -0.1188 N.ar    1  UNL1       -0.2338
     35 H          -1.1072    1.5153   -2.1326 H       1  UNL1        0.0247
     36 H          -2.3078    0.7429   -3.1836 H       1  UNL1        0.0247
     37 H          -0.8440    1.4238   -3.9545 H       1  UNL1        0.0247
     38 H          -1.3053   -1.1530   -2.4791 H       1  UNL1        0.0507
     39 H          -0.0795   -0.7878   -3.7716 H       1  UNL1        0.0507
     40 H           4.2321    0.2207    0.2644 H       1  UNL1        0.0381
     41 H           4.3347    1.5601   -2.4760 H       1  UNL1        0.0287
     42 H           3.7044    2.4328   -0.9999 H       1  UNL1        0.0287
     43 H           5.7810    2.6114   -0.1298 H       1  UNL1        0.0465
     44 H           6.3652    2.2922   -1.7855 H       1  UNL1        0.0465
     45 H           8.6586   -0.9072    0.3642 H       1  UNL1        0.0381
     46 H           7.3457   -1.1568    1.6025 H       1  UNL1        0.0381
     47 H           8.3760    0.4927    3.0711 H       1  UNL1        0.0562
     48 H           9.4596   -0.9406    2.6932 H       1  UNL1        0.0562
     49 H          10.4027    0.5321    1.0244 H       1  UNL1        0.2094
     50 H           6.3492   -1.4451   -0.2405 H       1  UNL1        0.0465
     51 H           6.8741   -0.8614   -1.8557 H       1  UNL1        0.0465
     52 H           4.3970   -1.8035   -1.3423 H       1  UNL1        0.0287
     53 H           4.7631   -0.4952   -2.5855 H       1  UNL1        0.0287
     54 H           0.1696   -2.1108    1.4863 H       1  UNL1        0.0853
     55 H          -5.0491   -2.3042    1.9380 H       1  UNL1        0.1438
     56 H          -4.3110   -1.5607    3.3615 H       1  UNL1        0.1438
     57 H          -9.1312    1.0255    2.5527 H       1  UNL1        0.0240
     58 H          -8.5460    2.3404    1.4507 H       1  UNL1        0.0240
     59 H          -7.3998    1.4588    2.5826 H       1  UNL1        0.0240
     60 H          -9.9327    0.8250    0.0188 H       1  UNL1        0.0240
     61 H          -8.4518    1.3936   -0.9329 H       1  UNL1        0.0240
     62 H          -8.9799   -0.3053   -0.9885 H       1  UNL1        0.0240
     63 H          -7.6294   -1.7972    1.0962 H       1  UNL1        0.0240
     64 H          -9.3781   -1.2957    1.1661 H       1  UNL1        0.0240
     65 H          -8.2943   -1.0041    2.5389 H       1  UNL1        0.0240
@<TRIPOS>BOND
     1     1     2    1
     2     2     3    1
     3     3     4   ar
     4     4     5   ar
     5     5     6    1
     6     6     7    1
     7     7     8    1
     8     8     9    1
     9     9    10   am
    10    10    11    2
    11    10    12    1
    12    12    13    1
    13    13    14    1
    14     9    15    1
    15    15    16    1
    16     5    17   ar
    17    17    18   ar
    18    18    19    1
    19    19    20   ar
    20    20    21   ar
    21    21    22   ar
    22    22    23    1
    23    22    24   ar
    24    24    25    1
    25    25    26   ar
    26    26    27   ar
    27    27    28   ar
    28    28    29    1
    29    29    30    1
    30    29    31    1
    31    29    32    1
    32    28    33   ar
    33    24    34   ar
    34    18     3   ar
    35    34    19   ar
    36    16     6    1
    37    33    25   ar
    38     1    35    1
    39     1    36    1
    40     1    37    1
    41     2    38    1
    42     2    39    1
    43     6    40    1
    44     7    41    1
    45     7    42    1
    46     8    43    1
    47     8    44    1
    48    12    45    1
    49    12    46    1
    50    13    47    1
    51    13    48    1
    52    14    49    1
    53    15    50    1
    54    15    51    1
    55    16    52    1
    56    16    53    1
    57    20    54    1
    58    23    55    1
    59    23    56    1
    60    30    57    1
    61    30    58    1
    62    30    59    1
    63    31    60    1
    64    31    61    1
    65    31    62    1
    66    32    63    1
    67    32    64    1
    68    32    65    1
