@<TRIPOS>MOLECULE
*****
 23 23 0 0 0
SMALL
GASTEIGER

@<TRIPOS>ATOM
      1 C          -3.2256   -0.3631   -0.8905 C.3     1  UNL1        0.0195
      2 N          -2.3865   -0.1923    0.2582 N.pl3   1  UNL1       -0.2434
      3 C          -2.8275   -0.5830    1.5860 C.3     1  UNL1        0.0195
      4 N          -1.1109    0.3635    0.1028 N.2     1  UNL1       -0.0775
      5 N          -0.2519   -0.0097   -0.7377 N.2     1  UNL1       -0.1132
      6 C           1.0459    0.6174   -0.8352 C.ar    1  UNL1        0.1864
      7 C           2.1836    0.1992   -0.1745 C.ar    1  UNL1        0.1706
      8 N           3.1616    1.0594   -0.5468 N.ar    1  UNL1       -0.2290
      9 C           2.6029    1.9511   -1.4002 C.ar    1  UNL1        0.0958
     10 N           1.2930    1.7056   -1.6005 N.ar    1  UNL1       -0.3277
     11 C           2.2896   -0.9314    0.7284 C.2     1  UNL1        0.2636
     12 N           3.5346   -1.2443    1.3397 N.am    1  UNL1       -0.3240
     13 O           1.2386   -1.5936    0.9263 O.2     1  UNL1       -0.2686
     14 H          -2.6099   -0.8097   -1.7064 H       1  UNL1        0.0444
     15 H          -3.6475    0.6242   -1.1559 H       1  UNL1        0.0444
     16 H          -4.0889   -1.0076   -0.6205 H       1  UNL1        0.0444
     17 H          -3.4739    0.2621    1.9610 H       1  UNL1        0.0444
     18 H          -3.4933   -1.4692    1.5728 H       1  UNL1        0.0444
     19 H          -1.9773   -0.6700    2.2914 H       1  UNL1        0.0444
     20 H           3.0708    2.7949   -1.9114 H       1  UNL1        0.1027
     21 H           0.6119    2.2092   -2.1912 H       1  UNL1        0.1683
     22 H           4.0889   -0.8241    2.1304 H       1  UNL1        0.1453
     23 H           3.9719   -2.0887    0.8737 H       1  UNL1        0.1453
@<TRIPOS>BOND
     1     1     2    1
     2     2     3    1
     3     2     4    1
     4     4     5    2
     5     5     6    1
     6     6     7   ar
     7     7     8   ar
     8     8     9   ar
     9     9    10   ar
    10     7    11    1
    11    11    12   am
    12    11    13    2
    13    10     6   ar
    14     1    14    1
    15     1    15    1
    16     1    16    1
    17     3    17    1
    18     3    18    1
    19     3    19    1
    20     9    20    1
    21    10    21    1
    22    12    22    1
    23    12    23    1
