@<TRIPOS>MOLECULE
*****
 120 127 0 0 0
SMALL
GASTEIGER

@<TRIPOS>ATOM
      1 C         -10.5619   -1.2365   -2.5463 C.3     1  UNL1       -0.0437
      2 C         -10.2609   -0.3456   -1.3955 C.2     1  UNL1       -0.0739
      3 C         -11.0166    0.7107   -1.1694 C.2     1  UNL1       -0.0812
      4 C         -10.4346    1.7163   -0.1926 C.3     1  UNL1       -0.0122
      5 C         -10.7113    1.2237    1.1822 C.3     1  UNL1       -0.0055
      6 C          -9.4935    1.0204    2.0054 C.ar    1  UNL1        0.0248
      7 N          -9.5387    1.1936    3.3593 N.ar    1  UNL1       -0.3259
      8 C          -8.4587    1.0384    4.1536 C.ar    1  UNL1        0.2489
      9 O          -8.5354    1.2057    5.4023 O.2     1  UNL1       -0.2679
     10 C          -7.2484    0.6904    3.5935 C.ar    1  UNL1        0.0031
     11 C          -7.1919    0.5101    2.2029 C.ar    1  UNL1       -0.0498
     12 C          -8.2911    0.6713    1.4307 C.ar    1  UNL1       -0.0039
     13 C          -8.3015    0.4919   -0.0592 C.3     1  UNL1        0.0710
     14 C          -9.0936   -0.6817   -0.5235 C.3     1  UNL1       -0.0059
     15 C          -8.9665    1.7635   -0.5726 C.3     1  UNL1       -0.0083
     16 C          -8.2547    2.9956   -0.1435 C.3     1  UNL1       -0.0460
     17 C          -6.7981    2.8682   -0.4870 C.3     1  UNL1       -0.0368
     18 C          -6.4727    1.6000   -1.2601 C.3     1  UNL1        0.0156
     19 N          -6.9600    0.4205   -0.5912 N.am    1  UNL1       -0.2910
     20 C          -6.2049   -0.7694   -0.4354 C.2     1  UNL1        0.2175
     21 O          -6.5938   -1.8094    0.1194 O.2     1  UNL1       -0.2755
     22 C          -4.7752   -0.7869   -1.0000 C.3     1  UNL1        0.0369
     23 C          -4.1146   -1.9872   -0.4780 C.3     1  UNL1        0.0069
     24 N          -2.8117   -2.3695   -0.7980 N.3     1  UNL1       -0.3049
     25 C          -2.6883   -2.8322   -2.1957 C.3     1  UNL1       -0.0127
     26 C          -1.7241   -1.4154   -0.5458 C.3     1  UNL1       -0.0014
     27 C          -1.6642   -0.3819   -1.5684 C.3     1  UNL1       -0.0402
     28 C          -0.7750    0.7821   -1.5159 C.3     1  UNL1       -0.0519
     29 C           0.6865    0.5546   -1.4106 C.3     1  UNL1       -0.0519
     30 C           1.1145    0.0597   -0.0787 C.3     1  UNL1       -0.0402
     31 C           2.6027   -0.1272    0.0049 C.3     1  UNL1       -0.0014
     32 N           3.1721   -1.1431   -0.7147 N.3     1  UNL1       -0.3049
     33 C           3.2387   -1.2445   -2.0873 C.3     1  UNL1       -0.0127
     34 C           3.6381   -2.2749    0.0475 C.3     1  UNL1        0.0069
     35 C           4.7538   -1.8969    0.9551 C.3     1  UNL1        0.0369
     36 C           5.9295   -1.3892    0.2529 C.2     1  UNL1        0.2175
     37 O           6.0081   -1.5088   -0.9607 O.2     1  UNL1       -0.2755
     38 N           6.9815   -0.7547    0.9860 N.am    1  UNL1       -0.2910
     39 C           6.8042   -0.7081    2.4370 C.3     1  UNL1        0.0156
     40 C           8.0590   -1.0236    3.2087 C.3     1  UNL1       -0.0368
     41 C           9.2461   -0.2497    2.6327 C.3     1  UNL1       -0.0460
     42 C           9.3274   -0.7091    1.1931 C.3     1  UNL1       -0.0083
     43 C          10.5879   -0.2582    0.5204 C.3     1  UNL1       -0.0122
     44 C          10.6806   -1.0426   -0.7382 C.2     1  UNL1       -0.0812
     45 C           9.5294   -1.3182   -1.3394 C.2     1  UNL1       -0.0739
     46 C           9.3479   -2.4896   -2.2356 C.3     1  UNL1       -0.0437
     47 C           8.4033   -0.3514   -1.0426 C.3     1  UNL1       -0.0059
     48 C           8.1286   -0.1778    0.3970 C.3     1  UNL1        0.0710
     49 C           8.1803    1.3228    0.6643 C.ar    1  UNL1       -0.0039
     50 C           7.0611    2.0552    0.9408 C.ar    1  UNL1       -0.0498
     51 C           7.1703    3.4190    1.1830 C.ar    1  UNL1        0.0031
     52 C           8.3967    4.0409    1.1456 C.ar    1  UNL1        0.2489
     53 O           8.5026    5.2910    1.3674 O.2     1  UNL1       -0.2679
     54 N           9.4706    3.2861    0.8687 N.ar    1  UNL1       -0.3259
     55 C           9.4009    1.9439    0.6260 C.ar    1  UNL1        0.0248
     56 C          10.6484    1.2100    0.3070 C.3     1  UNL1       -0.0055
     57 H         -10.0825   -2.2209   -2.4866 H       1  UNL1        0.0274
     58 H         -10.2510   -0.6932   -3.4871 H       1  UNL1        0.0274
     59 H         -11.6627   -1.3792   -2.6006 H       1  UNL1        0.0274
     60 H         -11.9513    0.8655   -1.6180 H       1  UNL1        0.0575
     61 H         -10.8712    2.7223   -0.3241 H       1  UNL1        0.0350
     62 H         -11.3332    1.9899    1.7282 H       1  UNL1        0.0333
     63 H         -11.2582    0.2538    1.1603 H       1  UNL1        0.0333
     64 H         -10.4352    1.4574    3.8222 H       1  UNL1        0.1686
     65 H          -6.3472    0.5502    4.1666 H       1  UNL1        0.0672
     66 H          -6.2387    0.2528    1.7704 H       1  UNL1        0.0623
     67 H          -9.5243   -1.2984    0.3186 H       1  UNL1        0.0334
     68 H          -8.4348   -1.3541   -1.1451 H       1  UNL1        0.0334
     69 H          -8.9167    1.7212   -1.6798 H       1  UNL1        0.0331
     70 H          -8.4303    3.2085    0.9295 H       1  UNL1        0.0269
     71 H          -8.6895    3.8576   -0.7067 H       1  UNL1        0.0269
     72 H          -6.1557    2.9096    0.4382 H       1  UNL1        0.0280
     73 H          -6.4675    3.7264   -1.1045 H       1  UNL1        0.0280
     74 H          -6.9753    1.7478   -2.2664 H       1  UNL1        0.0465
     75 H          -5.4076    1.6194   -1.4799 H       1  UNL1        0.0465
     76 H          -4.8536   -0.6842   -2.0714 H       1  UNL1        0.0371
     77 H          -4.3798    0.1778   -0.5705 H       1  UNL1        0.0371
     78 H          -4.2374   -2.0832    0.6509 H       1  UNL1        0.0431
     79 H          -4.7824   -2.8694   -0.8157 H       1  UNL1        0.0431
     80 H          -1.5882   -3.0280   -2.3353 H       1  UNL1        0.0391
     81 H          -3.1940   -3.7965   -2.2569 H       1  UNL1        0.0391
     82 H          -2.9922   -2.0736   -2.9173 H       1  UNL1        0.0391
     83 H          -0.8114   -2.0993   -0.6983 H       1  UNL1        0.0426
     84 H          -1.7129   -1.1301    0.5034 H       1  UNL1        0.0426
     85 H          -2.6652    0.0134   -1.9246 H       1  UNL1        0.0278
     86 H          -1.2720   -0.9713   -2.5294 H       1  UNL1        0.0278
     87 H          -1.1290    1.4746   -0.6754 H       1  UNL1        0.0266
     88 H          -1.0068    1.4005   -2.4641 H       1  UNL1        0.0266
     89 H           1.1466    1.6093   -1.5446 H       1  UNL1        0.0266
     90 H           1.0662   -0.0165   -2.2853 H       1  UNL1        0.0266
     91 H           0.6111   -0.8694    0.1870 H       1  UNL1        0.0278
     92 H           0.8529    0.8575    0.7182 H       1  UNL1        0.0278
     93 H           2.8719   -0.1630    1.1071 H       1  UNL1        0.0426
     94 H           3.1167    0.8613   -0.2957 H       1  UNL1        0.0426
     95 H           3.3272   -0.2740   -2.5921 H       1  UNL1        0.0391
     96 H           2.3039   -1.7626   -2.4730 H       1  UNL1        0.0391
     97 H           4.0530   -1.9203   -2.4651 H       1  UNL1        0.0391
     98 H           2.8069   -2.6836    0.6934 H       1  UNL1        0.0431
     99 H           3.9479   -3.0595   -0.6586 H       1  UNL1        0.0431
    100 H           4.9854   -2.8088    1.5708 H       1  UNL1        0.0371
    101 H           4.4332   -1.1380    1.7088 H       1  UNL1        0.0371
    102 H           6.3036    0.2017    2.7884 H       1  UNL1        0.0465
    103 H           6.0785   -1.5402    2.7336 H       1  UNL1        0.0465
    104 H           8.2249   -2.1212    3.0718 H       1  UNL1        0.0280
    105 H           7.8807   -0.8028    4.2611 H       1  UNL1        0.0280
    106 H           9.0353    0.8111    2.7600 H       1  UNL1        0.0269
    107 H          10.1361   -0.6317    3.1400 H       1  UNL1        0.0269
    108 H           9.3104   -1.8151    1.1963 H       1  UNL1        0.0331
    109 H          11.4304   -0.5761    1.2062 H       1  UNL1        0.0350
    110 H          11.5963   -1.3932   -1.1668 H       1  UNL1        0.0575
    111 H           8.5563   -2.2412   -2.9817 H       1  UNL1        0.0274
    112 H           8.9872   -3.3946   -1.6917 H       1  UNL1        0.0274
    113 H          10.2601   -2.7077   -2.8293 H       1  UNL1        0.0274
    114 H           7.5769   -0.5350   -1.7327 H       1  UNL1        0.0334
    115 H           8.8403    0.6353   -1.4852 H       1  UNL1        0.0334
    116 H           6.0999    1.5617    0.9483 H       1  UNL1        0.0623
    117 H           6.2724    3.9828    1.4003 H       1  UNL1        0.0672
    118 H          10.4062    3.7605    0.8409 H       1  UNL1        0.1686
    119 H          11.4759    1.6480    0.9424 H       1  UNL1        0.0333
    120 H          10.9346    1.4557   -0.7382 H       1  UNL1        0.0333
@<TRIPOS>BOND
     1     1     2    1
     2     2     3    2
     3     3     4    1
     4     4     5    1
     5     5     6    1
     6     6     7   ar
     7     7     8   ar
     8     8     9    2
     9     8    10   ar
    10    10    11   ar
    11    11    12   ar
    12    12    13    1
    13    13    14    1
    14    13    15    1
    15    15    16    1
    16    16    17    1
    17    17    18    1
    18    18    19    1
    19    19    20   am
    20    20    21    2
    21    20    22    1
    22    22    23    1
    23    23    24    1
    24    24    25    1
    25    24    26    1
    26    26    27    1
    27    27    28    1
    28    28    29    1
    29    29    30    1
    30    30    31    1
    31    31    32    1
    32    32    33    1
    33    32    34    1
    34    34    35    1
    35    35    36    1
    36    36    37    2
    37    36    38   am
    38    38    39    1
    39    39    40    1
    40    40    41    1
    41    41    42    1
    42    42    43    1
    43    43    44    1
    44    44    45    2
    45    45    46    1
    46    45    47    1
    47    47    48    1
    48    48    49    1
    49    49    50   ar
    50    50    51   ar
    51    51    52   ar
    52    52    53    2
    53    52    54   ar
    54    54    55   ar
    55    55    56    1
    56    14     2    1
    57    48    38    1
    58    55    49   ar
    59    15     4    1
    60    48    42    1
    61    12     6   ar
    62    13    19    1
    63    56    43    1
    64     1    57    1
    65     1    58    1
    66     1    59    1
    67     3    60    1
    68     4    61    1
    69     5    62    1
    70     5    63    1
    71     7    64    1
    72    10    65    1
    73    11    66    1
    74    14    67    1
    75    14    68    1
    76    15    69    1
    77    16    70    1
    78    16    71    1
    79    17    72    1
    80    17    73    1
    81    18    74    1
    82    18    75    1
    83    22    76    1
    84    22    77    1
    85    23    78    1
    86    23    79    1
    87    25    80    1
    88    25    81    1
    89    25    82    1
    90    26    83    1
    91    26    84    1
    92    27    85    1
    93    27    86    1
    94    28    87    1
    95    28    88    1
    96    29    89    1
    97    29    90    1
    98    30    91    1
    99    30    92    1
   100    31    93    1
   101    31    94    1
   102    33    95    1
   103    33    96    1
   104    33    97    1
   105    34    98    1
   106    34    99    1
   107    35   100    1
   108    35   101    1
   109    39   102    1
   110    39   103    1
   111    40   104    1
   112    40   105    1
   113    41   106    1
   114    41   107    1
   115    42   108    1
   116    43   109    1
   117    44   110    1
   118    46   111    1
   119    46   112    1
   120    46   113    1
   121    47   114    1
   122    47   115    1
   123    50   116    1
   124    51   117    1
   125    54   118    1
   126    56   119    1
   127    56   120    1
