@<TRIPOS>MOLECULE
*****
 69 74 0 0 0
SMALL
GASTEIGER

@<TRIPOS>ATOM
      1 C          -6.2972    1.9931    1.4596 C.3     1  UNL1       -0.0380
      2 C          -6.7666    1.3293    0.2149 C.ar    1  UNL1       -0.0279
      3 C          -8.0815    0.9544    0.0464 C.ar    1  UNL1       -0.0557
      4 C          -8.4856    0.3409   -1.1201 C.ar    1  UNL1       -0.0433
      5 C          -7.5343    0.1245   -2.0886 C.ar    1  UNL1        0.0279
      6 N          -6.2537    0.4910   -1.9216 N.ar    1  UNL1       -0.2583
      7 C          -5.8518    1.0902   -0.7863 C.ar    1  UNL1        0.0581
      8 C          -4.4088    1.4918   -0.6273 C.3     1  UNL1        0.0415
      9 N          -3.7180    0.5683    0.2486 N.3     1  UNL1       -0.2965
     10 C          -3.7000   -0.7857   -0.2161 C.3     1  UNL1        0.0017
     11 C          -2.3586   -1.2214   -0.7697 C.3     1  UNL1       -0.0095
     12 C          -1.2214   -1.0172    0.1665 C.3     1  UNL1        0.1240
     13 C          -1.5546   -0.0278    1.2322 C.3     1  UNL1       -0.0095
     14 C          -2.4307    1.0524    0.6411 C.3     1  UNL1        0.0017
     15 C          -0.0322   -0.4740   -0.5760 C.2     1  UNL1        0.2516
     16 O          -0.0437    0.2290   -1.6241 O.2     1  UNL1       -0.2724
     17 N           1.1374   -0.8984    0.1221 N.am    1  UNL1       -0.1920
     18 C           2.4468   -0.2997    0.0203 C.ar    1  UNL1        0.0455
     19 C           3.3176   -0.7870   -0.9283 C.ar    1  UNL1       -0.0392
     20 C           4.5866   -0.2207   -1.0500 C.ar    1  UNL1       -0.0523
     21 C           4.9896    0.8187   -0.2397 C.ar    1  UNL1       -0.0178
     22 C           6.3191    1.4053   -0.3760 C.ar    1  UNL1       -0.0178
     23 C           6.9984    1.9433    0.6873 C.ar    1  UNL1       -0.0533
     24 C           8.2568    2.5063    0.5911 C.ar    1  UNL1       -0.0472
     25 C           8.8491    2.5196   -0.6535 C.ar    1  UNL1        0.0589
     26 C          10.1846    3.1076   -0.8149 C.2     1  UNL1        0.3368
     27 O          10.7484    3.1302   -1.9385 O.2     1  UNL1       -0.2451
     28 O          10.8562    3.6535    0.2740 O.3     1  UNL1       -0.4771
     29 C           8.2037    1.9899   -1.7513 C.ar    1  UNL1       -0.0472
     30 C           6.9347    1.4311   -1.6119 C.ar    1  UNL1       -0.0533
     31 C           4.1013    1.2853    0.6981 C.ar    1  UNL1       -0.0523
     32 C           2.8504    0.7401    0.8310 C.ar    1  UNL1       -0.0392
     33 C           0.7521   -2.0050    0.9172 C.2     1  UNL1        0.3219
     34 O           1.5093   -2.6581    1.6803 O.2     1  UNL1       -0.2512
     35 N          -0.6534   -2.2477    0.6978 N.am    1  UNL1       -0.2241
     36 C          -1.2701   -3.4874    0.9777 C.ar    1  UNL1        0.1328
     37 C          -1.3181   -4.4431   -0.0086 C.ar    1  UNL1       -0.0031
     38 C          -1.9229   -5.6726    0.2424 C.ar    1  UNL1        0.0326
     39 N          -2.4571   -5.9013    1.4696 N.ar    1  UNL1       -0.2436
     40 C          -2.4044   -4.9607    2.4256 C.ar    1  UNL1        0.1180
     41 N          -1.8119   -3.7630    2.1713 N.ar    1  UNL1       -0.2203
     42 H          -7.1633    2.0471    2.1504 H       1  UNL1        0.0278
     43 H          -5.9925    3.0505    1.2726 H       1  UNL1        0.0278
     44 H          -5.5037    1.4179    1.9664 H       1  UNL1        0.0278
     45 H          -8.7927    1.1563    0.8597 H       1  UNL1        0.0621
     46 H          -9.5254    0.0565   -1.2266 H       1  UNL1        0.0633
     47 H          -7.8919   -0.3670   -3.0054 H       1  UNL1        0.0829
     48 H          -4.3887    2.4781   -0.1226 H       1  UNL1        0.0491
     49 H          -3.8953    1.5210   -1.5991 H       1  UNL1        0.0491
     50 H          -4.4621   -1.0021   -0.9913 H       1  UNL1        0.0427
     51 H          -3.9323   -1.4458    0.6572 H       1  UNL1        0.0427
     52 H          -2.4573   -2.3058   -1.0118 H       1  UNL1        0.0303
     53 H          -2.2279   -0.6664   -1.7416 H       1  UNL1        0.0303
     54 H          -0.6402    0.4846    1.6352 H       1  UNL1        0.0303
     55 H          -2.1321   -0.5388    2.0240 H       1  UNL1        0.0303
     56 H          -1.9322    1.5031   -0.2664 H       1  UNL1        0.0427
     57 H          -2.5250    1.8600    1.3969 H       1  UNL1        0.0427
     58 H           2.9881   -1.6050   -1.5595 H       1  UNL1        0.0636
     59 H           5.2557   -0.6187   -1.8020 H       1  UNL1        0.0624
     60 H           6.5488    1.9415    1.6712 H       1  UNL1        0.0624
     61 H           8.7467    2.9207    1.4835 H       1  UNL1        0.0626
     62 H          11.4366    4.4653    0.0846 H       1  UNL1        0.2954
     63 H           8.7061    2.0191   -2.7209 H       1  UNL1        0.0626
     64 H           6.4869    1.0349   -2.5085 H       1  UNL1        0.0624
     65 H           4.4169    2.0974    1.3307 H       1  UNL1        0.0624
     66 H           2.1243    1.0874    1.5638 H       1  UNL1        0.0636
     67 H          -0.9018   -4.2922   -0.9975 H       1  UNL1        0.0667
     68 H          -1.9673   -6.4327   -0.5245 H       1  UNL1        0.0831
     69 H          -2.8437   -5.1923    3.3824 H       1  UNL1        0.1047
@<TRIPOS>BOND
     1     1     2    1
     2     2     3   ar
     3     3     4   ar
     4     4     5   ar
     5     5     6   ar
     6     6     7   ar
     7     7     8    1
     8     8     9    1
     9     9    10    1
    10    10    11    1
    11    11    12    1
    12    12    13    1
    13    13    14    1
    14    12    15    1
    15    15    16    2
    16    15    17   am
    17    17    18    1
    18    18    19   ar
    19    19    20   ar
    20    20    21   ar
    21    21    22    1
    22    22    23   ar
    23    23    24   ar
    24    24    25   ar
    25    25    26    1
    26    26    27    2
    27    26    28    1
    28    25    29   ar
    29    29    30   ar
    30    21    31   ar
    31    31    32   ar
    32    17    33   am
    33    33    34    2
    34    33    35   am
    35    35    36    1
    36    36    37   ar
    37    37    38   ar
    38    38    39   ar
    39    39    40   ar
    40    40    41   ar
    41     7     2   ar
    42    14     9    1
    43    32    18   ar
    44    41    36   ar
    45    35    12    1
    46    30    22   ar
    47     1    42    1
    48     1    43    1
    49     1    44    1
    50     3    45    1
    51     4    46    1
    52     5    47    1
    53     8    48    1
    54     8    49    1
    55    10    50    1
    56    10    51    1
    57    11    52    1
    58    11    53    1
    59    13    54    1
    60    13    55    1
    61    14    56    1
    62    14    57    1
    63    19    58    1
    64    20    59    1
    65    23    60    1
    66    24    61    1
    67    28    62    1
    68    29    63    1
    69    30    64    1
    70    31    65    1
    71    32    66    1
    72    37    67    1
    73    38    68    1
    74    40    69    1
