
     RDKit          3D

 69 74  0  0  0  0  0  0  0  0999 V2000
   -6.2972    1.9931    1.4596 C   0  0  0  0  0  0  0  0  0  0  0  0
   -6.7666    1.3293    0.2149 C   0  0  0  0  0  0  0  0  0  0  0  0
   -8.0815    0.9544    0.0464 C   0  0  0  0  0  0  0  0  0  0  0  0
   -8.4856    0.3409   -1.1201 C   0  0  0  0  0  0  0  0  0  0  0  0
   -7.5343    0.1245   -2.0886 C   0  0  0  0  0  0  0  0  0  0  0  0
   -6.2537    0.4910   -1.9216 N   0  0  0  0  0  0  0  0  0  0  0  0
   -5.8518    1.0902   -0.7863 C   0  0  0  0  0  0  0  0  0  0  0  0
   -4.4088    1.4918   -0.6273 C   0  0  0  0  0  0  0  0  0  0  0  0
   -3.7180    0.5683    0.2486 N   0  0  0  0  0  0  0  0  0  0  0  0
   -3.7000   -0.7857   -0.2161 C   0  0  0  0  0  0  0  0  0  0  0  0
   -2.3586   -1.2214   -0.7697 C   0  0  0  0  0  0  0  0  0  0  0  0
   -1.2214   -1.0172    0.1665 C   0  0  0  0  0  0  0  0  0  0  0  0
   -1.5546   -0.0278    1.2322 C   0  0  0  0  0  0  0  0  0  0  0  0
   -2.4307    1.0524    0.6411 C   0  0  0  0  0  0  0  0  0  0  0  0
   -0.0322   -0.4740   -0.5760 C   0  0  0  0  0  0  0  0  0  0  0  0
   -0.0437    0.2290   -1.6241 O   0  0  0  0  0  0  0  0  0  0  0  0
    1.1374   -0.8984    0.1221 N   0  0  0  0  0  0  0  0  0  0  0  0
    2.4468   -0.2997    0.0203 C   0  0  0  0  0  0  0  0  0  0  0  0
    3.3176   -0.7870   -0.9283 C   0  0  0  0  0  0  0  0  0  0  0  0
    4.5866   -0.2207   -1.0500 C   0  0  0  0  0  0  0  0  0  0  0  0
    4.9896    0.8187   -0.2397 C   0  0  0  0  0  0  0  0  0  0  0  0
    6.3191    1.4053   -0.3760 C   0  0  0  0  0  0  0  0  0  0  0  0
    6.9984    1.9433    0.6873 C   0  0  0  0  0  0  0  0  0  0  0  0
    8.2568    2.5063    0.5911 C   0  0  0  0  0  0  0  0  0  0  0  0
    8.8491    2.5196   -0.6535 C   0  0  0  0  0  0  0  0  0  0  0  0
   10.1846    3.1076   -0.8149 C   0  0  0  0  0  0  0  0  0  0  0  0
   10.7484    3.1302   -1.9385 O   0  0  0  0  0  0  0  0  0  0  0  0
   10.8562    3.6535    0.2740 O   0  0  0  0  0  0  0  0  0  0  0  0
    8.2037    1.9899   -1.7513 C   0  0  0  0  0  0  0  0  0  0  0  0
    6.9347    1.4311   -1.6119 C   0  0  0  0  0  0  0  0  0  0  0  0
    4.1013    1.2853    0.6981 C   0  0  0  0  0  0  0  0  0  0  0  0
    2.8504    0.7401    0.8310 C   0  0  0  0  0  0  0  0  0  0  0  0
    0.7521   -2.0050    0.9172 C   0  0  0  0  0  0  0  0  0  0  0  0
    1.5093   -2.6581    1.6803 O   0  0  0  0  0  0  0  0  0  0  0  0
   -0.6534   -2.2477    0.6978 N   0  0  0  0  0  0  0  0  0  0  0  0
   -1.2701   -3.4874    0.9777 C   0  0  0  0  0  0  0  0  0  0  0  0
   -1.3181   -4.4431   -0.0086 C   0  0  0  0  0  0  0  0  0  0  0  0
   -1.9229   -5.6726    0.2424 C   0  0  0  0  0  0  0  0  0  0  0  0
   -2.4571   -5.9013    1.4696 N   0  0  0  0  0  0  0  0  0  0  0  0
   -2.4044   -4.9607    2.4256 C   0  0  0  0  0  0  0  0  0  0  0  0
   -1.8119   -3.7630    2.1713 N   0  0  0  0  0  0  0  0  0  0  0  0
   -7.1633    2.0471    2.1504 H   0  0  0  0  0  0  0  0  0  0  0  0
   -5.9925    3.0505    1.2726 H   0  0  0  0  0  0  0  0  0  0  0  0
   -5.5037    1.4179    1.9664 H   0  0  0  0  0  0  0  0  0  0  0  0
   -8.7927    1.1563    0.8597 H   0  0  0  0  0  0  0  0  0  0  0  0
   -9.5254    0.0565   -1.2266 H   0  0  0  0  0  0  0  0  0  0  0  0
   -7.8919   -0.3670   -3.0054 H   0  0  0  0  0  0  0  0  0  0  0  0
   -4.3887    2.4781   -0.1226 H   0  0  0  0  0  0  0  0  0  0  0  0
   -3.8953    1.5210   -1.5991 H   0  0  0  0  0  0  0  0  0  0  0  0
   -4.4621   -1.0021   -0.9913 H   0  0  0  0  0  0  0  0  0  0  0  0
   -3.9323   -1.4458    0.6572 H   0  0  0  0  0  0  0  0  0  0  0  0
   -2.4573   -2.3058   -1.0118 H   0  0  0  0  0  0  0  0  0  0  0  0
   -2.2279   -0.6664   -1.7416 H   0  0  0  0  0  0  0  0  0  0  0  0
   -0.6402    0.4846    1.6352 H   0  0  0  0  0  0  0  0  0  0  0  0
   -2.1321   -0.5388    2.0240 H   0  0  0  0  0  0  0  0  0  0  0  0
   -1.9322    1.5031   -0.2664 H   0  0  0  0  0  0  0  0  0  0  0  0
   -2.5250    1.8600    1.3969 H   0  0  0  0  0  0  0  0  0  0  0  0
    2.9881   -1.6050   -1.5595 H   0  0  0  0  0  0  0  0  0  0  0  0
    5.2557   -0.6187   -1.8020 H   0  0  0  0  0  0  0  0  0  0  0  0
    6.5488    1.9415    1.6712 H   0  0  0  0  0  0  0  0  0  0  0  0
    8.7467    2.9207    1.4835 H   0  0  0  0  0  0  0  0  0  0  0  0
   11.4366    4.4653    0.0846 H   0  0  0  0  0  0  0  0  0  0  0  0
    8.7061    2.0191   -2.7209 H   0  0  0  0  0  0  0  0  0  0  0  0
    6.4869    1.0349   -2.5085 H   0  0  0  0  0  0  0  0  0  0  0  0
    4.4169    2.0974    1.3307 H   0  0  0  0  0  0  0  0  0  0  0  0
    2.1243    1.0874    1.5638 H   0  0  0  0  0  0  0  0  0  0  0  0
   -0.9018   -4.2922   -0.9975 H   0  0  0  0  0  0  0  0  0  0  0  0
   -1.9673   -6.4327   -0.5245 H   0  0  0  0  0  0  0  0  0  0  0  0
   -2.8437   -5.1923    3.3824 H   0  0  0  0  0  0  0  0  0  0  0  0
  1  2  1  0
  2  3  2  0
  3  4  1  0
  4  5  2  0
  5  6  1  0
  6  7  2  0
  7  8  1  0
  8  9  1  0
  9 10  1  0
 10 11  1  0
 11 12  1  0
 12 13  1  0
 13 14  1  0
 12 15  1  0
 15 16  2  0
 15 17  1  0
 17 18  1  0
 18 19  2  0
 19 20  1  0
 20 21  2  0
 21 22  1  0
 22 23  2  0
 23 24  1  0
 24 25  2  0
 25 26  1  0
 26 27  2  0
 26 28  1  0
 25 29  1  0
 29 30  2  0
 21 31  1  0
 31 32  2  0
 17 33  1  0
 33 34  2  0
 33 35  1  0
 35 36  1  0
 36 37  2  0
 37 38  1  0
 38 39  2  0
 39 40  1  0
 40 41  2  0
  7  2  1  0
 14  9  1  0
 32 18  1  0
 41 36  1  0
 35 12  1  0
 30 22  1  0
  1 42  1  0
  1 43  1  0
  1 44  1  0
  3 45  1  0
  4 46  1  0
  5 47  1  0
  8 48  1  0
  8 49  1  0
 10 50  1  0
 10 51  1  0
 11 52  1  0
 11 53  1  0
 13 54  1  0
 13 55  1  0
 14 56  1  0
 14 57  1  0
 19 58  1  0
 20 59  1  0
 23 60  1  0
 24 61  1  0
 28 62  1  0
 29 63  1  0
 30 64  1  0
 31 65  1  0
 32 66  1  0
 37 67  1  0
 38 68  1  0
 40 69  1  0
M  END
$$$$
