@<TRIPOS>MOLECULE
*****
 58 63 0 0 0
SMALL
GASTEIGER

@<TRIPOS>ATOM
      1 C           5.4828    1.3395    2.3373 C.3     1  UNL1        0.0805
      2 O           4.6614    0.8262    1.3036 O.3     1  UNL1       -0.4782
      3 C           4.8264   -0.5036    0.9523 C.ar    1  UNL1        0.2408
      4 N           5.7326   -1.3063    1.5588 N.ar    1  UNL1       -0.2195
      5 C           5.8993   -2.5992    1.2237 C.ar    1  UNL1        0.0315
      6 C           5.1195   -3.1521    0.2167 C.ar    1  UNL1       -0.0413
      7 C           4.1923   -2.3362   -0.4059 C.ar    1  UNL1       -0.0296
      8 C           4.0299   -1.0101   -0.0535 C.ar    1  UNL1        0.1275
      9 N           3.0787   -0.1549   -0.6852 N.ar    1  UNL1       -0.2219
     10 N           3.2965    0.9320   -1.4056 N.ar    1  UNL1       -0.1704
     11 C           2.1776    1.4911   -1.8470 C.ar    1  UNL1        0.0664
     12 C           1.9959    2.7200   -2.6864 C.3     1  UNL1       -0.0202
     13 C           1.1425    0.7179   -1.3847 C.ar    1  UNL1        0.0309
     14 C           1.7311   -0.2981   -0.6662 C.ar    1  UNL1        0.1353
     15 C           0.6265   -1.1173   -0.1885 C.2     1  UNL1        0.2705
     16 O           0.7603   -2.1492    0.5131 O.2     1  UNL1       -0.2679
     17 N          -0.6334   -0.5801   -0.6315 N.am    1  UNL1       -0.2531
     18 C          -1.9152   -1.1370   -0.3903 C.ar    1  UNL1        0.0545
     19 C          -2.5454   -2.0088   -1.2519 C.ar    1  UNL1       -0.0324
     20 C          -3.7788   -2.5500   -1.0110 C.ar    1  UNL1       -0.0041
     21 C          -4.4040   -3.4825   -1.9777 C.3     1  UNL1       -0.0361
     22 C          -4.3957   -2.1752    0.1772 C.ar    1  UNL1        0.1641
     23 N          -5.5708   -2.5205    0.6883 N.ar    1  UNL1       -0.1292
     24 N          -5.7064   -1.8962    1.8460 N.ar    1  UNL1       -0.1340
     25 C          -4.6133   -1.1412    2.0883 C.ar    1  UNL1        0.1347
     26 C          -4.3543   -0.2745    3.2837 C.3     1  UNL1       -0.0041
     27 N          -3.8075   -1.3359    1.0239 N.ar    1  UNL1       -0.2846
     28 C          -2.5780   -0.8073    0.7662 C.ar    1  UNL1        0.0344
     29 C          -0.3462    0.5962   -1.3762 C.3     1  UNL1        0.0854
     30 C          -0.9185    1.8513   -0.8429 C.ar    1  UNL1       -0.0221
     31 C          -0.7583    2.1273    0.4948 C.ar    1  UNL1       -0.0551
     32 C          -1.2849    3.2902    1.0043 C.ar    1  UNL1       -0.0431
     33 C          -1.9644    4.1687    0.1880 C.ar    1  UNL1        0.0410
     34 CL         -2.6484    5.6662    0.8197 Cl      1  UNL1       -0.0835
     35 C          -2.1353    3.9102   -1.1532 C.ar    1  UNL1       -0.0431
     36 C          -1.6076    2.7445   -1.6650 C.ar    1  UNL1       -0.0551
     37 H           6.5518    1.3454    2.0457 H       1  UNL1        0.0660
     38 H           5.4098    0.7355    3.2562 H       1  UNL1        0.0660
     39 H           5.1275    2.3709    2.6119 H       1  UNL1        0.0660
     40 H           6.6319   -3.2365    1.7185 H       1  UNL1        0.0831
     41 H           5.2589   -4.1910   -0.0470 H       1  UNL1        0.0633
     42 H           3.5752   -2.7480   -1.1928 H       1  UNL1        0.0641
     43 H           2.9904    2.9140   -3.1727 H       1  UNL1        0.0293
     44 H           1.6602    3.5703   -2.0890 H       1  UNL1        0.0293
     45 H           1.2965    2.4920   -3.5143 H       1  UNL1        0.0293
     46 H          -2.0353   -2.2762   -2.1643 H       1  UNL1        0.0640
     47 H          -3.6167   -4.0648   -2.5251 H       1  UNL1        0.0279
     48 H          -4.9607   -2.8983   -2.7484 H       1  UNL1        0.0279
     49 H          -5.0600   -4.1926   -1.4562 H       1  UNL1        0.0279
     50 H          -5.2515    0.3922    3.4006 H       1  UNL1        0.0308
     51 H          -4.1494   -0.8635    4.1816 H       1  UNL1        0.0308
     52 H          -3.5088    0.3789    3.0501 H       1  UNL1        0.0308
     53 H          -2.1719   -0.1406    1.5054 H       1  UNL1        0.0833
     54 H          -0.7369    0.4663   -2.4241 H       1  UNL1        0.0606
     55 H          -0.2232    1.4360    1.1382 H       1  UNL1        0.0621
     56 H          -1.1875    3.5626    2.0650 H       1  UNL1        0.0632
     57 H          -2.6799    4.6194   -1.7947 H       1  UNL1        0.0632
     58 H          -1.7070    2.4831   -2.7080 H       1  UNL1        0.0621
@<TRIPOS>BOND
     1     1     2    1
     2     2     3    1
     3     3     4   ar
     4     4     5   ar
     5     5     6   ar
     6     6     7   ar
     7     7     8   ar
     8     8     9    1
     9     9    10   ar
    10    10    11   ar
    11    11    12    1
    12    11    13   ar
    13    13    14   ar
    14    14    15    1
    15    15    16    2
    16    15    17   am
    17    17    18    1
    18    18    19   ar
    19    19    20   ar
    20    20    21    1
    21    20    22   ar
    22    22    23   ar
    23    23    24   ar
    24    24    25   ar
    25    25    26    1
    26    25    27   ar
    27    27    28   ar
    28    17    29    1
    29    29    30    1
    30    30    31   ar
    31    31    32   ar
    32    32    33   ar
    33    33    34    1
    34    33    35   ar
    35    35    36   ar
    36     8     3   ar
    37    14     9   ar
    38    28    18   ar
    39    36    30   ar
    40    29    13    1
    41    27    22   ar
    42     1    37    1
    43     1    38    1
    44     1    39    1
    45     5    40    1
    46     6    41    1
    47     7    42    1
    48    12    43    1
    49    12    44    1
    50    12    45    1
    51    19    46    1
    52    21    47    1
    53    21    48    1
    54    21    49    1
    55    26    50    1
    56    26    51    1
    57    26    52    1
    58    28    53    1
    59    29    54    1
    60    31    55    1
    61    32    56    1
    62    35    57    1
    63    36    58    1
