@<TRIPOS>MOLECULE
*****
 33 34 0 0 0
SMALL
GASTEIGER

@<TRIPOS>ATOM
      1 C          -4.7269    1.2663   -2.7046 C.3     1  UNL1        0.0788
      2 O          -3.3884    0.7923   -2.8299 O.3     1  UNL1       -0.4950
      3 C          -2.7002    0.3989   -1.6874 C.ar    1  UNL1        0.1223
      4 C          -3.2963    0.4617   -0.4357 C.ar    1  UNL1       -0.0134
      5 C          -2.6285    0.0755    0.7043 C.ar    1  UNL1        0.0210
      6 C          -1.3237   -0.3966    0.6575 C.ar    1  UNL1        0.2942
      7 N          -0.6313   -0.8174    1.8119 N.pl3   1  UNL1        0.0815
      8 O           0.2225   -1.7303    1.8056 O.2     1  UNL1        0.0415
      9 O          -0.8729   -0.2321    3.0426 O.co2   1  UNL1       -0.5760
     10 C          -0.7414   -0.4545   -0.5837 C.ar    1  UNL1        0.1130
     11 N           0.6089   -0.9547   -0.7005 N.pl3   1  UNL1       -0.3085
     12 C           1.6875   -0.2599   -0.1164 C.ar    1  UNL1        0.0456
     13 C           1.3901    0.9702    0.4937 C.ar    1  UNL1       -0.0397
     14 C           2.3581    1.7243    1.1073 C.ar    1  UNL1       -0.0600
     15 C           3.6694    1.2675    1.1301 C.ar    1  UNL1       -0.0609
     16 C           3.9957    0.0798    0.5486 C.ar    1  UNL1       -0.0460
     17 C           2.9918   -0.6746   -0.0720 C.ar    1  UNL1        0.0799
     18 C           3.3762   -1.9335   -0.6722 C.2     1  UNL1        0.3386
     19 O           2.6103   -2.6974   -1.2391 O.2     1  UNL1       -0.2451
     20 O           4.7359   -2.3071   -0.5973 O.3     1  UNL1       -0.4771
     21 C          -1.4045   -0.0691   -1.7349 C.ar    1  UNL1        0.0078
     22 H          -4.8005    2.0822   -1.9462 H       1  UNL1        0.0660
     23 H          -5.3011    0.3995   -2.2655 H       1  UNL1        0.0660
     24 H          -5.1402    1.5838   -3.6719 H       1  UNL1        0.0660
     25 H          -4.3281    0.8355   -0.4027 H       1  UNL1        0.0656
     26 H          -3.0988    0.1277    1.6711 H       1  UNL1        0.0687
     27 H           0.7394   -1.8273   -1.2284 H       1  UNL1        0.1524
     28 H           0.3925    1.3430    0.4760 H       1  UNL1        0.0636
     29 H           2.0679    2.6616    1.5595 H       1  UNL1        0.0618
     30 H           4.4090    1.8980    1.6284 H       1  UNL1        0.0618
     31 H           5.0163   -0.2630    0.5731 H       1  UNL1        0.0626
     32 H           5.0332   -3.2248   -0.9245 H       1  UNL1        0.2954
     33 H          -0.9220   -0.1254   -2.7040 H       1  UNL1        0.0675
@<TRIPOS>UNITY_ATOM_ATTR
7 1
charge 1
9 1
charge -1
@<TRIPOS>BOND
     1     1     2    1
     2     2     3    1
     3     3     4   ar
     4     4     5   ar
     5     5     6   ar
     6     6     7    1
     7     7     8    2
     8     7     9    1
     9     6    10   ar
    10    10    11    1
    11    11    12    1
    12    12    13   ar
    13    13    14   ar
    14    14    15   ar
    15    15    16   ar
    16    16    17   ar
    17    17    18    1
    18    18    19    2
    19    18    20    1
    20    10    21   ar
    21    21     3   ar
    22    17    12   ar
    23     1    22    1
    24     1    23    1
    25     1    24    1
    26     4    25    1
    27     5    26    1
    28    11    27    1
    29    13    28    1
    30    14    29    1
    31    15    30    1
    32    16    31    1
    33    20    32    1
    34    21    33    1
