
     RDKit          3D

 33 34  0  0  0  0  0  0  0  0999 V2000
   -4.7269    1.2663   -2.7046 C   0  0  0  0  0  0  0  0  0  0  0  0
   -3.3884    0.7923   -2.8299 O   0  0  0  0  0  0  0  0  0  0  0  0
   -2.7002    0.3989   -1.6874 C   0  0  0  0  0  0  0  0  0  0  0  0
   -3.2963    0.4617   -0.4357 C   0  0  0  0  0  0  0  0  0  0  0  0
   -2.6285    0.0755    0.7043 C   0  0  0  0  0  0  0  0  0  0  0  0
   -1.3237   -0.3966    0.6575 C   0  0  0  0  0  0  0  0  0  0  0  0
   -0.6313   -0.8174    1.8119 N   0  0  0  0  0  4  0  0  0  0  0  0
    0.2225   -1.7303    1.8056 O   0  0  0  0  0  0  0  0  0  0  0  0
   -0.8729   -0.2321    3.0426 O   0  0  0  0  0  1  0  0  0  0  0  0
   -0.7414   -0.4545   -0.5837 C   0  0  0  0  0  0  0  0  0  0  0  0
    0.6089   -0.9547   -0.7005 N   0  0  0  0  0  0  0  0  0  0  0  0
    1.6875   -0.2599   -0.1164 C   0  0  0  0  0  0  0  0  0  0  0  0
    1.3901    0.9702    0.4937 C   0  0  0  0  0  0  0  0  0  0  0  0
    2.3581    1.7243    1.1073 C   0  0  0  0  0  0  0  0  0  0  0  0
    3.6694    1.2675    1.1301 C   0  0  0  0  0  0  0  0  0  0  0  0
    3.9957    0.0798    0.5486 C   0  0  0  0  0  0  0  0  0  0  0  0
    2.9918   -0.6746   -0.0720 C   0  0  0  0  0  0  0  0  0  0  0  0
    3.3762   -1.9335   -0.6722 C   0  0  0  0  0  0  0  0  0  0  0  0
    2.6103   -2.6974   -1.2391 O   0  0  0  0  0  0  0  0  0  0  0  0
    4.7359   -2.3071   -0.5973 O   0  0  0  0  0  0  0  0  0  0  0  0
   -1.4045   -0.0691   -1.7349 C   0  0  0  0  0  0  0  0  0  0  0  0
   -4.8005    2.0822   -1.9462 H   0  0  0  0  0  0  0  0  0  0  0  0
   -5.3011    0.3995   -2.2655 H   0  0  0  0  0  0  0  0  0  0  0  0
   -5.1402    1.5838   -3.6719 H   0  0  0  0  0  0  0  0  0  0  0  0
   -4.3281    0.8355   -0.4027 H   0  0  0  0  0  0  0  0  0  0  0  0
   -3.0988    0.1277    1.6711 H   0  0  0  0  0  0  0  0  0  0  0  0
    0.7394   -1.8273   -1.2284 H   0  0  0  0  0  0  0  0  0  0  0  0
    0.3925    1.3430    0.4760 H   0  0  0  0  0  0  0  0  0  0  0  0
    2.0679    2.6616    1.5595 H   0  0  0  0  0  0  0  0  0  0  0  0
    4.4090    1.8980    1.6284 H   0  0  0  0  0  0  0  0  0  0  0  0
    5.0163   -0.2630    0.5731 H   0  0  0  0  0  0  0  0  0  0  0  0
    5.0332   -3.2248   -0.9245 H   0  0  0  0  0  0  0  0  0  0  0  0
   -0.9220   -0.1254   -2.7040 H   0  0  0  0  0  0  0  0  0  0  0  0
  1  2  1  0
  2  3  1  0
  3  4  2  0
  4  5  1  0
  5  6  2  0
  6  7  1  0
  7  8  2  0
  7  9  1  0
  6 10  1  0
 10 11  1  0
 11 12  1  0
 12 13  2  0
 13 14  1  0
 14 15  2  0
 15 16  1  0
 16 17  2  0
 17 18  1  0
 18 19  2  0
 18 20  1  0
 10 21  2  0
 21  3  1  0
 17 12  1  0
  1 22  1  0
  1 23  1  0
  1 24  1  0
  4 25  1  0
  5 26  1  0
 11 27  1  0
 13 28  1  0
 14 29  1  0
 15 30  1  0
 16 31  1  0
 20 32  1  0
 21 33  1  0
M  CHG  2   7   1   9  -1
M  END
$$$$
