
     RDKit          3D

 47 50  0  0  0  0  0  0  0  0999 V2000
   -2.0248   -4.3286   -0.0719 C   0  0  0  0  0  0  0  0  0  0  0  0
   -1.0748   -3.5563   -0.8713 N   0  0  0  0  0  0  0  0  0  0  0  0
   -0.5852   -2.2767   -0.4105 C   0  0  0  0  0  0  0  0  0  0  0  0
   -1.1313   -1.0568   -0.6638 N   0  0  0  0  0  0  0  0  0  0  0  0
   -0.6173    0.1040   -0.1933 C   0  0  0  0  0  0  0  0  0  0  0  0
   -1.5628    1.0123   -0.7692 N   0  0  0  0  0  0  0  0  0  0  0  0
   -2.9080    1.1119   -0.3485 C   0  0  0  0  0  0  0  0  0  0  0  0
   -3.4321    0.7993    0.8749 C   0  0  0  0  0  0  0  0  0  0  0  0
   -4.7945    0.8860    1.0702 C   0  0  0  0  0  0  0  0  0  0  0  0
   -5.5966    1.2911    0.0049 C   0  0  0  0  0  0  0  0  0  0  0  0
   -7.0714    1.3932    0.1970 C   0  0  0  0  0  0  0  0  0  0  0  0
   -7.4515    2.7841    0.4428 C   0  0  0  0  0  0  0  0  0  0  0  0
   -7.7679    3.8891    0.6413 N   0  0  0  0  0  0  0  0  0  0  0  0
   -5.0763    1.6069   -1.2262 C   0  0  0  0  0  0  0  0  0  0  0  0
   -3.7076    1.5214   -1.4229 C   0  0  0  0  0  0  0  0  0  0  0  0
    0.4916    0.0523    0.5640 N   0  0  0  0  0  0  0  0  0  0  0  0
    1.0867   -1.1298    0.8525 C   0  0  0  0  0  0  0  0  0  0  0  0
    2.2309   -0.8956    1.6541 N   0  0  0  0  0  0  0  0  0  0  0  0
    3.3391   -0.4363    0.8589 C   0  0  0  0  0  0  0  0  0  0  0  0
    3.3617   -0.2261   -0.4682 N   0  0  0  0  0  0  0  0  0  0  0  0
    4.5710    0.2206   -0.8248 N   0  0  0  0  0  0  0  0  0  0  0  0
    5.2890    0.2850    0.2889 C   0  0  0  0  0  0  0  0  0  0  0  0
    4.5598   -0.1194    1.3864 C   0  0  0  0  0  0  0  0  0  0  0  0
    6.6920    0.7719    0.2803 C   0  0  0  0  0  0  0  0  0  0  0  0
    7.4125    1.1423   -0.9358 C   0  0  0  0  0  0  0  0  0  0  0  0
    6.7562    2.2498   -0.1506 C   0  0  0  0  0  0  0  0  0  0  0  0
    0.5513   -2.3030    0.3666 C   0  0  0  0  0  0  0  0  0  0  0  0
   -1.6454   -4.3119    0.9861 H   0  0  0  0  0  0  0  0  0  0  0  0
   -2.1099   -5.3534   -0.4319 H   0  0  0  0  0  0  0  0  0  0  0  0
   -3.0062   -3.8229   -0.0897 H   0  0  0  0  0  0  0  0  0  0  0  0
   -0.6631   -3.7758   -1.7838 H   0  0  0  0  0  0  0  0  0  0  0  0
   -1.0791    1.5404   -1.4995 H   0  0  0  0  0  0  0  0  0  0  0  0
   -2.7456    0.4962    1.6429 H   0  0  0  0  0  0  0  0  0  0  0  0
   -5.2548    0.6519    2.0181 H   0  0  0  0  0  0  0  0  0  0  0  0
   -7.6194    1.0370   -0.6858 H   0  0  0  0  0  0  0  0  0  0  0  0
   -7.3900    0.7827    1.0844 H   0  0  0  0  0  0  0  0  0  0  0  0
   -5.7565    1.9178   -2.0273 H   0  0  0  0  0  0  0  0  0  0  0  0
   -3.3433    1.7817   -2.4184 H   0  0  0  0  0  0  0  0  0  0  0  0
    2.3071   -1.0271    2.6832 H   0  0  0  0  0  0  0  0  0  0  0  0
    4.7481    0.4242   -1.8120 H   0  0  0  0  0  0  0  0  0  0  0  0
    4.8842   -0.1675    2.4119 H   0  0  0  0  0  0  0  0  0  0  0  0
    7.2427    0.5091    1.1990 H   0  0  0  0  0  0  0  0  0  0  0  0
    6.9984    0.9184   -1.9250 H   0  0  0  0  0  0  0  0  0  0  0  0
    8.5212    1.1859   -0.8926 H   0  0  0  0  0  0  0  0  0  0  0  0
    5.8855    2.7192   -0.6033 H   0  0  0  0  0  0  0  0  0  0  0  0
    7.3693    2.8587    0.5417 H   0  0  0  0  0  0  0  0  0  0  0  0
    1.1170   -3.1568    0.6658 H   0  0  0  0  0  0  0  0  0  0  0  0
  1  2  1  0
  2  3  1  0
  3  4  2  0
  4  5  1  0
  5  6  1  0
  6  7  1  0
  7  8  2  0
  8  9  1  0
  9 10  2  0
 10 11  1  0
 11 12  1  0
 12 13  3  0
 10 14  1  0
 14 15  2  0
  5 16  2  0
 16 17  1  0
 17 18  1  0
 18 19  1  0
 19 20  2  0
 20 21  1  0
 21 22  1  0
 22 23  2  0
 22 24  1  0
 24 25  1  0
 25 26  1  0
 17 27  2  0
 27  3  1  0
 15  7  1  0
 23 19  1  0
 26 24  1  0
  1 28  1  0
  1 29  1  0
  1 30  1  0
  2 31  1  0
  6 32  1  0
  8 33  1  0
  9 34  1  0
 11 35  1  0
 11 36  1  0
 14 37  1  0
 15 38  1  0
 18 39  1  0
 21 40  1  0
 23 41  1  0
 24 42  1  0
 25 43  1  0
 25 44  1  0
 26 45  1  0
 26 46  1  0
 27 47  1  0
M  END
$$$$
