@<TRIPOS>MOLECULE
*****
 22 22 0 0 0
SMALL
GASTEIGER

@<TRIPOS>ATOM
      1 C          -1.1069   -0.3748    0.4412 C.3     1  UNL1        0.2242
      2 C          -1.6922   -1.2790   -0.5846 C.2     1  UNL1        0.3363
      3 O          -1.1289   -2.5439   -0.6969 O.3     1  UNL1       -0.4790
      4 O          -2.6544   -0.9279   -1.3246 O.2     1  UNL1       -0.2484
      5 C           0.3283   -0.0943    0.2212 C.ar    1  UNL1       -0.0102
      6 C           1.2544   -0.5099    1.1782 C.ar    1  UNL1       -0.0561
      7 C           2.6001   -0.2889    1.0493 C.ar    1  UNL1       -0.0614
      8 C           3.0462    0.3689   -0.0700 C.ar    1  UNL1       -0.0617
      9 C           2.1310    0.7777   -1.0122 C.ar    1  UNL1       -0.0614
     10 C           0.7629    0.5678   -0.9084 C.ar    1  UNL1       -0.0561
     11 S          -2.0762    1.0961    0.6482 S.O2    1  UNL1        0.0974
     12 O          -2.1010    2.0885   -0.6708 O.3     1  UNL1       -0.2530
     13 O          -3.4668    0.6799    1.0154 O.2     1  UNL1       -0.1462
     14 O          -1.5077    1.8544    1.8109 O.2     1  UNL1       -0.1462
     15 H          -1.2043   -0.9178    1.4201 H       1  UNL1        0.0730
     16 H          -1.5752   -3.2831   -1.2592 H       1  UNL1        0.2951
     17 H           0.9209   -1.0292    2.0657 H       1  UNL1        0.0621
     18 H           3.2843   -0.6345    1.8273 H       1  UNL1        0.0618
     19 H           4.1100    0.5388   -0.1630 H       1  UNL1        0.0618
     20 H           2.5535    1.2905   -1.8692 H       1  UNL1        0.0618
     21 H           0.0908    0.9008   -1.6606 H       1  UNL1        0.0621
     22 H          -2.5689    1.7197   -1.4580 H       1  UNL1        0.2445
@<TRIPOS>BOND
     1     1     2    1
     2     2     3    1
     3     2     4    2
     4     1     5    1
     5     5     6   ar
     6     6     7   ar
     7     7     8   ar
     8     8     9   ar
     9     9    10   ar
    10     1    11    1
    11    11    12    1
    12    11    13    2
    13    11    14    2
    14    10     5   ar
    15     1    15    1
    16     3    16    1
    17     6    17    1
    18     7    18    1
    19     8    19    1
    20     9    20    1
    21    10    21    1
    22    12    22    1
