
     RDKit          3D

 22 22  0  0  0  0  0  0  0  0999 V2000
   -1.1069   -0.3748    0.4412 C   0  0  1  0  0  0  0  0  0  0  0  0
   -1.6922   -1.2790   -0.5846 C   0  0  0  0  0  0  0  0  0  0  0  0
   -1.1289   -2.5439   -0.6969 O   0  0  0  0  0  0  0  0  0  0  0  0
   -2.6544   -0.9279   -1.3246 O   0  0  0  0  0  0  0  0  0  0  0  0
    0.3283   -0.0943    0.2212 C   0  0  0  0  0  0  0  0  0  0  0  0
    1.2544   -0.5099    1.1782 C   0  0  0  0  0  0  0  0  0  0  0  0
    2.6001   -0.2889    1.0493 C   0  0  0  0  0  0  0  0  0  0  0  0
    3.0462    0.3689   -0.0700 C   0  0  0  0  0  0  0  0  0  0  0  0
    2.1310    0.7777   -1.0122 C   0  0  0  0  0  0  0  0  0  0  0  0
    0.7629    0.5678   -0.9084 C   0  0  0  0  0  0  0  0  0  0  0  0
   -2.0762    1.0961    0.6482 S   0  0  0  0  0  0  0  0  0  0  0  0
   -2.1010    2.0885   -0.6708 O   0  0  0  0  0  0  0  0  0  0  0  0
   -3.4668    0.6799    1.0154 O   0  0  0  0  0  0  0  0  0  0  0  0
   -1.5077    1.8544    1.8109 O   0  0  0  0  0  0  0  0  0  0  0  0
   -1.2043   -0.9178    1.4201 H   0  0  0  0  0  0  0  0  0  0  0  0
   -1.5752   -3.2831   -1.2592 H   0  0  0  0  0  0  0  0  0  0  0  0
    0.9209   -1.0292    2.0657 H   0  0  0  0  0  0  0  0  0  0  0  0
    3.2843   -0.6345    1.8273 H   0  0  0  0  0  0  0  0  0  0  0  0
    4.1100    0.5388   -0.1630 H   0  0  0  0  0  0  0  0  0  0  0  0
    2.5535    1.2905   -1.8692 H   0  0  0  0  0  0  0  0  0  0  0  0
    0.0908    0.9008   -1.6606 H   0  0  0  0  0  0  0  0  0  0  0  0
   -2.5689    1.7197   -1.4580 H   0  0  0  0  0  0  0  0  0  0  0  0
  1  2  1  0
  2  3  1  0
  2  4  2  0
  1  5  1  0
  5  6  2  0
  6  7  1  0
  7  8  2  0
  8  9  1  0
  9 10  2  0
  1 11  1  0
 11 12  1  0
 11 13  2  0
 11 14  2  0
 10  5  1  0
  1 15  1  1
  3 16  1  0
  6 17  1  0
  7 18  1  0
  8 19  1  0
  9 20  1  0
 10 21  1  0
 12 22  1  0
M  END
$$$$
