@<TRIPOS>MOLECULE
*****
 50 53 0 0 0
SMALL
GASTEIGER

@<TRIPOS>ATOM
      1 C           1.7478   -1.2969    0.3240 C.3     1  UNL1        0.0397
      2 C           3.2379   -1.4444    0.6485 C.3     1  UNL1       -0.0059
      3 C           3.9827   -0.2398    0.2686 C.ar    1  UNL1       -0.0200
      4 C           5.3005    0.0573   -0.0277 C.ar    1  UNL1        0.0060
      5 N           5.4512    1.3836   -0.3259 N.ar    1  UNL1       -0.3604
      6 C           4.2725    1.9968   -0.2406 C.ar    1  UNL1        0.0473
      7 C           3.7024    3.2520   -0.3951 C.ar    1  UNL1       -0.0378
      8 C           2.3337    3.4779   -0.1966 C.ar    1  UNL1       -0.0592
      9 C           1.4657    2.4603    0.1666 C.ar    1  UNL1       -0.0536
     10 C           2.0234    1.2020    0.3241 C.ar    1  UNL1       -0.0112
     11 C           3.3922    0.9981    0.1210 C.ar    1  UNL1        0.0103
     12 C           1.2154    0.0270    0.7092 C.2     1  UNL1       -0.0254
     13 C           0.1129    0.2798    1.3518 C.2     1  UNL1       -0.0658
     14 C          -0.7256   -0.8789    1.7563 C.3     1  UNL1        0.0669
     15 C          -0.3246   -2.1954    1.2503 C.3     1  UNL1        0.0138
     16 N           0.9667   -2.3937    0.7302 N.3     1  UNL1       -0.2971
     17 C           1.1276   -3.5857   -0.0624 C.3     1  UNL1       -0.0121
     18 C          -2.1808   -0.5773    1.5322 C.2     1  UNL1        0.2214
     19 O          -3.0629   -0.5730    2.4549 O.2     1  UNL1       -0.2751
     20 N          -2.6350   -0.2749    0.2264 N.am    1  UNL1       -0.3098
     21 CA         -3.9258    0.0464   -0.2915 C.3     1  UNL1        0.0459
     22 C          -3.9338    1.4791   -0.7907 C.3     1  UNL1       -0.0352
     23 C          -3.6053    2.4241    0.3490 C.3     1  UNL1       -0.0635
     24 C          -4.4359   -0.8788   -1.3516 C.3     1  UNL1        0.0625
     25 O          -4.5209   -2.1732   -0.8199 O.3     1  UNL1       -0.3932
     26 H           1.7341   -1.2946   -0.8069 H       1  UNL1        0.0515
     27 H           3.3985   -1.7656    1.6908 H       1  UNL1        0.0332
     28 H           3.5976   -2.2879   -0.0078 H       1  UNL1        0.0332
     29 H           6.1372   -0.6604   -0.0305 H       1  UNL1        0.0810
     30 H           6.3196    1.9011   -0.5869 H       1  UNL1        0.1653
     31 H           4.3904    4.0424   -0.6797 H       1  UNL1        0.0638
     32 H           1.9550    4.4644   -0.3304 H       1  UNL1        0.0618
     33 H           0.4291    2.6192    0.3173 H       1  UNL1        0.0624
     34 H          -0.2496    1.2586    1.6210 H       1  UNL1        0.0583
     35 H          -0.6360   -0.9011    2.8829 H       1  UNL1        0.0450
     36 H          -1.0450   -2.4499    0.4153 H       1  UNL1        0.0437
     37 H          -0.5152   -3.0134    1.9888 H       1  UNL1        0.0437
     38 H           0.1644   -4.0905   -0.1579 H       1  UNL1        0.0391
     39 H           1.8109   -4.2506    0.5417 H       1  UNL1        0.0391
     40 H           1.5897   -3.3964   -1.0427 H       1  UNL1        0.0391
     41 H          -2.0084   -0.2459   -0.6199 H       1  UNL1        0.1491
     42 HA         -4.6550    0.0352    0.5576 H       1  UNL1        0.0521
     43 H          -3.1355    1.5774   -1.5464 H       1  UNL1        0.0281
     44 H          -4.9162    1.7149   -1.2367 H       1  UNL1        0.0281
     45 H          -4.1071    2.1175    1.3070 H       1  UNL1        0.0230
     46 H          -3.9525    3.4376    0.0516 H       1  UNL1        0.0230
     47 H          -2.5320    2.4186    0.5726 H       1  UNL1        0.0230
     48 H1         -3.8792   -0.8421   -2.2862 H       1  UNL1        0.0575
     49 H2         -5.4828   -0.5841   -1.5693 H       1  UNL1        0.0575
     50 H          -5.3939   -2.3765   -0.4315 H       1  UNL1        0.2095
@<TRIPOS>BOND
     1     1     2    1
     2     2     3    1
     3     3     4   ar
     4     4     5   ar
     5     5     6   ar
     6     6     7   ar
     7     7     8   ar
     8     8     9   ar
     9     9    10   ar
    10    10    11   ar
    11    10    12    1
    12    12    13    2
    13    13    14    1
    14    14    15    1
    15    15    16    1
    16    16    17    1
    17    14    18    1
    18    18    19    2
    19    18    20   am
    20    20    21    1
    21    21    22    1
    22    22    23    1
    23    21    24    1
    24    24    25    1
    25    12     1    1
    26    16     1    1
    27    11     3   ar
    28    11     6   ar
    29     1    26    1
    30     2    27    1
    31     2    28    1
    32     4    29    1
    33     5    30    1
    34     7    31    1
    35     8    32    1
    36     9    33    1
    37    13    34    1
    38    14    35    1
    39    15    36    1
    40    15    37    1
    41    17    38    1
    42    17    39    1
    43    17    40    1
    44    20    41    1
    45    21    42    1
    46    22    43    1
    47    22    44    1
    48    23    45    1
    49    23    46    1
    50    23    47    1
    51    24    48    1
    52    24    49    1
    53    25    50    1
