@<TRIPOS>MOLECULE
*****
 43 46 0 0 0
SMALL
GASTEIGER

@<TRIPOS>ATOM
      1 O           3.8749    2.2067    2.5314 O.2     1  UNL1       -0.1499
      2 S           4.0616    0.6842    2.3823 S.O2    1  UNL1        0.0737
      3 O           4.8400    0.2967    3.6199 O.2     1  UNL1       -0.1499
      4 N           2.5551   -0.0965    2.4176 N.pl3   1  UNL1       -0.2161
      5 C           1.4999    0.1703    1.5115 C.ar    1  UNL1        0.0510
      6 C           0.9590   -0.7936    0.7003 C.ar    1  UNL1       -0.0173
      7 C          -0.0667   -0.5405   -0.1814 C.ar    1  UNL1        0.0864
      8 CL         -0.6950   -1.8576   -1.1930 Cl      1  UNL1       -0.0796
      9 C          -0.5977    0.7410   -0.2745 C.ar    1  UNL1        0.1650
     10 O          -1.6173    1.0250   -1.1427 O.3     1  UNL1       -0.4515
     11 C          -2.9306    0.6503   -0.8803 C.ar    1  UNL1        0.1472
     12 C          -3.6149    1.1954    0.1709 C.ar    1  UNL1        0.0705
     13 N          -4.9032    0.8041    0.3938 N.ar    1  UNL1       -0.2513
     14 C          -5.5247   -0.0964   -0.3799 C.ar    1  UNL1        0.0712
     15 C          -6.8318   -0.4992   -0.1603 C.ar    1  UNL1       -0.0357
     16 C          -7.4821   -1.4172   -0.9397 C.ar    1  UNL1       -0.0597
     17 C          -6.7797   -1.9622   -2.0008 C.ar    1  UNL1       -0.0611
     18 C          -5.4722   -1.6022   -2.2737 C.ar    1  UNL1       -0.0525
     19 C          -4.8550   -0.6621   -1.4486 C.ar    1  UNL1        0.0039
     20 C          -3.5567   -0.2950   -1.7079 C.ar    1  UNL1       -0.0086
     21 C          -0.0782    1.7537    0.5296 C.ar    1  UNL1        0.0864
     22 CL         -0.7209    3.3666    0.3604 Cl      1  UNL1       -0.0796
     23 C           0.9435    1.4425    1.3901 C.ar    1  UNL1       -0.0173
     24 C           5.0313    0.4442    0.9690 C.ar    1  UNL1        0.1268
     25 C           6.1700   -0.3882    1.0961 C.ar    1  UNL1       -0.0323
     26 C           6.9738   -0.6818    0.0450 C.ar    1  UNL1       -0.0414
     27 C           6.6834   -0.1555   -1.2063 C.ar    1  UNL1        0.0425
     28 CL          7.7506   -0.5666   -2.5252 Cl      1  UNL1       -0.0835
     29 C           5.5933    0.6545   -1.3747 C.ar    1  UNL1       -0.0231
     30 C           4.7860    0.9347   -0.2574 C.ar    1  UNL1        0.0689
     31 CL          3.4616    2.0311   -0.5694 Cl      1  UNL1       -0.0815
     32 H           2.3690   -0.8550    3.1783 H       1  UNL1        0.1737
     33 H           1.3414   -1.8012    0.7408 H       1  UNL1        0.0652
     34 H          -3.1581    1.9283    0.8358 H       1  UNL1        0.0867
     35 H          -7.3515   -0.0555    0.6750 H       1  UNL1        0.0639
     36 H          -8.5021   -1.7458   -0.7859 H       1  UNL1        0.0618
     37 H          -7.2315   -2.6938   -2.6586 H       1  UNL1        0.0618
     38 H          -4.8943   -2.0021   -3.0866 H       1  UNL1        0.0624
     39 H          -3.0131   -0.7080   -2.5408 H       1  UNL1        0.0661
     40 H           1.3600    2.2154    2.0243 H       1  UNL1        0.0652
     41 H           6.4031   -0.8006    2.0614 H       1  UNL1        0.0638
     42 H           7.8398   -1.3238    0.1765 H       1  UNL1        0.0633
     43 H           5.3800    1.0559   -2.3512 H       1  UNL1        0.0647
@<TRIPOS>BOND
     1     1     2    2
     2     2     3    2
     3     2     4    1
     4     4     5    1
     5     5     6   ar
     6     6     7   ar
     7     7     8    1
     8     7     9   ar
     9     9    10    1
    10    10    11    1
    11    11    12   ar
    12    12    13   ar
    13    13    14   ar
    14    14    15   ar
    15    15    16   ar
    16    16    17   ar
    17    17    18   ar
    18    18    19   ar
    19    19    20   ar
    20     9    21   ar
    21    21    22    1
    22    21    23   ar
    23     2    24    1
    24    24    25   ar
    25    25    26   ar
    26    26    27   ar
    27    27    28    1
    28    27    29   ar
    29    29    30   ar
    30    30    31    1
    31    23     5   ar
    32    30    24   ar
    33    20    11   ar
    34    19    14   ar
    35     4    32    1
    36     6    33    1
    37    12    34    1
    38    15    35    1
    39    16    36    1
    40    17    37    1
    41    18    38    1
    42    20    39    1
    43    23    40    1
    44    25    41    1
    45    26    42    1
    46    29    43    1
