
     RDKit          3D

 43 46  0  0  0  0  0  0  0  0999 V2000
    3.8749    2.2067    2.5314 O   0  0  0  0  0  0  0  0  0  0  0  0
    4.0616    0.6842    2.3823 S   0  0  0  0  0  6  0  0  0  0  0  0
    4.8400    0.2967    3.6199 O   0  0  0  0  0  0  0  0  0  0  0  0
    2.5551   -0.0965    2.4176 N   0  0  0  0  0  0  0  0  0  0  0  0
    1.4999    0.1703    1.5115 C   0  0  0  0  0  0  0  0  0  0  0  0
    0.9590   -0.7936    0.7003 C   0  0  0  0  0  0  0  0  0  0  0  0
   -0.0667   -0.5405   -0.1814 C   0  0  0  0  0  0  0  0  0  0  0  0
   -0.6950   -1.8576   -1.1930 Cl  0  0  0  0  0  0  0  0  0  0  0  0
   -0.5977    0.7410   -0.2745 C   0  0  0  0  0  0  0  0  0  0  0  0
   -1.6173    1.0250   -1.1427 O   0  0  0  0  0  0  0  0  0  0  0  0
   -2.9306    0.6503   -0.8803 C   0  0  0  0  0  0  0  0  0  0  0  0
   -3.6149    1.1954    0.1709 C   0  0  0  0  0  0  0  0  0  0  0  0
   -4.9032    0.8041    0.3938 N   0  0  0  0  0  0  0  0  0  0  0  0
   -5.5247   -0.0964   -0.3799 C   0  0  0  0  0  0  0  0  0  0  0  0
   -6.8318   -0.4992   -0.1603 C   0  0  0  0  0  0  0  0  0  0  0  0
   -7.4821   -1.4172   -0.9397 C   0  0  0  0  0  0  0  0  0  0  0  0
   -6.7797   -1.9622   -2.0008 C   0  0  0  0  0  0  0  0  0  0  0  0
   -5.4722   -1.6022   -2.2737 C   0  0  0  0  0  0  0  0  0  0  0  0
   -4.8550   -0.6621   -1.4486 C   0  0  0  0  0  0  0  0  0  0  0  0
   -3.5567   -0.2950   -1.7079 C   0  0  0  0  0  0  0  0  0  0  0  0
   -0.0782    1.7537    0.5296 C   0  0  0  0  0  0  0  0  0  0  0  0
   -0.7209    3.3666    0.3604 Cl  0  0  0  0  0  0  0  0  0  0  0  0
    0.9435    1.4425    1.3901 C   0  0  0  0  0  0  0  0  0  0  0  0
    5.0313    0.4442    0.9690 C   0  0  0  0  0  0  0  0  0  0  0  0
    6.1700   -0.3882    1.0961 C   0  0  0  0  0  0  0  0  0  0  0  0
    6.9738   -0.6818    0.0450 C   0  0  0  0  0  0  0  0  0  0  0  0
    6.6834   -0.1555   -1.2063 C   0  0  0  0  0  0  0  0  0  0  0  0
    7.7506   -0.5666   -2.5252 Cl  0  0  0  0  0  0  0  0  0  0  0  0
    5.5933    0.6545   -1.3747 C   0  0  0  0  0  0  0  0  0  0  0  0
    4.7860    0.9347   -0.2574 C   0  0  0  0  0  0  0  0  0  0  0  0
    3.4616    2.0311   -0.5694 Cl  0  0  0  0  0  0  0  0  0  0  0  0
    2.3690   -0.8550    3.1783 H   0  0  0  0  0  0  0  0  0  0  0  0
    1.3414   -1.8012    0.7408 H   0  0  0  0  0  0  0  0  0  0  0  0
   -3.1581    1.9283    0.8358 H   0  0  0  0  0  0  0  0  0  0  0  0
   -7.3515   -0.0555    0.6750 H   0  0  0  0  0  0  0  0  0  0  0  0
   -8.5021   -1.7458   -0.7859 H   0  0  0  0  0  0  0  0  0  0  0  0
   -7.2315   -2.6938   -2.6586 H   0  0  0  0  0  0  0  0  0  0  0  0
   -4.8943   -2.0021   -3.0866 H   0  0  0  0  0  0  0  0  0  0  0  0
   -3.0131   -0.7080   -2.5408 H   0  0  0  0  0  0  0  0  0  0  0  0
    1.3600    2.2154    2.0243 H   0  0  0  0  0  0  0  0  0  0  0  0
    6.4031   -0.8006    2.0614 H   0  0  0  0  0  0  0  0  0  0  0  0
    7.8398   -1.3238    0.1765 H   0  0  0  0  0  0  0  0  0  0  0  0
    5.3800    1.0559   -2.3512 H   0  0  0  0  0  0  0  0  0  0  0  0
  1  2  2  0
  2  3  2  0
  2  4  1  0
  4  5  1  0
  5  6  2  0
  6  7  1  0
  7  8  1  0
  7  9  2  0
  9 10  1  0
 10 11  1  0
 11 12  2  0
 12 13  1  0
 13 14  2  0
 14 15  1  0
 15 16  2  0
 16 17  1  0
 17 18  2  0
 18 19  1  0
 19 20  2  0
  9 21  1  0
 21 22  1  0
 21 23  2  0
  2 24  1  0
 24 25  2  0
 25 26  1  0
 26 27  2  0
 27 28  1  0
 27 29  1  0
 29 30  2  0
 30 31  1  0
 23  5  1  0
 30 24  1  0
 20 11  1  0
 19 14  1  0
  4 32  1  0
  6 33  1  0
 12 34  1  0
 15 35  1  0
 16 36  1  0
 17 37  1  0
 18 38  1  0
 20 39  1  0
 23 40  1  0
 25 41  1  0
 26 42  1  0
 29 43  1  0
M  END
$$$$
