
     RDKit          3D

105111  0  0  0  0  0  0  0  0999 V2000
    6.1499    1.6710    5.7089 C   0  0  0  0  0  0  0  0  0  0  0  0
    6.1721    1.4291    4.5810 C   0  0  0  0  0  0  0  0  0  0  0  0
    6.2169    1.1389    3.1978 C   0  0  0  0  0  0  0  0  0  0  0  0
    5.1074    1.5991    2.4452 C   0  0  0  0  0  0  0  0  0  0  0  0
    5.0919    1.2946    1.1026 C   0  0  0  0  0  0  0  0  0  0  0  0
    3.8781    1.6637    0.3703 N   0  0  0  0  0  0  0  0  0  0  0  0
    3.2502    0.4536   -0.2034 C   0  0  0  0  0  0  0  0  0  0  0  0
    3.4571    0.0389   -1.3707 N   0  0  0  0  0  0  0  0  0  0  0  0
    2.8091   -1.0061   -2.0091 C   0  0  0  0  0  0  0  0  0  0  0  0
    1.8269   -1.5685   -1.1252 C   0  0  0  0  0  0  0  0  0  0  0  0
    1.6054   -1.1691    0.0488 C   0  0  0  0  0  0  0  0  0  0  0  0
    0.5998   -1.7058    1.0192 O   0  0  0  0  0  0  0  0  0  0  0  0
   -0.6555   -1.1855    0.6755 C   0  0  0  0  0  0  0  0  0  0  0  0
   -1.0052   -0.0094    1.4482 C   0  0  0  0  0  0  0  0  0  0  0  0
   -2.1398    0.6110    1.1488 C   0  0  0  0  0  0  0  0  0  0  0  0
   -3.0343    0.2859    0.1830 C   0  0  0  0  0  0  0  0  0  0  0  0
   -4.1376    1.0701   -0.1757 N   0  0  0  0  0  0  0  0  0  0  0  0
   -5.5109    0.8109    0.1267 C   0  0  0  0  0  0  0  0  0  0  0  0
   -5.8239   -0.1759    0.8308 O   0  0  0  0  0  0  0  0  0  0  0  0
   -6.5055    1.6695   -0.3872 N   0  0  0  0  0  0  0  0  0  0  0  0
   -7.8943    1.5495   -0.3228 C   0  0  0  0  0  0  0  0  0  0  0  0
   -8.6701    2.6284   -0.7923 C   0  0  0  0  0  0  0  0  0  0  0  0
  -10.0037    2.2852   -0.6776 C   0  0  0  0  0  0  0  0  0  0  0  0
  -11.1858    3.0826   -1.0243 C   0  0  0  0  0  0  0  0  0  0  0  0
  -12.3989    2.1800   -1.2027 C   0  0  0  0  0  0  0  0  0  0  0  0
  -11.4662    4.2084   -0.0764 C   0  0  0  0  0  0  0  0  0  0  0  0
  -10.9649    3.7395   -2.4052 C   0  0  0  0  0  0  0  0  0  0  0  0
  -10.0206    1.0620   -0.1645 N   0  0  0  0  0  0  0  0  0  0  0  0
   -8.7379    0.6348    0.0399 N   0  0  0  0  0  0  0  0  0  0  0  0
   -8.5348   -0.6640    0.5407 C   0  0  0  0  0  0  0  0  0  0  0  0
   -8.2610   -1.6947   -0.4134 C   0  0  0  0  0  0  0  0  0  0  0  0
   -8.1873   -3.0018   -0.0454 C   0  0  0  0  0  0  0  0  0  0  0  0
   -8.3640   -3.3734    1.2905 C   0  0  0  0  0  0  0  0  0  0  0  0
   -8.3049   -4.7987    1.7009 C   0  0  0  0  0  0  0  0  0  0  0  0
   -8.6184   -2.3264    2.1986 C   0  0  0  0  0  0  0  0  0  0  0  0
   -8.7010   -1.0350    1.8420 C   0  0  0  0  0  0  0  0  0  0  0  0
   -2.6908   -0.8763   -0.5382 C   0  0  0  0  0  0  0  0  0  0  0  0
   -3.6394   -1.3329   -1.4250 C   0  0  0  0  0  0  0  0  0  0  0  0
   -3.3829   -2.5275   -2.0233 C   0  0  0  0  0  0  0  0  0  0  0  0
   -2.2574   -3.3138   -1.8082 C   0  0  0  0  0  0  0  0  0  0  0  0
   -1.3078   -2.7963   -0.8949 C   0  0  0  0  0  0  0  0  0  0  0  0
   -1.5334   -1.5720   -0.2715 C   0  0  0  0  0  0  0  0  0  0  0  0
    2.3058   -0.0647    0.7028 N   0  0  0  0  0  0  0  0  0  0  0  0
    6.0400    0.6180    0.4684 C   0  0  0  0  0  0  0  0  0  0  0  0
    7.2003    0.1473    1.2380 C   0  0  0  0  0  0  0  0  0  0  0  0
    8.1766   -0.5991    0.5517 C   0  0  0  0  0  0  0  0  0  0  0  0
    8.7070   -1.5726    1.4301 O   0  0  0  0  0  0  0  0  0  0  0  0
    8.7124   -0.6242   -0.6853 N   0  0  0  0  0  0  0  0  0  0  0  0
    9.7181   -1.4826   -1.2258 C   0  0  1  0  0  0  0  0  0  0  0  0
    8.9958   -2.5038   -2.1330 C   0  0  0  0  0  0  0  0  0  0  0  0
   10.7589   -0.8834   -2.0718 C   0  0  0  0  0  0  0  0  0  0  0  0
   11.6735    0.0620   -1.5127 N   0  0  0  0  0  0  0  0  0  0  0  0
   11.1392    1.3598   -1.1723 C   0  0  0  0  0  0  0  0  0  0  0  0
   11.0298    1.5596    0.2952 C   0  0  0  0  0  0  0  0  0  0  0  0
   12.3242    1.6619    0.7827 O   0  0  0  0  0  0  0  0  0  0  0  0
   13.0291    0.5341    0.4975 C   0  0  0  0  0  0  0  0  0  0  0  0
   12.4250   -0.4959   -0.4081 C   0  0  0  0  0  0  0  0  0  0  0  0
    7.1911    0.4436    2.5525 C   0  0  0  0  0  0  0  0  0  0  0  0
    6.1146    1.9380    6.9249 H   0  0  0  0  0  0  0  0  0  0  0  0
    4.3320    2.1601    2.9249 H   0  0  0  0  0  0  0  0  0  0  0  0
    3.4957    2.5675    0.2316 H   0  0  0  0  0  0  0  0  0  0  0  0
    2.9485   -1.3547   -2.9740 H   0  0  0  0  0  0  0  0  0  0  0  0
    1.2701   -2.3916   -1.6151 H   0  0  0  0  0  0  0  0  0  0  0  0
   -0.2975    0.2516    2.2166 H   0  0  0  0  0  0  0  0  0  0  0  0
   -2.4323    1.4914    1.7661 H   0  0  0  0  0  0  0  0  0  0  0  0
   -3.9323    2.0033   -0.6854 H   0  0  0  0  0  0  0  0  0  0  0  0
   -6.0931    2.4977   -0.9526 H   0  0  0  0  0  0  0  0  0  0  0  0
   -8.3422    3.5728   -1.1722 H   0  0  0  0  0  0  0  0  0  0  0  0
  -12.6075    1.6146   -0.3001 H   0  0  0  0  0  0  0  0  0  0  0  0
  -13.2168    2.7741   -1.6132 H   0  0  0  0  0  0  0  0  0  0  0  0
  -12.1307    1.5081   -2.1044 H   0  0  0  0  0  0  0  0  0  0  0  0
  -11.0799    4.0047    0.9757 H   0  0  0  0  0  0  0  0  0  0  0  0
  -10.9218    5.1519   -0.4087 H   0  0  0  0  0  0  0  0  0  0  0  0
  -12.5386    4.4659   -0.0537 H   0  0  0  0  0  0  0  0  0  0  0  0
  -11.0776    2.9160   -3.1708 H   0  0  0  0  0  0  0  0  0  0  0  0
  -11.6833    4.5445   -2.5569 H   0  0  0  0  0  0  0  0  0  0  0  0
   -9.9102    4.0927   -2.3817 H   0  0  0  0  0  0  0  0  0  0  0  0
   -8.0969   -1.4168   -1.4388 H   0  0  0  0  0  0  0  0  0  0  0  0
   -8.0250   -3.8104   -0.7525 H   0  0  0  0  0  0  0  0  0  0  0  0
   -8.3860   -4.8860    2.7965 H   0  0  0  0  0  0  0  0  0  0  0  0
   -9.2076   -5.2936    1.2197 H   0  0  0  0  0  0  0  0  0  0  0  0
   -7.3542   -5.2424    1.3515 H   0  0  0  0  0  0  0  0  0  0  0  0
   -8.7103   -2.7056    3.2367 H   0  0  0  0  0  0  0  0  0  0  0  0
   -8.9123   -0.2176    2.5640 H   0  0  0  0  0  0  0  0  0  0  0  0
   -4.5161   -0.7701   -1.6812 H   0  0  0  0  0  0  0  0  0  0  0  0
   -4.0956   -2.9362   -2.7429 H   0  0  0  0  0  0  0  0  0  0  0  0
   -2.0679   -4.2856   -2.2486 H   0  0  0  0  0  0  0  0  0  0  0  0
   -0.4396   -3.3419   -0.6508 H   0  0  0  0  0  0  0  0  0  0  0  0
    6.0643    0.4064   -0.5932 H   0  0  0  0  0  0  0  0  0  0  0  0
    8.3181    0.1284   -1.4099 H   0  0  0  0  0  0  0  0  0  0  0  0
   10.0971   -2.0902   -0.3929 H   0  0  0  0  0  0  0  0  0  0  0  0
    8.9754   -3.5176   -1.7039 H   0  0  0  0  0  0  0  0  0  0  0  0
    9.4650   -2.5749   -3.1406 H   0  0  0  0  0  0  0  0  0  0  0  0
    7.9099   -2.2126   -2.1850 H   0  0  0  0  0  0  0  0  0  0  0  0
   10.2466   -0.3340   -2.9717 H   0  0  0  0  0  0  0  0  0  0  0  0
   11.3161   -1.6854   -2.5791 H   0  0  0  0  0  0  0  0  0  0  0  0
   11.9891    2.0716   -1.4857 H   0  0  0  0  0  0  0  0  0  0  0  0
   10.3034    1.6548   -1.7557 H   0  0  0  0  0  0  0  0  0  0  0  0
   10.4888    2.5656    0.4352 H   0  0  0  0  0  0  0  0  0  0  0  0
   10.5366    0.8005    0.8669 H   0  0  0  0  0  0  0  0  0  0  0  0
   14.0049    0.8322   -0.0113 H   0  0  0  0  0  0  0  0  0  0  0  0
   13.3879    0.1209    1.4714 H   0  0  0  0  0  0  0  0  0  0  0  0
   11.8724   -1.2221    0.2172 H   0  0  0  0  0  0  0  0  0  0  0  0
   13.2487   -1.0787   -0.8723 H   0  0  0  0  0  0  0  0  0  0  0  0
    8.0359    0.0986    3.1708 H   0  0  0  0  0  0  0  0  0  0  0  0
  1  2  3  0
  2  3  1  0
  3  4  2  0
  4  5  1  0
  5  6  1  0
  6  7  1  0
  7  8  2  0
  8  9  1  0
  9 10  2  0
 10 11  1  0
 11 12  1  0
 12 13  1  0
 13 14  2  0
 14 15  1  0
 15 16  2  0
 16 17  1  0
 17 18  1  0
 18 19  2  0
 18 20  1  0
 20 21  1  0
 21 22  2  0
 22 23  1  0
 23 24  1  0
 24 25  1  0
 24 26  1  0
 24 27  1  0
 23 28  2  0
 28 29  1  0
 29 30  1  0
 30 31  2  0
 31 32  1  0
 32 33  2  0
 33 34  1  0
 33 35  1  0
 35 36  2  0
 16 37  1  0
 37 38  2  0
 38 39  1  0
 39 40  2  0
 40 41  1  0
 41 42  2  0
 11 43  2  0
  5 44  2  0
 44 45  1  0
 45 46  1  0
 46 47  2  0
 46 48  1  0
 48 49  1  0
 49 50  1  0
 49 51  1  0
 51 52  1  0
 52 53  1  0
 53 54  1  0
 54 55  1  0
 55 56  1  0
 56 57  1  0
 45 58  2  0
 58  3  1  0
 43  7  1  0
 57 52  1  0
 42 13  1  0
 29 21  1  0
 36 30  1  0
 42 37  1  0
  1 59  1  0
  4 60  1  0
  6 61  1  0
  9 62  1  0
 10 63  1  0
 14 64  1  0
 15 65  1  0
 17 66  1  0
 20 67  1  0
 22 68  1  0
 25 69  1  0
 25 70  1  0
 25 71  1  0
 26 72  1  0
 26 73  1  0
 26 74  1  0
 27 75  1  0
 27 76  1  0
 27 77  1  0
 31 78  1  0
 32 79  1  0
 34 80  1  0
 34 81  1  0
 34 82  1  0
 35 83  1  0
 36 84  1  0
 38 85  1  0
 39 86  1  0
 40 87  1  0
 41 88  1  0
 44 89  1  0
 48 90  1  0
 49 91  1  1
 50 92  1  0
 50 93  1  0
 50 94  1  0
 51 95  1  0
 51 96  1  0
 53 97  1  0
 53 98  1  0
 54 99  1  0
 54100  1  0
 56101  1  0
 56102  1  0
 57103  1  0
 57104  1  0
 58105  1  0
M  END
$$$$
