@<TRIPOS>MOLECULE
*****
 105 111 0 0 0
SMALL
GASTEIGER

@<TRIPOS>ATOM
      1 C           6.1499    1.6710    5.7089 C.1     1  UNL1       -0.1139
      2 C           6.1721    1.4291    4.5810 C.1     1  UNL1       -0.0696
      3 C           6.2169    1.1389    3.1978 C.ar    1  UNL1        0.0271
      4 C           5.1074    1.5991    2.4452 C.ar    1  UNL1       -0.0250
      5 C           5.0919    1.2946    1.1026 C.ar    1  UNL1        0.0354
      6 N           3.8781    1.6637    0.3703 N.pl3   1  UNL1       -0.2835
      7 C           3.2502    0.4536   -0.2034 C.ar    1  UNL1        0.2226
      8 N           3.4571    0.0389   -1.3707 N.ar    1  UNL1       -0.2225
      9 C           2.8091   -1.0061   -2.0091 C.ar    1  UNL1        0.0362
     10 C           1.8269   -1.5685   -1.1252 C.ar    1  UNL1        0.0186
     11 C           1.6054   -1.1691    0.0488 C.ar    1  UNL1        0.2249
     12 O           0.5998   -1.7058    1.0192 O.3     1  UNL1       -0.4373
     13 C          -0.6555   -1.1855    0.6755 C.ar    1  UNL1        0.1381
     14 C          -1.0052   -0.0094    1.4482 C.ar    1  UNL1       -0.0169
     15 C          -2.1398    0.6110    1.1488 C.ar    1  UNL1       -0.0363
     16 C          -3.0343    0.2859    0.1830 C.ar    1  UNL1        0.0427
     17 N          -4.1376    1.0701   -0.1757 N.am    1  UNL1       -0.2686
     18 C          -5.5109    0.8109    0.1267 C.2     1  UNL1        0.3092
     19 O          -5.8239   -0.1759    0.8308 O.2     1  UNL1       -0.2521
     20 N          -6.5055    1.6695   -0.3872 N.am    1  UNL1       -0.2538
     21 C          -7.8943    1.5495   -0.3228 C.ar    1  UNL1        0.1299
     22 C          -8.6701    2.6284   -0.7923 C.ar    1  UNL1        0.0021
     23 C         -10.0037    2.2852   -0.6776 C.ar    1  UNL1        0.0706
     24 C         -11.1858    3.0826   -1.0243 C.3     1  UNL1        0.0063
     25 C         -12.3989    2.1800   -1.2027 C.3     1  UNL1       -0.0546
     26 C         -11.4662    4.2084   -0.0764 C.3     1  UNL1       -0.0546
     27 C         -10.9649    3.7395   -2.4052 C.3     1  UNL1       -0.0546
     28 N         -10.0206    1.0620   -0.1645 N.ar    1  UNL1       -0.1691
     29 N          -8.7379    0.6348    0.0399 N.ar    1  UNL1       -0.2181
     30 C          -8.5348   -0.6640    0.5407 C.ar    1  UNL1        0.0674
     31 C          -8.2610   -1.6947   -0.4134 C.ar    1  UNL1       -0.0359
     32 C          -8.1873   -3.0018   -0.0454 C.ar    1  UNL1       -0.0568
     33 C          -8.3640   -3.3734    1.2905 C.ar    1  UNL1       -0.0503
     34 C          -8.3049   -4.7987    1.7009 C.3     1  UNL1       -0.0397
     35 C          -8.6184   -2.3264    2.1986 C.ar    1  UNL1       -0.0568
     36 C          -8.7010   -1.0350    1.8420 C.ar    1  UNL1       -0.0359
     37 C          -2.6908   -0.8763   -0.5382 C.ar    1  UNL1        0.0069
     38 C          -3.6394   -1.3329   -1.4250 C.ar    1  UNL1       -0.0521
     39 C          -3.3829   -2.5275   -2.0233 C.ar    1  UNL1       -0.0611
     40 C          -2.2574   -3.3138   -1.8082 C.ar    1  UNL1       -0.0611
     41 C          -1.3078   -2.7963   -0.8949 C.ar    1  UNL1       -0.0505
     42 C          -1.5334   -1.5720   -0.2715 C.ar    1  UNL1        0.0262
     43 N           2.3058   -0.0647    0.7028 N.ar    1  UNL1       -0.1789
     44 C           6.0400    0.6180    0.4684 C.ar    1  UNL1       -0.0283
     45 C           7.2003    0.1473    1.2380 C.ar    1  UNL1        0.0396
     46 C           8.1766   -0.5991    0.5517 C.2     1  UNL1        0.2444
     47 O           8.7070   -1.5726    1.4301 O.2     1  UNL1       -0.2702
     48 N           8.7124   -0.6242   -0.6853 N.am    1  UNL1       -0.3075
     49 C           9.7181   -1.4826   -1.2258 C.3     1  UNL1        0.0333
     50 C           8.9958   -2.5038   -2.1330 C.3     1  UNL1       -0.0454
     51 C          10.7589   -0.8834   -2.0718 C.3     1  UNL1        0.0172
     52 N          11.6735    0.0620   -1.5127 N.3     1  UNL1       -0.2963
     53 C          11.1392    1.3598   -1.1723 C.3     1  UNL1        0.0225
     54 C          11.0298    1.5596    0.2952 C.3     1  UNL1        0.0604
     55 O          12.3242    1.6619    0.7827 O.3     1  UNL1       -0.3772
     56 C          13.0291    0.5341    0.4975 C.3     1  UNL1        0.0604
     57 C          12.4250   -0.4959   -0.4081 C.3     1  UNL1        0.0225
     58 C           7.1911    0.4436    2.5525 C.ar    1  UNL1       -0.0341
     59 H           6.1146    1.9380    6.9249 H       1  UNL1        0.1232
     60 H           4.3320    2.1601    2.9249 H       1  UNL1        0.0648
     61 H           3.4957    2.5675    0.2316 H       1  UNL1        0.1550
     62 H           2.9485   -1.3547   -2.9740 H       1  UNL1        0.0832
     63 H           1.2701   -2.3916   -1.6151 H       1  UNL1        0.0686
     64 H          -0.2975    0.2516    2.2166 H       1  UNL1        0.0655
     65 H          -2.4323    1.4914    1.7661 H       1  UNL1        0.0637
     66 H          -3.9323    2.0033   -0.6854 H       1  UNL1        0.1564
     67 H          -6.0931    2.4977   -0.9526 H       1  UNL1        0.1578
     68 H          -8.3422    3.5728   -1.1722 H       1  UNL1        0.0671
     69 H         -12.6075    1.6146   -0.3001 H       1  UNL1        0.0239
     70 H         -13.2168    2.7741   -1.6132 H       1  UNL1        0.0239
     71 H         -12.1307    1.5081   -2.1044 H       1  UNL1        0.0239
     72 H         -11.0799    4.0047    0.9757 H       1  UNL1        0.0239
     73 H         -10.9218    5.1519   -0.4087 H       1  UNL1        0.0239
     74 H         -12.5386    4.4659   -0.0537 H       1  UNL1        0.0239
     75 H         -11.0776    2.9160   -3.1708 H       1  UNL1        0.0239
     76 H         -11.6833    4.5445   -2.5569 H       1  UNL1        0.0239
     77 H          -9.9102    4.0927   -2.3817 H       1  UNL1        0.0239
     78 H          -8.0969   -1.4168   -1.4388 H       1  UNL1        0.0639
     79 H          -8.0250   -3.8104   -0.7525 H       1  UNL1        0.0621
     80 H          -8.3860   -4.8860    2.7965 H       1  UNL1        0.0278
     81 H          -9.2076   -5.2936    1.2197 H       1  UNL1        0.0278
     82 H          -7.3542   -5.2424    1.3515 H       1  UNL1        0.0278
     83 H          -8.7103   -2.7056    3.2367 H       1  UNL1        0.0621
     84 H          -8.9123   -0.2176    2.5640 H       1  UNL1        0.0639
     85 H          -4.5161   -0.7701   -1.6812 H       1  UNL1        0.0624
     86 H          -4.0956   -2.9362   -2.7429 H       1  UNL1        0.0618
     87 H          -2.0679   -4.2856   -2.2486 H       1  UNL1        0.0618
     88 H          -0.4396   -3.3419   -0.6508 H       1  UNL1        0.0625
     89 H           6.0643    0.4064   -0.5932 H       1  UNL1        0.0644
     90 H           8.3181    0.1284   -1.4099 H       1  UNL1        0.1493
     91 H          10.0971   -2.0902   -0.3929 H       1  UNL1        0.0508
     92 H           8.9754   -3.5176   -1.7039 H       1  UNL1        0.0248
     93 H           9.4650   -2.5749   -3.1406 H       1  UNL1        0.0248
     94 H           7.9099   -2.2126   -2.1850 H       1  UNL1        0.0248
     95 H          10.2466   -0.3340   -2.9717 H       1  UNL1        0.0445
     96 H          11.3161   -1.6854   -2.5791 H       1  UNL1        0.0445
     97 H          11.9891    2.0716   -1.4857 H       1  UNL1        0.0449
     98 H          10.3034    1.6548   -1.7557 H       1  UNL1        0.0449
     99 H          10.4888    2.5656    0.4352 H       1  UNL1        0.0572
    100 H          10.5366    0.8005    0.8669 H       1  UNL1        0.0572
    101 H          14.0049    0.8322   -0.0113 H       1  UNL1        0.0572
    102 H          13.3879    0.1209    1.4714 H       1  UNL1        0.0572
    103 H          11.8724   -1.2221    0.2172 H       1  UNL1        0.0449
    104 H          13.2487   -1.0787   -0.8723 H       1  UNL1        0.0449
    105 H           8.0359    0.0986    3.1708 H       1  UNL1        0.0637
@<TRIPOS>BOND
     1     1     2    3
     2     2     3    1
     3     3     4   ar
     4     4     5   ar
     5     5     6    1
     6     6     7    1
     7     7     8   ar
     8     8     9   ar
     9     9    10   ar
    10    10    11   ar
    11    11    12    1
    12    12    13    1
    13    13    14   ar
    14    14    15   ar
    15    15    16   ar
    16    16    17    1
    17    17    18   am
    18    18    19    2
    19    18    20   am
    20    20    21    1
    21    21    22   ar
    22    22    23   ar
    23    23    24    1
    24    24    25    1
    25    24    26    1
    26    24    27    1
    27    23    28   ar
    28    28    29   ar
    29    29    30    1
    30    30    31   ar
    31    31    32   ar
    32    32    33   ar
    33    33    34    1
    34    33    35   ar
    35    35    36   ar
    36    16    37   ar
    37    37    38   ar
    38    38    39   ar
    39    39    40   ar
    40    40    41   ar
    41    41    42   ar
    42    11    43   ar
    43     5    44   ar
    44    44    45   ar
    45    45    46    1
    46    46    47    2
    47    46    48   am
    48    48    49    1
    49    49    50    1
    50    49    51    1
    51    51    52    1
    52    52    53    1
    53    53    54    1
    54    54    55    1
    55    55    56    1
    56    56    57    1
    57    45    58   ar
    58    58     3   ar
    59    43     7   ar
    60    57    52    1
    61    42    13   ar
    62    29    21   ar
    63    36    30   ar
    64    42    37   ar
    65     1    59    1
    66     4    60    1
    67     6    61    1
    68     9    62    1
    69    10    63    1
    70    14    64    1
    71    15    65    1
    72    17    66    1
    73    20    67    1
    74    22    68    1
    75    25    69    1
    76    25    70    1
    77    25    71    1
    78    26    72    1
    79    26    73    1
    80    26    74    1
    81    27    75    1
    82    27    76    1
    83    27    77    1
    84    31    78    1
    85    32    79    1
    86    34    80    1
    87    34    81    1
    88    34    82    1
    89    35    83    1
    90    36    84    1
    91    38    85    1
    92    39    86    1
    93    40    87    1
    94    41    88    1
    95    44    89    1
    96    48    90    1
    97    49    91    1
    98    50    92    1
    99    50    93    1
   100    50    94    1
   101    51    95    1
   102    51    96    1
   103    53    97    1
   104    53    98    1
   105    54    99    1
   106    54   100    1
   107    56   101    1
   108    56   102    1
   109    57   103    1
   110    57   104    1
   111    58   105    1
