@<TRIPOS>MOLECULE
*****
 44 46 0 0 0
SMALL
GASTEIGER

@<TRIPOS>ATOM
      1 C          -4.2043   -1.0389   -1.7685 C.3     1  UNL1        0.0021
      2 N          -3.9536   -0.7550   -0.3491 N.pl3   1  UNL1       -0.3150
      3 C          -2.8161   -1.4021    0.3007 C.3     1  UNL1        0.0474
      4 C          -1.5068   -0.8773   -0.2444 C.3     1  UNL1        0.1052
      5 O          -0.4300   -1.5372    0.4174 O.3     1  UNL1       -0.4904
      6 C           0.8859   -1.1895    0.0514 C.ar    1  UNL1        0.1206
      7 C           1.0161   -0.2300   -0.9238 C.ar    1  UNL1       -0.0197
      8 C           2.2927    0.1597   -1.3323 C.ar    1  UNL1       -0.0551
      9 C           3.4359   -0.4123   -0.7634 C.ar    1  UNL1       -0.0456
     10 C           4.7435    0.0417   -1.2381 C.3     1  UNL1       -0.0069
     11 C           5.2646    1.2066   -0.4474 C.3     1  UNL1        0.0945
     12 S           5.4555    0.7675    1.3221 S.3     1  UNL1       -0.0542
     13 C           7.1519    0.1481    1.1828 C.2     1  UNL1        0.2789
     14 O           7.8813   -0.6881    1.8100 O.2     1  UNL1       -0.2625
     15 N           7.6639    0.8718    0.0422 N.am    1  UNL1       -0.2463
     16 C           6.6890    1.5029   -0.7507 C.2     1  UNL1        0.2336
     17 O           6.9015    2.3008   -1.7000 O.2     1  UNL1       -0.2741
     18 C           3.2165   -1.3686    0.2096 C.ar    1  UNL1       -0.0551
     19 C           1.9735   -1.7843    0.6441 C.ar    1  UNL1       -0.0197
     20 C          -4.9736    0.1591    0.0746 C.ar    1  UNL1        0.1211
     21 C          -6.1983   -0.1565    0.6194 C.ar    1  UNL1       -0.0217
     22 C          -7.0914    0.8287    0.9815 C.ar    1  UNL1       -0.0571
     23 C          -6.7096    2.1389    0.7772 C.ar    1  UNL1       -0.0435
     24 C          -5.4900    2.4537    0.2345 C.ar    1  UNL1        0.0297
     25 N          -4.6431    1.4693   -0.1076 N.ar    1  UNL1       -0.2403
     26 H          -3.4464   -1.7515   -2.1475 H       1  UNL1        0.0428
     27 H          -4.1766   -0.0720   -2.3189 H       1  UNL1        0.0428
     28 H          -5.2138   -1.5029   -1.8277 H       1  UNL1        0.0428
     29 H          -2.8444   -2.4967    0.1695 H       1  UNL1        0.0497
     30 H          -2.9139   -1.1988    1.3821 H       1  UNL1        0.0497
     31 H          -1.4699   -1.0473   -1.3386 H       1  UNL1        0.0712
     32 H          -1.4232    0.2255   -0.0221 H       1  UNL1        0.0712
     33 H           0.1724    0.2597   -1.4120 H       1  UNL1        0.0654
     34 H           2.3988    0.9244   -2.1103 H       1  UNL1        0.0621
     35 H           4.6406    0.3852   -2.2847 H       1  UNL1        0.0329
     36 H           5.4906   -0.7916   -1.1610 H       1  UNL1        0.0329
     37 H           4.6205    2.0879   -0.5001 H       1  UNL1        0.0515
     38 H           8.6862    0.9378   -0.2009 H       1  UNL1        0.1583
     39 H           4.1137   -1.8135    0.6521 H       1  UNL1        0.0621
     40 H           1.8529   -2.5381    1.4109 H       1  UNL1        0.0654
     41 H          -6.3942   -1.2056    0.7344 H       1  UNL1        0.0652
     42 H          -8.0431    0.5424    1.4055 H       1  UNL1        0.0619
     43 H          -7.3976    2.9462    1.0560 H       1  UNL1        0.0633
     44 H          -5.2077    3.4998    0.0797 H       1  UNL1        0.0830
@<TRIPOS>BOND
     1     1     2    1
     2     2     3    1
     3     3     4    1
     4     4     5    1
     5     5     6    1
     6     6     7   ar
     7     7     8   ar
     8     8     9   ar
     9     9    10    1
    10    10    11    1
    11    11    12    1
    12    12    13    1
    13    13    14    2
    14    13    15   am
    15    15    16   am
    16    16    17    2
    17     9    18   ar
    18    18    19   ar
    19     2    20    1
    20    20    21   ar
    21    21    22   ar
    22    22    23   ar
    23    23    24   ar
    24    24    25   ar
    25    19     6   ar
    26    25    20   ar
    27    16    11    1
    28     1    26    1
    29     1    27    1
    30     1    28    1
    31     3    29    1
    32     3    30    1
    33     4    31    1
    34     4    32    1
    35     7    33    1
    36     8    34    1
    37    10    35    1
    38    10    36    1
    39    11    37    1
    40    15    38    1
    41    18    39    1
    42    19    40    1
    43    21    41    1
    44    22    42    1
    45    23    43    1
    46    24    44    1
