@<TRIPOS>MOLECULE
*****
 70 73 0 0 0
SMALL
GASTEIGER

@<TRIPOS>ATOM
      1 C          -6.0516   -3.6042    2.2161 C.3     1  UNL1        0.0788
      2 O          -5.3042   -3.0963    1.1372 O.3     1  UNL1       -0.4951
      3 C          -5.3625   -1.7563    0.8126 C.ar    1  UNL1        0.1208
      4 C          -4.6167   -1.2932   -0.2513 C.ar    1  UNL1       -0.0075
      5 C          -4.6230    0.0311   -0.6357 C.ar    1  UNL1        0.0449
      6 C          -5.3837    0.9676    0.0321 C.ar    1  UNL1       -0.0206
      7 C          -6.1323    0.4820    1.1062 C.ar    1  UNL1       -0.0534
      8 C          -6.1306   -0.8348    1.4940 C.ar    1  UNL1       -0.0196
      9 C          -5.5186    2.4121   -0.2277 C.3     1  UNL1        0.0675
     10 C          -6.9393    2.8218   -0.5402 C.3     1  UNL1       -0.0474
     11 C          -5.0624    3.1220    1.0399 C.3     1  UNL1       -0.0474
     12 C          -4.6615    2.7495   -1.3935 C.2     1  UNL1        0.2320
     13 O          -4.7115    3.9882   -1.6993 O.2     1  UNL1       -0.2742
     14 N          -3.8298    1.9005   -2.1754 N.am    1  UNL1       -0.2371
     15 C          -3.0668    2.4092   -3.2738 C.3     1  UNL1        0.0266
     16 C          -1.6819    2.8830   -2.9128 C.3     1  UNL1       -0.0113
     17 C          -0.8546    1.7941   -2.3304 C.ar    1  UNL1       -0.0458
     18 C          -0.8602    1.5870   -0.9705 C.ar    1  UNL1       -0.0567
     19 C          -0.1181    0.5964   -0.3602 C.ar    1  UNL1       -0.0348
     20 C           0.6714   -0.2345   -1.1280 C.ar    1  UNL1        0.1086
     21 C           0.6918   -0.0431   -2.5008 C.ar    1  UNL1       -0.0348
     22 C          -0.0530    0.9499   -3.1060 C.ar    1  UNL1       -0.0567
     23 S           1.6715   -1.5419   -0.4809 S.O2    1  UNL1        0.0756
     24 O           0.9878   -2.0615    0.7315 O.2     1  UNL1       -0.1499
     25 O           1.8301   -2.6011   -1.5412 O.2     1  UNL1       -0.1499
     26 N           3.2612   -0.9264   -0.1044 N.am    1  UNL1       -0.1693
     27 C           4.2153   -1.8438    0.4330 C.2     1  UNL1        0.3191
     28 O           3.9650   -3.0434    0.6408 O.2     1  UNL1       -0.2512
     29 N           5.4699   -1.2513    0.7040 N.am    1  UNL1       -0.2953
     30 C           6.6618   -1.9109    1.2575 C.3     1  UNL1        0.0246
     31 C           7.7628   -1.8913    0.2488 C.3     1  UNL1       -0.0345
     32 C           9.0776   -2.0978    0.9762 C.3     1  UNL1       -0.0514
     33 C           9.3677   -0.7918    1.6860 C.3     1  UNL1       -0.0529
     34 C           8.1824   -0.2838    2.4482 C.3     1  UNL1       -0.0514
     35 C           7.0761   -1.3077    2.5553 C.3     1  UNL1       -0.0345
     36 C          -3.8419    0.5399   -1.7569 C.2     1  UNL1        0.2533
     37 O          -3.1328   -0.2908   -2.3918 O.2     1  UNL1       -0.2696
     38 H          -7.0912   -3.1733    2.1998 H       1  UNL1        0.0660
     39 H          -5.6029   -3.3027    3.1829 H       1  UNL1        0.0660
     40 H          -6.0847   -4.7173    2.1957 H       1  UNL1        0.0660
     41 H          -3.9822   -1.9339   -0.8499 H       1  UNL1        0.0662
     42 H          -6.7693    1.1444    1.7013 H       1  UNL1        0.0622
     43 H          -6.7344   -1.1696    2.3435 H       1  UNL1        0.0654
     44 H          -7.6357    2.5275    0.2423 H       1  UNL1        0.0243
     45 H          -7.1918    2.4654   -1.5456 H       1  UNL1        0.0243
     46 H          -6.9265    3.9380   -0.5896 H       1  UNL1        0.0243
     47 H          -4.6784    4.1325    0.8327 H       1  UNL1        0.0243
     48 H          -4.3260    2.4737    1.5970 H       1  UNL1        0.0243
     49 H          -5.9584    3.1750    1.7069 H       1  UNL1        0.0243
     50 H          -3.6160    3.2297   -3.7429 H       1  UNL1        0.0473
     51 H          -2.9622    1.6035   -4.0248 H       1  UNL1        0.0473
     52 H          -1.6701    3.7141   -2.2101 H       1  UNL1        0.0329
     53 H          -1.2128    3.2261   -3.8567 H       1  UNL1        0.0329
     54 H          -1.4735    2.2291   -0.3530 H       1  UNL1        0.0621
     55 H          -0.1113    0.4204    0.7074 H       1  UNL1        0.0637
     56 H           1.3070   -0.6860   -3.1274 H       1  UNL1        0.0637
     57 H          -0.0399    1.1038   -4.1843 H       1  UNL1        0.0621
     58 H           3.4599    0.0963   -0.2863 H       1  UNL1        0.1781
     59 H           5.7570   -0.2585    0.5586 H       1  UNL1        0.1506
     60 H           6.4334   -2.9993    1.4459 H       1  UNL1        0.0499
     61 H           7.8418   -0.9255   -0.2942 H       1  UNL1        0.0283
     62 H           7.6102   -2.6563   -0.5394 H       1  UNL1        0.0283
     63 H           8.9563   -2.8817    1.7686 H       1  UNL1        0.0266
     64 H           9.8669   -2.3893    0.2854 H       1  UNL1        0.0266
     65 H           9.5676   -0.0535    0.8572 H       1  UNL1        0.0265
     66 H          10.2945   -0.8239    2.2897 H       1  UNL1        0.0265
     67 H           7.8468    0.7089    2.1071 H       1  UNL1        0.0266
     68 H           8.5290   -0.1250    3.5098 H       1  UNL1        0.0266
     69 H           6.2149   -0.8211    3.0409 H       1  UNL1        0.0283
     70 H           7.4268   -2.0812    3.2934 H       1  UNL1        0.0283
@<TRIPOS>BOND
     1     1     2    1
     2     2     3    1
     3     3     4   ar
     4     4     5   ar
     5     5     6   ar
     6     6     7   ar
     7     7     8   ar
     8     6     9    1
     9     9    10    1
    10     9    11    1
    11     9    12    1
    12    12    13    2
    13    12    14   am
    14    14    15    1
    15    15    16    1
    16    16    17    1
    17    17    18   ar
    18    18    19   ar
    19    19    20   ar
    20    20    21   ar
    21    21    22   ar
    22    20    23    1
    23    23    24    2
    24    23    25    2
    25    23    26    1
    26    26    27   am
    27    27    28    2
    28    27    29   am
    29    29    30    1
    30    30    31    1
    31    31    32    1
    32    32    33    1
    33    33    34    1
    34    34    35    1
    35    14    36   am
    36    36    37    2
    37     8     3   ar
    38    22    17   ar
    39    35    30    1
    40    36     5    1
    41     1    38    1
    42     1    39    1
    43     1    40    1
    44     4    41    1
    45     7    42    1
    46     8    43    1
    47    10    44    1
    48    10    45    1
    49    10    46    1
    50    11    47    1
    51    11    48    1
    52    11    49    1
    53    15    50    1
    54    15    51    1
    55    16    52    1
    56    16    53    1
    57    18    54    1
    58    19    55    1
    59    21    56    1
    60    22    57    1
    61    26    58    1
    62    29    59    1
    63    30    60    1
    64    31    61    1
    65    31    62    1
    66    32    63    1
    67    32    64    1
    68    33    65    1
    69    33    66    1
    70    34    67    1
    71    34    68    1
    72    35    69    1
    73    35    70    1
