
     RDKit          3D

 70 73  0  0  0  0  0  0  0  0999 V2000
   -6.0516   -3.6042    2.2161 C   0  0  0  0  0  0  0  0  0  0  0  0
   -5.3042   -3.0963    1.1372 O   0  0  0  0  0  0  0  0  0  0  0  0
   -5.3625   -1.7563    0.8126 C   0  0  0  0  0  0  0  0  0  0  0  0
   -4.6167   -1.2932   -0.2513 C   0  0  0  0  0  0  0  0  0  0  0  0
   -4.6230    0.0311   -0.6357 C   0  0  0  0  0  0  0  0  0  0  0  0
   -5.3837    0.9676    0.0321 C   0  0  0  0  0  0  0  0  0  0  0  0
   -6.1323    0.4820    1.1062 C   0  0  0  0  0  0  0  0  0  0  0  0
   -6.1306   -0.8348    1.4940 C   0  0  0  0  0  0  0  0  0  0  0  0
   -5.5186    2.4121   -0.2277 C   0  0  0  0  0  0  0  0  0  0  0  0
   -6.9393    2.8218   -0.5402 C   0  0  0  0  0  0  0  0  0  0  0  0
   -5.0624    3.1220    1.0399 C   0  0  0  0  0  0  0  0  0  0  0  0
   -4.6615    2.7495   -1.3935 C   0  0  0  0  0  0  0  0  0  0  0  0
   -4.7115    3.9882   -1.6993 O   0  0  0  0  0  0  0  0  0  0  0  0
   -3.8298    1.9005   -2.1754 N   0  0  0  0  0  0  0  0  0  0  0  0
   -3.0668    2.4092   -3.2738 C   0  0  0  0  0  0  0  0  0  0  0  0
   -1.6819    2.8830   -2.9128 C   0  0  0  0  0  0  0  0  0  0  0  0
   -0.8546    1.7941   -2.3304 C   0  0  0  0  0  0  0  0  0  0  0  0
   -0.8602    1.5870   -0.9705 C   0  0  0  0  0  0  0  0  0  0  0  0
   -0.1181    0.5964   -0.3602 C   0  0  0  0  0  0  0  0  0  0  0  0
    0.6714   -0.2345   -1.1280 C   0  0  0  0  0  0  0  0  0  0  0  0
    0.6918   -0.0431   -2.5008 C   0  0  0  0  0  0  0  0  0  0  0  0
   -0.0530    0.9499   -3.1060 C   0  0  0  0  0  0  0  0  0  0  0  0
    1.6715   -1.5419   -0.4809 S   0  0  0  0  0  0  0  0  0  0  0  0
    0.9878   -2.0615    0.7315 O   0  0  0  0  0  0  0  0  0  0  0  0
    1.8301   -2.6011   -1.5412 O   0  0  0  0  0  0  0  0  0  0  0  0
    3.2612   -0.9264   -0.1044 N   0  0  0  0  0  0  0  0  0  0  0  0
    4.2153   -1.8438    0.4330 C   0  0  0  0  0  0  0  0  0  0  0  0
    3.9650   -3.0434    0.6408 O   0  0  0  0  0  0  0  0  0  0  0  0
    5.4699   -1.2513    0.7040 N   0  0  0  0  0  0  0  0  0  0  0  0
    6.6618   -1.9109    1.2575 C   0  0  0  0  0  0  0  0  0  0  0  0
    7.7628   -1.8913    0.2488 C   0  0  0  0  0  0  0  0  0  0  0  0
    9.0776   -2.0978    0.9762 C   0  0  0  0  0  0  0  0  0  0  0  0
    9.3677   -0.7918    1.6860 C   0  0  0  0  0  0  0  0  0  0  0  0
    8.1824   -0.2838    2.4482 C   0  0  0  0  0  0  0  0  0  0  0  0
    7.0761   -1.3077    2.5553 C   0  0  0  0  0  0  0  0  0  0  0  0
   -3.8419    0.5399   -1.7569 C   0  0  0  0  0  0  0  0  0  0  0  0
   -3.1328   -0.2908   -2.3918 O   0  0  0  0  0  0  0  0  0  0  0  0
   -7.0912   -3.1733    2.1998 H   0  0  0  0  0  0  0  0  0  0  0  0
   -5.6029   -3.3027    3.1829 H   0  0  0  0  0  0  0  0  0  0  0  0
   -6.0847   -4.7173    2.1957 H   0  0  0  0  0  0  0  0  0  0  0  0
   -3.9822   -1.9339   -0.8499 H   0  0  0  0  0  0  0  0  0  0  0  0
   -6.7693    1.1444    1.7013 H   0  0  0  0  0  0  0  0  0  0  0  0
   -6.7344   -1.1696    2.3435 H   0  0  0  0  0  0  0  0  0  0  0  0
   -7.6357    2.5275    0.2423 H   0  0  0  0  0  0  0  0  0  0  0  0
   -7.1918    2.4654   -1.5456 H   0  0  0  0  0  0  0  0  0  0  0  0
   -6.9265    3.9380   -0.5896 H   0  0  0  0  0  0  0  0  0  0  0  0
   -4.6784    4.1325    0.8327 H   0  0  0  0  0  0  0  0  0  0  0  0
   -4.3260    2.4737    1.5970 H   0  0  0  0  0  0  0  0  0  0  0  0
   -5.9584    3.1750    1.7069 H   0  0  0  0  0  0  0  0  0  0  0  0
   -3.6160    3.2297   -3.7429 H   0  0  0  0  0  0  0  0  0  0  0  0
   -2.9622    1.6035   -4.0248 H   0  0  0  0  0  0  0  0  0  0  0  0
   -1.6701    3.7141   -2.2101 H   0  0  0  0  0  0  0  0  0  0  0  0
   -1.2128    3.2261   -3.8567 H   0  0  0  0  0  0  0  0  0  0  0  0
   -1.4735    2.2291   -0.3530 H   0  0  0  0  0  0  0  0  0  0  0  0
   -0.1113    0.4204    0.7074 H   0  0  0  0  0  0  0  0  0  0  0  0
    1.3070   -0.6860   -3.1274 H   0  0  0  0  0  0  0  0  0  0  0  0
   -0.0399    1.1038   -4.1843 H   0  0  0  0  0  0  0  0  0  0  0  0
    3.4599    0.0963   -0.2863 H   0  0  0  0  0  0  0  0  0  0  0  0
    5.7570   -0.2585    0.5586 H   0  0  0  0  0  0  0  0  0  0  0  0
    6.4334   -2.9993    1.4459 H   0  0  0  0  0  0  0  0  0  0  0  0
    7.8418   -0.9255   -0.2942 H   0  0  0  0  0  0  0  0  0  0  0  0
    7.6102   -2.6563   -0.5394 H   0  0  0  0  0  0  0  0  0  0  0  0
    8.9563   -2.8817    1.7686 H   0  0  0  0  0  0  0  0  0  0  0  0
    9.8669   -2.3893    0.2854 H   0  0  0  0  0  0  0  0  0  0  0  0
    9.5676   -0.0535    0.8572 H   0  0  0  0  0  0  0  0  0  0  0  0
   10.2945   -0.8239    2.2897 H   0  0  0  0  0  0  0  0  0  0  0  0
    7.8468    0.7089    2.1071 H   0  0  0  0  0  0  0  0  0  0  0  0
    8.5290   -0.1250    3.5098 H   0  0  0  0  0  0  0  0  0  0  0  0
    6.2149   -0.8211    3.0409 H   0  0  0  0  0  0  0  0  0  0  0  0
    7.4268   -2.0812    3.2934 H   0  0  0  0  0  0  0  0  0  0  0  0
  1  2  1  0
  2  3  1  0
  3  4  2  0
  4  5  1  0
  5  6  2  0
  6  7  1  0
  7  8  2  0
  6  9  1  0
  9 10  1  0
  9 11  1  0
  9 12  1  0
 12 13  2  0
 12 14  1  0
 14 15  1  0
 15 16  1  0
 16 17  1  0
 17 18  2  0
 18 19  1  0
 19 20  2  0
 20 21  1  0
 21 22  2  0
 20 23  1  0
 23 24  2  0
 23 25  2  0
 23 26  1  0
 26 27  1  0
 27 28  2  0
 27 29  1  0
 29 30  1  0
 30 31  1  0
 31 32  1  0
 32 33  1  0
 33 34  1  0
 34 35  1  0
 14 36  1  0
 36 37  2  0
  8  3  1  0
 22 17  1  0
 35 30  1  0
 36  5  1  0
  1 38  1  0
  1 39  1  0
  1 40  1  0
  4 41  1  0
  7 42  1  0
  8 43  1  0
 10 44  1  0
 10 45  1  0
 10 46  1  0
 11 47  1  0
 11 48  1  0
 11 49  1  0
 15 50  1  0
 15 51  1  0
 16 52  1  0
 16 53  1  0
 18 54  1  0
 19 55  1  0
 21 56  1  0
 22 57  1  0
 26 58  1  0
 29 59  1  0
 30 60  1  0
 31 61  1  0
 31 62  1  0
 32 63  1  0
 32 64  1  0
 33 65  1  0
 33 66  1  0
 34 67  1  0
 34 68  1  0
 35 69  1  0
 35 70  1  0
M  END
$$$$
