
     RDKit          3D

 34 36  0  0  0  0  0  0  0  0999 V2000
   -5.0148    1.6802    1.0774 S   0  0  0  0  0  0  0  0  0  0  0  0
   -5.1451    0.2402   -0.0379 C   0  0  0  0  0  0  0  0  0  0  0  0
   -3.7424   -0.0275   -0.5982 C   0  0  0  0  0  0  0  0  0  0  0  0
   -2.7944   -0.3169    0.4914 C   0  0  0  0  0  0  0  0  0  0  0  0
   -2.9973   -0.3638    1.7328 O   0  0  0  0  0  0  0  0  0  0  0  0
   -1.4034   -0.6053    0.2470 N   0  0  0  0  0  0  0  0  0  0  0  0
   -0.7133   -0.8495    1.4951 C   0  0  0  0  0  0  0  0  0  0  0  0
    0.6821   -1.3810    1.2833 C   0  0  0  0  0  0  0  0  0  0  0  0
    1.3986   -0.5890    0.2440 C   0  0  0  0  0  0  0  0  0  0  0  0
    0.6448   -0.2528   -0.8816 C   0  0  0  0  0  0  0  0  0  0  0  0
   -0.7814   -0.6461   -1.0578 C   0  0  0  0  0  0  0  0  0  0  0  0
    1.4986    0.4438   -1.6512 N   0  0  0  0  0  0  0  0  0  0  0  0
    2.7138    0.5637   -1.0928 C   0  0  0  0  0  0  0  0  0  0  0  0
    2.6744   -0.0938    0.1295 C   0  0  0  0  0  0  0  0  0  0  0  0
    3.7547   -0.1727    0.9781 C   0  0  0  0  0  0  0  0  0  0  0  0
    4.9198    0.4400    0.5690 C   0  0  0  0  0  0  0  0  0  0  0  0
    5.0145    1.1126   -0.6461 C   0  0  0  0  0  0  0  0  0  0  0  0
    3.8940    1.1698   -1.4794 C   0  0  0  0  0  0  0  0  0  0  0  0
   -4.6217    2.8138    0.3087 H   0  0  0  0  0  0  0  0  0  0  0  0
   -5.7783    0.4867   -0.9143 H   0  0  0  0  0  0  0  0  0  0  0  0
   -5.4802   -0.6279    0.5474 H   0  0  0  0  0  0  0  0  0  0  0  0
   -3.8563   -0.9587   -1.1949 H   0  0  0  0  0  0  0  0  0  0  0  0
   -3.4391    0.8531   -1.2028 H   0  0  0  0  0  0  0  0  0  0  0  0
   -0.6481    0.1242    2.0448 H   0  0  0  0  0  0  0  0  0  0  0  0
   -1.2605   -1.5928    2.1090 H   0  0  0  0  0  0  0  0  0  0  0  0
    0.6457   -2.4685    1.0180 H   0  0  0  0  0  0  0  0  0  0  0  0
    1.2121   -1.3227    2.2560 H   0  0  0  0  0  0  0  0  0  0  0  0
   -1.2326    0.0816   -1.7598 H   0  0  0  0  0  0  0  0  0  0  0  0
   -0.8378   -1.6325   -1.5457 H   0  0  0  0  0  0  0  0  0  0  0  0
    1.3088    0.8706   -2.5838 H   0  0  0  0  0  0  0  0  0  0  0  0
    3.6990   -0.6960    1.9349 H   0  0  0  0  0  0  0  0  0  0  0  0
    5.8124    0.4173    1.1895 H   0  0  0  0  0  0  0  0  0  0  0  0
    5.9262    1.6056   -0.9919 H   0  0  0  0  0  0  0  0  0  0  0  0
    3.9475    1.6941   -2.4397 H   0  0  0  0  0  0  0  0  0  0  0  0
  1  2  1  0
  2  3  1  0
  3  4  1  0
  4  5  2  0
  4  6  1  0
  6  7  1  0
  7  8  1  0
  8  9  1  0
  9 10  2  0
 10 11  1  0
 10 12  1  0
 12 13  1  0
 13 14  2  0
 14 15  1  0
 15 16  2  0
 16 17  1  0
 17 18  2  0
 11  6  1  0
 18 13  1  0
 14  9  1  0
  1 19  1  0
  2 20  1  0
  2 21  1  0
  3 22  1  0
  3 23  1  0
  7 24  1  0
  7 25  1  0
  8 26  1  0
  8 27  1  0
 11 28  1  0
 11 29  1  0
 12 30  1  0
 15 31  1  0
 16 32  1  0
 17 33  1  0
 18 34  1  0
M  END
$$$$
