@<TRIPOS>MOLECULE
*****
 46 47 0 0 0
SMALL
GASTEIGER

@<TRIPOS>ATOM
      1 C          -6.3326    0.9065    1.3920 C.3     1  UNL1       -0.0524
      2 C          -5.1910    1.0619    0.4097 C.3     1  UNL1       -0.0038
      3 N          -4.2438   -0.0113    0.4977 N.3     1  UNL1       -0.2996
      4 C          -4.8457   -1.2185    0.0361 C.3     1  UNL1       -0.0038
      5 C          -3.9280   -2.4125    0.0992 C.3     1  UNL1       -0.0524
      6 C          -2.9864    0.2956   -0.1367 C.3     1  UNL1        0.0331
      7 C          -2.1896    1.3418    0.5582 C.3     1  UNL1        0.1022
      8 O          -0.9741    1.6631   -0.0264 O.3     1  UNL1       -0.4907
      9 C           0.1385    0.9089   -0.2582 C.ar    1  UNL1        0.1206
     10 C           1.0551    1.7659   -0.8914 C.ar    1  UNL1       -0.0197
     11 C           2.3266    1.3194   -1.2796 C.ar    1  UNL1       -0.0548
     12 C           2.6892   -0.0000   -1.0330 C.ar    1  UNL1       -0.0428
     13 C           4.0214   -0.5446   -1.4153 C.3     1  UNL1       -0.0024
     14 C           4.9945   -0.3881   -0.2999 C.ar    1  UNL1       -0.0431
     15 C           5.7396    0.7857   -0.2249 C.ar    1  UNL1       -0.0583
     16 C           6.6498    0.9362    0.8125 C.ar    1  UNL1       -0.0615
     17 C           6.7572   -0.1142    1.7225 C.ar    1  UNL1       -0.0617
     18 C           6.0261   -1.2942    1.6699 C.ar    1  UNL1       -0.0615
     19 C           5.1316   -1.4045    0.6225 C.ar    1  UNL1       -0.0583
     20 C           1.7931   -0.8422   -0.4125 C.ar    1  UNL1       -0.0548
     21 C           0.5542   -0.3842   -0.0409 C.ar    1  UNL1       -0.0197
     22 H          -6.8353    1.9032    1.4326 H       1  UNL1        0.0242
     23 H          -7.1061    0.1869    1.0598 H       1  UNL1        0.0242
     24 H          -5.9065    0.7080    2.3745 H       1  UNL1        0.0242
     25 H          -5.6515    1.0627   -0.6161 H       1  UNL1        0.0424
     26 H          -4.7348    2.0443    0.6305 H       1  UNL1        0.0424
     27 H          -5.1295   -1.1087   -1.0460 H       1  UNL1        0.0424
     28 H          -5.7144   -1.4391    0.6908 H       1  UNL1        0.0424
     29 H          -4.4579   -3.3499    0.4433 H       1  UNL1        0.0242
     30 H          -3.0956   -2.2730    0.8077 H       1  UNL1        0.0242
     31 H          -3.4916   -2.6680   -0.8883 H       1  UNL1        0.0242
     32 H          -2.3774   -0.6159   -0.2571 H       1  UNL1        0.0460
     33 H          -3.2219    0.6073   -1.2004 H       1  UNL1        0.0460
     34 H          -1.9985    0.9723    1.6146 H       1  UNL1        0.0709
     35 H          -2.7410    2.2977    0.7014 H       1  UNL1        0.0709
     36 H           0.9845    2.8215   -1.1786 H       1  UNL1        0.0654
     37 H           3.1035    1.8858   -1.7688 H       1  UNL1        0.0622
     38 H           4.3743    0.0262   -2.2937 H       1  UNL1        0.0361
     39 H           3.9399   -1.6168   -1.6870 H       1  UNL1        0.0361
     40 H           5.6348    1.5820   -0.9441 H       1  UNL1        0.0620
     41 H           7.2750    1.8094    0.9584 H       1  UNL1        0.0618
     42 H           7.4586   -0.0130    2.5344 H       1  UNL1        0.0618
     43 H           6.1886   -2.0454    2.4280 H       1  UNL1        0.0618
     44 H           4.5433   -2.3188    0.5534 H       1  UNL1        0.0620
     45 H           1.9698   -1.8818   -0.1741 H       1  UNL1        0.0622
     46 H          -0.1961   -0.9474    0.4465 H       1  UNL1        0.0654
@<TRIPOS>BOND
     1     1     2    1
     2     2     3    1
     3     3     4    1
     4     4     5    1
     5     3     6    1
     6     6     7    1
     7     7     8    1
     8     8     9    1
     9     9    10   ar
    10    10    11   ar
    11    11    12   ar
    12    12    13    1
    13    13    14    1
    14    14    15   ar
    15    15    16   ar
    16    16    17   ar
    17    17    18   ar
    18    18    19   ar
    19    12    20   ar
    20    20    21   ar
    21    21     9   ar
    22    19    14   ar
    23     1    22    1
    24     1    23    1
    25     1    24    1
    26     2    25    1
    27     2    26    1
    28     4    27    1
    29     4    28    1
    30     5    29    1
    31     5    30    1
    32     5    31    1
    33     6    32    1
    34     6    33    1
    35     7    34    1
    36     7    35    1
    37    10    36    1
    38    11    37    1
    39    13    38    1
    40    13    39    1
    41    15    40    1
    42    16    41    1
    43    17    42    1
    44    18    43    1
    45    19    44    1
    46    20    45    1
    47    21    46    1
