@<TRIPOS>MOLECULE
*****
 35 37 0 0 0
SMALL
GASTEIGER

@<TRIPOS>ATOM
      1 C          -4.4062   -1.5717    1.9260 C.3     1  UNL1       -0.0376
      2 C          -3.8811   -1.4009    0.5619 C.ar    1  UNL1       -0.0155
      3 C          -4.7086   -1.7057   -0.5176 C.ar    1  UNL1        0.1394
      4 C          -6.0505   -2.1782   -0.3112 C.1     1  UNL1        0.1066
      5 N          -7.1486   -2.5433   -0.1449 N.1     1  UNL1       -0.1906
      6 C          -4.1595   -1.5253   -1.7723 C.ar    1  UNL1        0.3551
      7 O          -4.9104   -1.8020   -2.7571 O.2     1  UNL1       -0.2437
      8 O          -2.9198   -1.0885   -1.9432 O.2     1  UNL1       -0.4211
      9 C          -2.1408   -0.8016   -0.9188 C.ar    1  UNL1        0.1428
     10 C          -0.8468   -0.3455   -1.0893 C.ar    1  UNL1        0.0231
     11 C          -0.0058   -0.0365   -0.0559 C.ar    1  UNL1        0.1245
     12 O           1.2831    0.4177   -0.2281 O.3     1  UNL1       -0.4873
     13 C           2.1469    0.7352    0.8368 C.3     1  UNL1        0.1146
     14 C           3.4731    1.1993    0.3578 C.ar    1  UNL1       -0.0103
     15 C           4.5254    0.3494    0.1282 C.ar    1  UNL1       -0.0543
     16 C           5.7164    0.8553   -0.3130 C.ar    1  UNL1       -0.0474
     17 C           5.9168    2.1927   -0.5420 C.ar    1  UNL1        0.0179
     18 BR          7.6042    2.8280   -1.1569 Br      1  UNL1       -0.0503
     19 C           4.8629    3.0633   -0.3145 C.ar    1  UNL1       -0.0474
     20 C           3.6617    2.5470    0.1312 C.ar    1  UNL1       -0.0543
     21 C          -0.4600   -0.1827    1.2522 C.ar    1  UNL1       -0.0191
     22 C          -1.7585   -0.6402    1.4324 C.ar    1  UNL1       -0.0473
     23 C          -2.5916   -0.9467    0.3769 C.ar    1  UNL1        0.0220
     24 H          -5.5031   -1.6928    1.9331 H       1  UNL1        0.0278
     25 H          -4.1876   -0.6701    2.5515 H       1  UNL1        0.0278
     26 H          -3.8835   -2.4180    2.3977 H       1  UNL1        0.0278
     27 H          -0.4643   -0.2214   -2.1014 H       1  UNL1        0.0691
     28 H           1.6694    1.5798    1.3966 H       1  UNL1        0.0748
     29 H           2.3009   -0.1497    1.5140 H       1  UNL1        0.0748
     30 H           4.3841   -0.7045    0.3034 H       1  UNL1        0.0622
     31 H           6.5382    0.1687   -0.4894 H       1  UNL1        0.0629
     32 H           5.0140    4.1103   -0.4919 H       1  UNL1        0.0629
     33 H           2.8598    3.2792    0.2957 H       1  UNL1        0.0622
     34 H           0.1926    0.0573    2.0668 H       1  UNL1        0.0654
     35 H          -2.1231   -0.7580    2.4455 H       1  UNL1        0.0626
@<TRIPOS>BOND
     1     1     2    1
     2     2     3   ar
     3     3     4    1
     4     4     5    3
     5     3     6   ar
     6     6     7    2
     7     6     8   ar
     8     8     9   ar
     9     9    10   ar
    10    10    11   ar
    11    11    12    1
    12    12    13    1
    13    13    14    1
    14    14    15   ar
    15    15    16   ar
    16    16    17   ar
    17    17    18    1
    18    17    19   ar
    19    19    20   ar
    20    11    21   ar
    21    21    22   ar
    22    22    23   ar
    23    23     2   ar
    24    23     9   ar
    25    20    14   ar
    26     1    24    1
    27     1    25    1
    28     1    26    1
    29    10    27    1
    30    13    28    1
    31    13    29    1
    32    15    30    1
    33    16    31    1
    34    19    32    1
    35    20    33    1
    36    21    34    1
    37    22    35    1
