
     RDKit          3D

 35 37  0  0  0  0  0  0  0  0999 V2000
   -4.4062   -1.5717    1.9260 C   0  0  0  0  0  0  0  0  0  0  0  0
   -3.8811   -1.4009    0.5619 C   0  0  0  0  0  0  0  0  0  0  0  0
   -4.7086   -1.7057   -0.5176 C   0  0  0  0  0  0  0  0  0  0  0  0
   -6.0505   -2.1782   -0.3112 C   0  0  0  0  0  0  0  0  0  0  0  0
   -7.1486   -2.5433   -0.1449 N   0  0  0  0  0  0  0  0  0  0  0  0
   -4.1595   -1.5253   -1.7723 C   0  0  0  0  0  0  0  0  0  0  0  0
   -4.9104   -1.8020   -2.7571 O   0  0  0  0  0  0  0  0  0  0  0  0
   -2.9198   -1.0885   -1.9432 O   0  0  0  0  0  0  0  0  0  0  0  0
   -2.1408   -0.8016   -0.9188 C   0  0  0  0  0  0  0  0  0  0  0  0
   -0.8468   -0.3455   -1.0893 C   0  0  0  0  0  0  0  0  0  0  0  0
   -0.0058   -0.0365   -0.0559 C   0  0  0  0  0  0  0  0  0  0  0  0
    1.2831    0.4177   -0.2281 O   0  0  0  0  0  0  0  0  0  0  0  0
    2.1469    0.7352    0.8368 C   0  0  0  0  0  0  0  0  0  0  0  0
    3.4731    1.1993    0.3578 C   0  0  0  0  0  0  0  0  0  0  0  0
    4.5254    0.3494    0.1282 C   0  0  0  0  0  0  0  0  0  0  0  0
    5.7164    0.8553   -0.3130 C   0  0  0  0  0  0  0  0  0  0  0  0
    5.9168    2.1927   -0.5420 C   0  0  0  0  0  0  0  0  0  0  0  0
    7.6042    2.8280   -1.1569 Br  0  0  0  0  0  0  0  0  0  0  0  0
    4.8629    3.0633   -0.3145 C   0  0  0  0  0  0  0  0  0  0  0  0
    3.6617    2.5470    0.1312 C   0  0  0  0  0  0  0  0  0  0  0  0
   -0.4600   -0.1827    1.2522 C   0  0  0  0  0  0  0  0  0  0  0  0
   -1.7585   -0.6402    1.4324 C   0  0  0  0  0  0  0  0  0  0  0  0
   -2.5916   -0.9467    0.3769 C   0  0  0  0  0  0  0  0  0  0  0  0
   -5.5031   -1.6928    1.9331 H   0  0  0  0  0  0  0  0  0  0  0  0
   -4.1876   -0.6701    2.5515 H   0  0  0  0  0  0  0  0  0  0  0  0
   -3.8835   -2.4180    2.3977 H   0  0  0  0  0  0  0  0  0  0  0  0
   -0.4643   -0.2214   -2.1014 H   0  0  0  0  0  0  0  0  0  0  0  0
    1.6694    1.5798    1.3966 H   0  0  0  0  0  0  0  0  0  0  0  0
    2.3009   -0.1497    1.5140 H   0  0  0  0  0  0  0  0  0  0  0  0
    4.3841   -0.7045    0.3034 H   0  0  0  0  0  0  0  0  0  0  0  0
    6.5382    0.1687   -0.4894 H   0  0  0  0  0  0  0  0  0  0  0  0
    5.0140    4.1103   -0.4919 H   0  0  0  0  0  0  0  0  0  0  0  0
    2.8598    3.2792    0.2957 H   0  0  0  0  0  0  0  0  0  0  0  0
    0.1926    0.0573    2.0668 H   0  0  0  0  0  0  0  0  0  0  0  0
   -2.1231   -0.7580    2.4455 H   0  0  0  0  0  0  0  0  0  0  0  0
  1  2  1  0
  2  3  2  0
  3  4  1  0
  4  5  3  0
  3  6  1  0
  6  7  2  0
  6  8  1  0
  8  9  1  0
  9 10  2  0
 10 11  1  0
 11 12  1  0
 12 13  1  0
 13 14  1  0
 14 15  2  0
 15 16  1  0
 16 17  2  0
 17 18  1  0
 17 19  1  0
 19 20  2  0
 11 21  2  0
 21 22  1  0
 22 23  2  0
 23  2  1  0
 23  9  1  0
 20 14  1  0
  1 24  1  0
  1 25  1  0
  1 26  1  0
 10 27  1  0
 13 28  1  0
 13 29  1  0
 15 30  1  0
 16 31  1  0
 19 32  1  0
 20 33  1  0
 21 34  1  0
 22 35  1  0
M  END
$$$$
