@<TRIPOS>MOLECULE
*****
 61 68 0 0 0
SMALL
GASTEIGER

@<TRIPOS>ATOM
      1 C           4.4209   -2.5391   -1.2206 C.3     1  UNL1       -0.0155
      2 N           4.0270   -1.1818   -0.8815 N.3     1  UNL1       -0.3136
      3 C           3.0437   -1.1768    0.1878 C.3     1  UNL1        0.0423
      4 C           1.8216   -1.9307   -0.2917 C.3     1  UNL1        0.0107
      5 C           0.8111   -1.8952    0.8302 C.3     1  UNL1        0.1402
      6 O           1.0088   -0.9791    1.7856 O.3     1  UNL1       -0.3282
      7 C           1.4423    0.2987    1.4120 C.3     1  UNL1        0.1741
      8 C           2.0263    0.8482    2.7235 C.3     1  UNL1       -0.0136
      9 C           2.5689    0.2613    0.4083 C.3     1  UNL1        0.1214
     10 O           2.2149    0.7500   -0.8460 O.3     1  UNL1       -0.3735
     11 C           3.0217    1.7859   -1.2718 C.3     1  UNL1        0.0371
     12 N           0.3181    1.1064    0.9689 N.ar    1  UNL1       -0.3070
     13 C           0.1804    2.4482    1.0297 C.ar    1  UNL1        0.0527
     14 C           1.0262    3.4337    1.4569 C.ar    1  UNL1       -0.0375
     15 C           0.6450    4.7611    1.4088 C.ar    1  UNL1       -0.0598
     16 C          -0.6088    5.1263    0.9236 C.ar    1  UNL1       -0.0611
     17 C          -1.4805    4.1566    0.4860 C.ar    1  UNL1       -0.0520
     18 C          -1.0611    2.8418    0.5509 C.ar    1  UNL1        0.0081
     19 C          -1.6974    1.6893    0.1828 C.ar    1  UNL1        0.0151
     20 C          -2.9438    1.4145   -0.3608 C.ar    1  UNL1       -0.0078
     21 C          -3.3678    0.1132   -0.6583 C.ar    1  UNL1        0.0518
     22 C          -2.4841   -0.9180   -0.3885 C.ar    1  UNL1        0.0221
     23 C          -2.5259   -2.2903   -0.5530 C.ar    1  UNL1        0.0085
     24 C          -3.4475   -3.1687   -1.0260 C.ar    1  UNL1       -0.0520
     25 C          -3.1863   -4.5415   -1.0666 C.ar    1  UNL1       -0.0611
     26 C          -1.9937   -5.0493   -0.6316 C.ar    1  UNL1       -0.0598
     27 C          -1.0619   -4.1621   -0.1535 C.ar    1  UNL1       -0.0375
     28 C          -1.3053   -2.7976   -0.1065 C.ar    1  UNL1        0.0524
     29 N          -0.5468   -1.7669    0.3162 N.ar    1  UNL1       -0.3115
     30 C          -1.2355   -0.6300    0.1577 C.ar    1  UNL1        0.0774
     31 C          -0.8650    0.6693    0.4357 C.ar    1  UNL1        0.0772
     32 C          -4.7058    0.1282   -1.2110 C.2     1  UNL1        0.2453
     33 O          -5.4535   -0.7869   -1.6063 O.2     1  UNL1       -0.2702
     34 N          -5.0911    1.5176   -1.2405 N.am    1  UNL1       -0.3072
     35 C          -4.0286    2.3260   -0.7268 C.3     1  UNL1        0.0385
     36 H           3.8480   -2.9090   -2.1094 H       1  UNL1        0.0388
     37 H           5.5018   -2.4934   -1.4887 H       1  UNL1        0.0388
     38 H           4.2334   -3.2416   -0.4008 H       1  UNL1        0.0388
     39 H           3.6065   -0.7623   -1.7539 H       1  UNL1        0.1220
     40 H           3.4311   -1.6161    1.1149 H       1  UNL1        0.0489
     41 H           1.3906   -1.3109   -1.1247 H       1  UNL1        0.0325
     42 H           2.0897   -2.9462   -0.6086 H       1  UNL1        0.0325
     43 H           0.8886   -2.9138    1.3166 H       1  UNL1        0.0839
     44 H           3.0478    1.2572    2.5907 H       1  UNL1        0.0277
     45 H           2.2188   -0.0060    3.4606 H       1  UNL1        0.0277
     46 H           1.3207    1.4866    3.2673 H       1  UNL1        0.0277
     47 H           3.4418    0.8644    0.7353 H       1  UNL1        0.0660
     48 H           4.0932    1.5397   -1.3634 H       1  UNL1        0.0524
     49 H           2.6974    2.0356   -2.3252 H       1  UNL1        0.0524
     50 H           2.8746    2.6703   -0.6246 H       1  UNL1        0.0524
     51 H           2.0050    3.1594    1.8183 H       1  UNL1        0.0638
     52 H           1.3267    5.5124    1.7504 H       1  UNL1        0.0618
     53 H          -0.8498    6.1785    0.9109 H       1  UNL1        0.0618
     54 H          -2.4429    4.4624    0.1153 H       1  UNL1        0.0624
     55 H          -4.3888   -2.8131   -1.3737 H       1  UNL1        0.0624
     56 H          -3.9335   -5.2014   -1.4444 H       1  UNL1        0.0618
     57 H          -1.7914   -6.1287   -0.6648 H       1  UNL1        0.0618
     58 H          -0.1140   -4.5523    0.1937 H       1  UNL1        0.0638
     59 H          -6.0063    1.8861   -1.5837 H       1  UNL1        0.1493
     60 H          -4.3555    2.9838    0.1039 H       1  UNL1        0.0512
     61 H          -3.6204    2.9961   -1.5354 H       1  UNL1        0.0512
@<TRIPOS>BOND
     1     1     2    1
     2     2     3    1
     3     3     4    1
     4     4     5    1
     5     5     6    1
     6     6     7    1
     7     7     8    1
     8     7     9    1
     9     9    10    1
    10    10    11    1
    11     7    12    1
    12    12    13   ar
    13    13    14   ar
    14    14    15   ar
    15    15    16   ar
    16    16    17   ar
    17    17    18   ar
    18    18    19   ar
    19    19    20   ar
    20    20    21   ar
    21    21    22   ar
    22    22    23   ar
    23    23    24   ar
    24    24    25   ar
    25    25    26   ar
    26    26    27   ar
    27    27    28   ar
    28    28    29   ar
    29    29    30   ar
    30    30    31   ar
    31    21    32    1
    32    32    33    2
    33    32    34   am
    34    34    35    1
    35     9     3    1
    36    31    12   ar
    37    29     5    1
    38    18    13   ar
    39    31    19   ar
    40    35    20    1
    41    30    22   ar
    42    28    23   ar
    43     1    36    1
    44     1    37    1
    45     1    38    1
    46     2    39    1
    47     3    40    1
    48     4    41    1
    49     4    42    1
    50     5    43    1
    51     8    44    1
    52     8    45    1
    53     8    46    1
    54     9    47    1
    55    11    48    1
    56    11    49    1
    57    11    50    1
    58    14    51    1
    59    15    52    1
    60    16    53    1
    61    17    54    1
    62    24    55    1
    63    25    56    1
    64    26    57    1
    65    27    58    1
    66    34    59    1
    67    35    60    1
    68    35    61    1
