
     RDKit          3D

 61 68  0  0  0  0  0  0  0  0999 V2000
    4.4209   -2.5391   -1.2206 C   0  0  0  0  0  0  0  0  0  0  0  0
    4.0270   -1.1818   -0.8815 N   0  0  0  0  0  0  0  0  0  0  0  0
    3.0437   -1.1768    0.1878 C   0  0  2  0  0  0  0  0  0  0  0  0
    1.8216   -1.9307   -0.2917 C   0  0  0  0  0  0  0  0  0  0  0  0
    0.8111   -1.8952    0.8302 C   0  0  1  0  0  0  0  0  0  0  0  0
    1.0088   -0.9791    1.7856 O   0  0  0  0  0  0  0  0  0  0  0  0
    1.4423    0.2987    1.4120 C   0  0  1  0  0  0  0  0  0  0  0  0
    2.0263    0.8482    2.7235 C   0  0  0  0  0  0  0  0  0  0  0  0
    2.5689    0.2613    0.4083 C   0  0  2  0  0  0  0  0  0  0  0  0
    2.2149    0.7500   -0.8460 O   0  0  0  0  0  0  0  0  0  0  0  0
    3.0217    1.7859   -1.2718 C   0  0  0  0  0  0  0  0  0  0  0  0
    0.3181    1.1064    0.9689 N   0  0  0  0  0  0  0  0  0  0  0  0
    0.1804    2.4482    1.0297 C   0  0  0  0  0  0  0  0  0  0  0  0
    1.0262    3.4337    1.4569 C   0  0  0  0  0  0  0  0  0  0  0  0
    0.6450    4.7611    1.4088 C   0  0  0  0  0  0  0  0  0  0  0  0
   -0.6088    5.1263    0.9236 C   0  0  0  0  0  0  0  0  0  0  0  0
   -1.4805    4.1566    0.4860 C   0  0  0  0  0  0  0  0  0  0  0  0
   -1.0611    2.8418    0.5509 C   0  0  0  0  0  0  0  0  0  0  0  0
   -1.6974    1.6893    0.1828 C   0  0  0  0  0  0  0  0  0  0  0  0
   -2.9438    1.4145   -0.3608 C   0  0  0  0  0  0  0  0  0  0  0  0
   -3.3678    0.1132   -0.6583 C   0  0  0  0  0  0  0  0  0  0  0  0
   -2.4841   -0.9180   -0.3885 C   0  0  0  0  0  0  0  0  0  0  0  0
   -2.5259   -2.2903   -0.5530 C   0  0  0  0  0  0  0  0  0  0  0  0
   -3.4475   -3.1687   -1.0260 C   0  0  0  0  0  0  0  0  0  0  0  0
   -3.1863   -4.5415   -1.0666 C   0  0  0  0  0  0  0  0  0  0  0  0
   -1.9937   -5.0493   -0.6316 C   0  0  0  0  0  0  0  0  0  0  0  0
   -1.0619   -4.1621   -0.1535 C   0  0  0  0  0  0  0  0  0  0  0  0
   -1.3053   -2.7976   -0.1065 C   0  0  0  0  0  0  0  0  0  0  0  0
   -0.5468   -1.7669    0.3162 N   0  0  0  0  0  0  0  0  0  0  0  0
   -1.2355   -0.6300    0.1577 C   0  0  0  0  0  0  0  0  0  0  0  0
   -0.8650    0.6693    0.4357 C   0  0  0  0  0  0  0  0  0  0  0  0
   -4.7058    0.1282   -1.2110 C   0  0  0  0  0  0  0  0  0  0  0  0
   -5.4535   -0.7869   -1.6063 O   0  0  0  0  0  0  0  0  0  0  0  0
   -5.0911    1.5176   -1.2405 N   0  0  0  0  0  0  0  0  0  0  0  0
   -4.0286    2.3260   -0.7268 C   0  0  0  0  0  0  0  0  0  0  0  0
    3.8480   -2.9090   -2.1094 H   0  0  0  0  0  0  0  0  0  0  0  0
    5.5018   -2.4934   -1.4887 H   0  0  0  0  0  0  0  0  0  0  0  0
    4.2334   -3.2416   -0.4008 H   0  0  0  0  0  0  0  0  0  0  0  0
    3.6065   -0.7623   -1.7539 H   0  0  0  0  0  0  0  0  0  0  0  0
    3.4311   -1.6161    1.1149 H   0  0  0  0  0  0  0  0  0  0  0  0
    1.3906   -1.3109   -1.1247 H   0  0  0  0  0  0  0  0  0  0  0  0
    2.0897   -2.9462   -0.6086 H   0  0  0  0  0  0  0  0  0  0  0  0
    0.8886   -2.9138    1.3166 H   0  0  0  0  0  0  0  0  0  0  0  0
    3.0478    1.2572    2.5907 H   0  0  0  0  0  0  0  0  0  0  0  0
    2.2188   -0.0060    3.4606 H   0  0  0  0  0  0  0  0  0  0  0  0
    1.3207    1.4866    3.2673 H   0  0  0  0  0  0  0  0  0  0  0  0
    3.4418    0.8644    0.7353 H   0  0  0  0  0  0  0  0  0  0  0  0
    4.0932    1.5397   -1.3634 H   0  0  0  0  0  0  0  0  0  0  0  0
    2.6974    2.0356   -2.3252 H   0  0  0  0  0  0  0  0  0  0  0  0
    2.8746    2.6703   -0.6246 H   0  0  0  0  0  0  0  0  0  0  0  0
    2.0050    3.1594    1.8183 H   0  0  0  0  0  0  0  0  0  0  0  0
    1.3267    5.5124    1.7504 H   0  0  0  0  0  0  0  0  0  0  0  0
   -0.8498    6.1785    0.9109 H   0  0  0  0  0  0  0  0  0  0  0  0
   -2.4429    4.4624    0.1153 H   0  0  0  0  0  0  0  0  0  0  0  0
   -4.3888   -2.8131   -1.3737 H   0  0  0  0  0  0  0  0  0  0  0  0
   -3.9335   -5.2014   -1.4444 H   0  0  0  0  0  0  0  0  0  0  0  0
   -1.7914   -6.1287   -0.6648 H   0  0  0  0  0  0  0  0  0  0  0  0
   -0.1140   -4.5523    0.1937 H   0  0  0  0  0  0  0  0  0  0  0  0
   -6.0063    1.8861   -1.5837 H   0  0  0  0  0  0  0  0  0  0  0  0
   -4.3555    2.9838    0.1039 H   0  0  0  0  0  0  0  0  0  0  0  0
   -3.6204    2.9961   -1.5354 H   0  0  0  0  0  0  0  0  0  0  0  0
  1  2  1  0
  2  3  1  0
  3  4  1  0
  4  5  1  0
  5  6  1  0
  6  7  1  0
  7  8  1  1
  7  9  1  0
  9 10  1  0
 10 11  1  0
  7 12  1  0
 12 13  1  0
 13 14  2  0
 14 15  1  0
 15 16  2  0
 16 17  1  0
 17 18  2  0
 18 19  1  0
 19 20  2  0
 20 21  1  0
 21 22  2  0
 22 23  1  0
 23 24  2  0
 24 25  1  0
 25 26  2  0
 26 27  1  0
 27 28  2  0
 28 29  1  0
 29 30  1  0
 30 31  2  0
 21 32  1  0
 32 33  2  0
 32 34  1  0
 34 35  1  0
  9  3  1  0
 31 12  1  0
 29  5  1  0
 18 13  1  0
 31 19  1  0
 35 20  1  0
 30 22  1  0
 28 23  1  0
  1 36  1  0
  1 37  1  0
  1 38  1  0
  2 39  1  0
  3 40  1  1
  4 41  1  0
  4 42  1  0
  5 43  1  1
  8 44  1  0
  8 45  1  0
  8 46  1  0
  9 47  1  1
 11 48  1  0
 11 49  1  0
 11 50  1  0
 14 51  1  0
 15 52  1  0
 16 53  1  0
 17 54  1  0
 24 55  1  0
 25 56  1  0
 26 57  1  0
 27 58  1  0
 34 59  1  0
 35 60  1  0
 35 61  1  0
M  END
$$$$
