@<TRIPOS>MOLECULE
*****
 44 45 0 0 0
SMALL
GASTEIGER

@<TRIPOS>ATOM
      1 C          -3.7616    3.4995   -0.4317 C.3     1  UNL1       -0.0653
      2 C          -3.4446    2.8121    0.8740 C.3     1  UNL1       -0.0559
      3 C          -3.2289    1.3140    0.6729 C.3     1  UNL1       -0.0515
      4 C          -2.0825    1.0636   -0.2739 C.3     1  UNL1       -0.0299
      5 C          -1.8806   -0.4408   -0.4976 C.3     1  UNL1        0.0902
      6 C          -1.5793   -1.0851    0.7867 C.3     1  UNL1        0.0485
      7 C          -1.3851   -2.5482    0.7798 C.2     1  UNL1        0.2373
      8 O          -1.6438   -3.2083   -0.2471 O.2     1  UNL1       -0.2737
      9 N          -0.8975   -3.2263    1.9518 N.am    1  UNL1       -0.1974
     10 O          -0.7398   -4.5507    1.8917 O.3     1  UNL1       -0.2952
     11 S          -0.6501   -0.7072   -1.7214 S.O2    1  UNL1        0.0002
     12 O          -0.7428   -2.0909   -2.2468 O.2     1  UNL1       -0.1691
     13 O          -0.9687    0.1834   -2.9353 O.2     1  UNL1       -0.1691
     14 C           0.9459   -0.3391   -1.2575 C.ar    1  UNL1        0.0891
     15 C           1.4150    0.9506   -1.4502 C.ar    1  UNL1       -0.0363
     16 C           2.6910    1.3170   -1.0995 C.ar    1  UNL1       -0.0522
     17 C           3.5696    0.3997   -0.5322 C.ar    1  UNL1       -0.0178
     18 C           4.8377    0.8174   -0.1986 C.ar    1  UNL1       -0.0540
     19 C           5.6990   -0.0891    0.3595 C.ar    1  UNL1       -0.0612
     20 C           5.2776   -1.3884    0.5718 C.ar    1  UNL1       -0.0612
     21 C           4.0081   -1.7873    0.2324 C.ar    1  UNL1       -0.0540
     22 C           3.1330   -0.8859   -0.3291 C.ar    1  UNL1       -0.0161
     23 C           1.8480   -1.2162   -0.6931 C.ar    1  UNL1       -0.0292
     24 H          -4.3177    2.7694   -1.0527 H       1  UNL1        0.0230
     25 H          -4.3982    4.3914   -0.2120 H       1  UNL1        0.0230
     26 H          -2.8713    3.8688   -0.9492 H       1  UNL1        0.0230
     27 H          -2.5855    3.2385    1.4009 H       1  UNL1        0.0263
     28 H          -4.3278    2.9304    1.5403 H       1  UNL1        0.0263
     29 H          -3.0374    0.9375    1.7018 H       1  UNL1        0.0266
     30 H          -4.1837    0.8623    0.3408 H       1  UNL1        0.0266
     31 H          -1.1611    1.4171    0.2380 H       1  UNL1        0.0284
     32 H          -2.1672    1.6117   -1.2074 H       1  UNL1        0.0284
     33 H          -2.8422   -0.7800   -0.9060 H       1  UNL1        0.0545
     34 H          -2.4265   -0.9118    1.5130 H       1  UNL1        0.0378
     35 H          -0.6801   -0.6358    1.2791 H       1  UNL1        0.0378
     36 H          -0.6997   -2.6232    2.7759 H       1  UNL1        0.1822
     37 H          -1.5136   -4.9156    1.3708 H       1  UNL1        0.2414
     38 H           0.7866    1.7300   -1.8903 H       1  UNL1        0.0637
     39 H           3.0352    2.3358   -1.2611 H       1  UNL1        0.0624
     40 H           5.1194    1.8589   -0.3887 H       1  UNL1        0.0624
     41 H           6.6929    0.2397    0.6206 H       1  UNL1        0.0618
     42 H           5.9840   -2.0779    1.0145 H       1  UNL1        0.0618
     43 H           3.6779   -2.8163    0.4018 H       1  UNL1        0.0624
     44 H           1.4963   -2.2249   -0.5370 H       1  UNL1        0.0643
@<TRIPOS>BOND
     1     1     2    1
     2     2     3    1
     3     3     4    1
     4     4     5    1
     5     5     6    1
     6     6     7    1
     7     7     8    2
     8     7     9   am
     9     9    10    1
    10     5    11    1
    11    11    12    2
    12    11    13    2
    13    11    14    1
    14    14    15   ar
    15    15    16   ar
    16    16    17   ar
    17    17    18   ar
    18    18    19   ar
    19    19    20   ar
    20    20    21   ar
    21    21    22   ar
    22    22    23   ar
    23    23    14   ar
    24    22    17   ar
    25     1    24    1
    26     1    25    1
    27     1    26    1
    28     2    27    1
    29     2    28    1
    30     3    29    1
    31     3    30    1
    32     4    31    1
    33     4    32    1
    34     5    33    1
    35     6    34    1
    36     6    35    1
    37     9    36    1
    38    10    37    1
    39    15    38    1
    40    16    39    1
    41    18    40    1
    42    19    41    1
    43    20    42    1
    44    21    43    1
    45    23    44    1
