@<TRIPOS>MOLECULE
*****
 68 71 0 0 0
SMALL
GASTEIGER

@<TRIPOS>ATOM
      1 C          -4.6862   -4.5091   -3.8045 C.3     1  UNL1       -0.0126
      2 N          -3.2514   -4.3454   -3.9346 N.3     1  UNL1       -0.3024
      3 C          -3.0018   -2.9553   -4.2629 C.3     1  UNL1        0.0145
      4 C          -2.9179   -2.1294   -2.9594 C.3     1  UNL1        0.0275
      5 N          -1.6683   -2.5176   -2.3616 N.am    1  UNL1       -0.2975
      6 C          -0.7565   -1.6273   -1.7569 C.2     1  UNL1        0.2382
      7 O           0.3358   -2.1106   -1.2883 O.2     1  UNL1       -0.2735
      8 C          -0.9758   -0.1825   -1.6260 C.3     1  UNL1        0.1233
      9 C          -2.1253   -0.0169   -0.5552 C.3     1  UNL1        0.0750
     10 O          -2.4336    1.0628   -0.2068 O.3     1  UNL1       -0.3729
     11 C          -2.6336    2.2708    0.2463 C.3     1  UNL1        0.0728
     12 C          -2.5227    2.3637    1.7415 C.ar    1  UNL1       -0.0219
     13 C          -1.2560    2.5865    2.2599 C.ar    1  UNL1       -0.0564
     14 C          -1.0797    2.6810    3.6315 C.ar    1  UNL1       -0.0614
     15 C          -2.1407    2.5570    4.4970 C.ar    1  UNL1       -0.0617
     16 C          -3.3881    2.3372    3.9644 C.ar    1  UNL1       -0.0614
     17 C          -3.5617    2.2437    2.6051 C.ar    1  UNL1       -0.0564
     18 N           0.1851    0.4711   -1.0085 N.am    1  UNL1       -0.2979
     19 C           0.5643    1.7823   -1.3858 C.2     1  UNL1        0.2499
     20 O          -0.2262    2.2862   -2.2818 O.2     1  UNL1       -0.2700
     21 C           1.6771    2.5648   -0.9043 C.ar    1  UNL1        0.0985
     22 C           1.8112    3.8557   -1.4238 C.ar    1  UNL1       -0.0430
     23 C           2.8503    4.6358   -0.9929 C.ar    1  UNL1       -0.0426
     24 C           3.7467    4.1431   -0.0575 C.ar    1  UNL1        0.0314
     25 N           3.6368    2.9180    0.4511 N.ar    1  UNL1       -0.2203
     26 C           2.5864    2.1319    0.0141 C.ar    1  UNL1        0.2327
     27 O           2.4621    0.8514    0.5385 O.3     1  UNL1       -0.4358
     28 C           3.4132    0.4027    1.4431 C.ar    1  UNL1        0.1486
     29 C           3.1119    0.0324    2.7407 C.ar    1  UNL1       -0.0173
     30 C           4.0982   -0.4100    3.6047 C.ar    1  UNL1       -0.0466
     31 C           5.4044   -0.5013    3.2195 C.ar    1  UNL1        0.0564
     32 C           6.4505   -0.9817    4.1547 C.3     1  UNL1        0.4175
     33 F           6.6425   -2.3443    4.0202 F       1  UNL1       -0.1659
     34 F           6.0827   -0.7527    5.4661 F       1  UNL1       -0.1659
     35 F           7.6691   -0.3566    3.9510 F       1  UNL1       -0.1659
     36 C           5.7332   -0.1361    1.9250 C.ar    1  UNL1       -0.0282
     37 C           4.7583    0.3017    1.0689 C.ar    1  UNL1        0.0837
     38 CL          5.2263    0.7435   -0.5538 Cl      1  UNL1       -0.0797
     39 C          -1.3769   -3.9558   -2.3978 C.3     1  UNL1        0.0275
     40 C          -2.6363   -4.7346   -2.6930 C.3     1  UNL1        0.0145
     41 H          -4.9849   -4.0527   -2.8232 H       1  UNL1        0.0391
     42 H          -5.1497   -3.9259   -4.6315 H       1  UNL1        0.0391
     43 H          -4.9489   -5.5861   -3.8462 H       1  UNL1        0.0391
     44 H          -2.0030   -2.8718   -4.7313 H       1  UNL1        0.0442
     45 H          -3.7816   -2.4912   -4.8660 H       1  UNL1        0.0442
     46 H          -2.9978   -1.0974   -3.2820 H       1  UNL1        0.0477
     47 H          -3.7887   -2.4328   -2.3085 H       1  UNL1        0.0477
     48 H          -1.3485    0.3129   -2.5095 H       1  UNL1        0.0618
     49 H          -1.7352   -0.7208    0.3048 H       1  UNL1        0.0583
     50 H          -2.9577   -0.7090   -0.9438 H       1  UNL1        0.0583
     51 H          -3.7030    2.5865    0.0278 H       1  UNL1        0.0610
     52 H          -2.0384    3.0987   -0.2199 H       1  UNL1        0.0610
     53 H          -0.4170    2.6847    1.5770 H       1  UNL1        0.0621
     54 H          -0.0740    2.8545    4.0187 H       1  UNL1        0.0618
     55 H          -1.9737    2.6362    5.5627 H       1  UNL1        0.0618
     56 H          -4.2178    2.2358    4.6351 H       1  UNL1        0.0618
     57 H          -4.5456    2.0754    2.2066 H       1  UNL1        0.0621
     58 H           0.7341   -0.0227   -0.2898 H       1  UNL1        0.1499
     59 H           1.0843    4.2087   -2.1584 H       1  UNL1        0.0627
     60 H           2.9829    5.6543   -1.3819 H       1  UNL1        0.0633
     61 H           4.5586    4.7869    0.2624 H       1  UNL1        0.0831
     62 H           2.1156    0.0810    3.1065 H       1  UNL1        0.0655
     63 H           3.8845   -0.7089    4.6427 H       1  UNL1        0.0624
     64 H           6.7794   -0.2198    1.6440 H       1  UNL1        0.0639
     65 H          -1.0764   -4.2832   -1.3555 H       1  UNL1        0.0477
     66 H          -0.5569   -4.2155   -3.0649 H       1  UNL1        0.0477
     67 H          -3.3392   -4.7373   -1.8398 H       1  UNL1        0.0442
     68 H          -2.3085   -5.7966   -2.8238 H       1  UNL1        0.0442
@<TRIPOS>BOND
     1     1     2    1
     2     2     3    1
     3     3     4    1
     4     4     5    1
     5     5     6   am
     6     6     7    2
     7     6     8    1
     8     8     9    1
     9     9    10    1
    10    10    11    1
    11    11    12    1
    12    12    13   ar
    13    13    14   ar
    14    14    15   ar
    15    15    16   ar
    16    16    17   ar
    17     8    18    1
    18    18    19   am
    19    19    20    2
    20    19    21    1
    21    21    22   ar
    22    22    23   ar
    23    23    24   ar
    24    24    25   ar
    25    25    26   ar
    26    26    27    1
    27    27    28    1
    28    28    29   ar
    29    29    30   ar
    30    30    31   ar
    31    31    32    1
    32    32    33    1
    33    32    34    1
    34    32    35    1
    35    31    36   ar
    36    36    37   ar
    37    37    38    1
    38     5    39    1
    39    39    40    1
    40    40     2    1
    41    17    12   ar
    42    26    21   ar
    43    37    28   ar
    44     1    41    1
    45     1    42    1
    46     1    43    1
    47     3    44    1
    48     3    45    1
    49     4    46    1
    50     4    47    1
    51     8    48    1
    52     9    49    1
    53     9    50    1
    54    11    51    1
    55    11    52    1
    56    13    53    1
    57    14    54    1
    58    15    55    1
    59    16    56    1
    60    17    57    1
    61    18    58    1
    62    22    59    1
    63    23    60    1
    64    24    61    1
    65    29    62    1
    66    30    63    1
    67    36    64    1
    68    39    65    1
    69    39    66    1
    70    40    67    1
    71    40    68    1
