@<TRIPOS>MOLECULE
*****
 48 50 0 0 0
SMALL
GASTEIGER

@<TRIPOS>ATOM
      1 C           9.2017   -1.9676   -0.7261 C.3     1  UNL1        0.0835
      2 O           9.3458   -0.5808   -0.4868 O.3     1  UNL1       -0.4516
      3 C           8.1745    0.1669   -0.2639 C.ar    1  UNL1        0.4170
      4 N           6.9056   -0.2796   -0.2490 N.ar    1  UNL1       -0.0868
      5 N           6.0615    0.7152   -0.0061 N.ar    1  UNL1       -0.1592
      6 C           4.6407    0.6539    0.0896 C.ar    1  UNL1        0.0726
      7 C           3.9572    1.5211    0.9008 C.ar    1  UNL1       -0.0343
      8 C           2.5723    1.4602    0.9932 C.ar    1  UNL1       -0.0385
      9 C           1.8236    0.5247    0.2730 C.ar    1  UNL1        0.0338
     10 N           0.4193    0.5365    0.4294 N.am    1  UNL1       -0.2815
     11 C          -0.4915   -0.3269   -0.2122 C.2     1  UNL1        0.2483
     12 O          -0.0479   -1.2162   -1.0171 O.2     1  UNL1       -0.2699
     13 C          -1.9547   -0.2531    0.0032 C.ar    1  UNL1        0.0370
     14 C          -2.7803   -1.1570   -0.6817 C.ar    1  UNL1       -0.0494
     15 C          -4.1456   -1.1058   -0.4957 C.ar    1  UNL1       -0.0574
     16 C          -4.7237   -0.1820    0.3526 C.ar    1  UNL1       -0.0419
     17 C          -6.1901   -0.1384    0.5426 C.3     1  UNL1       -0.0127
     18 C          -6.8617   -1.1865   -0.2813 C.3     1  UNL1       -0.0560
     19 C          -6.4684   -0.3420    2.0120 C.3     1  UNL1       -0.0560
     20 C          -6.7182    1.2242    0.1518 C.3     1  UNL1       -0.0560
     21 C          -3.9183    0.6918    1.0139 C.ar    1  UNL1       -0.0574
     22 C          -2.5363    0.6549    0.8383 C.ar    1  UNL1       -0.0494
     23 C           2.5384   -0.3159   -0.5188 C.ar    1  UNL1       -0.0385
     24 C           3.9371   -0.2651   -0.6211 C.ar    1  UNL1       -0.0343
     25 C           6.8386    1.8066    0.1323 C.ar    1  UNL1        0.4451
     26 O           6.3848    2.9590    0.3743 O.2     1  UNL1       -0.2206
     27 O           8.0951    1.4584   -0.0249 O.2     1  UNL1       -0.3584
     28 H           9.2828   -2.5594    0.1886 H       1  UNL1        0.0661
     29 H           8.1916   -2.1982   -1.1636 H       1  UNL1        0.0661
     30 H           9.9502   -2.3313   -1.4688 H       1  UNL1        0.0661
     31 H           4.4507    2.2833    1.4997 H       1  UNL1        0.0639
     32 H           2.0411    2.1422    1.6305 H       1  UNL1        0.0637
     33 H          -0.0224    1.2614    1.0939 H       1  UNL1        0.1551
     34 H          -2.3217   -1.8788   -1.3451 H       1  UNL1        0.0625
     35 H          -4.8179   -1.7926   -1.0115 H       1  UNL1        0.0621
     36 H          -6.5278   -2.1973    0.0209 H       1  UNL1        0.0238
     37 H          -6.6540   -0.9806   -1.3621 H       1  UNL1        0.0238
     38 H          -7.9561   -1.1240   -0.0705 H       1  UNL1        0.0238
     39 H          -7.3886   -0.9164    2.1460 H       1  UNL1        0.0238
     40 H          -6.5016    0.6525    2.5298 H       1  UNL1        0.0238
     41 H          -5.6461   -0.9039    2.5104 H       1  UNL1        0.0238
     42 H          -5.9929    2.0245    0.3783 H       1  UNL1        0.0238
     43 H          -7.6541    1.4282    0.6732 H       1  UNL1        0.0238
     44 H          -6.8422    1.2368   -0.9692 H       1  UNL1        0.0238
     45 H          -4.2876    1.4532    1.7019 H       1  UNL1        0.0621
     46 H          -1.9342    1.3659    1.3820 H       1  UNL1        0.0625
     47 H           2.0895   -1.0775   -1.1218 H       1  UNL1        0.0637
     48 H           4.4819   -0.9442   -1.2574 H       1  UNL1        0.0639
@<TRIPOS>BOND
     1     1     2    1
     2     2     3    1
     3     3     4   ar
     4     4     5   ar
     5     5     6    1
     6     6     7   ar
     7     7     8   ar
     8     8     9   ar
     9     9    10    1
    10    10    11   am
    11    11    12    2
    12    11    13    1
    13    13    14   ar
    14    14    15   ar
    15    15    16   ar
    16    16    17    1
    17    17    18    1
    18    17    19    1
    19    17    20    1
    20    16    21   ar
    21    21    22   ar
    22     9    23   ar
    23    23    24   ar
    24     5    25   ar
    25    25    26    2
    26    25    27   ar
    27    27     3   ar
    28    24     6   ar
    29    22    13   ar
    30     1    28    1
    31     1    29    1
    32     1    30    1
    33     7    31    1
    34     8    32    1
    35    10    33    1
    36    14    34    1
    37    15    35    1
    38    18    36    1
    39    18    37    1
    40    18    38    1
    41    19    39    1
    42    19    40    1
    43    19    41    1
    44    20    42    1
    45    20    43    1
    46    20    44    1
    47    21    45    1
    48    22    46    1
    49    23    47    1
    50    24    48    1
