
     RDKit          3D

 48 50  0  0  0  0  0  0  0  0999 V2000
    9.2017   -1.9676   -0.7261 C   0  0  0  0  0  0  0  0  0  0  0  0
    9.3458   -0.5808   -0.4868 O   0  0  0  0  0  0  0  0  0  0  0  0
    8.1745    0.1669   -0.2639 C   0  0  0  0  0  0  0  0  0  0  0  0
    6.9056   -0.2796   -0.2490 N   0  0  0  0  0  0  0  0  0  0  0  0
    6.0615    0.7152   -0.0061 N   0  0  0  0  0  0  0  0  0  0  0  0
    4.6407    0.6539    0.0896 C   0  0  0  0  0  0  0  0  0  0  0  0
    3.9572    1.5211    0.9008 C   0  0  0  0  0  0  0  0  0  0  0  0
    2.5723    1.4602    0.9932 C   0  0  0  0  0  0  0  0  0  0  0  0
    1.8236    0.5247    0.2730 C   0  0  0  0  0  0  0  0  0  0  0  0
    0.4193    0.5365    0.4294 N   0  0  0  0  0  0  0  0  0  0  0  0
   -0.4915   -0.3269   -0.2122 C   0  0  0  0  0  0  0  0  0  0  0  0
   -0.0479   -1.2162   -1.0171 O   0  0  0  0  0  0  0  0  0  0  0  0
   -1.9547   -0.2531    0.0032 C   0  0  0  0  0  0  0  0  0  0  0  0
   -2.7803   -1.1570   -0.6817 C   0  0  0  0  0  0  0  0  0  0  0  0
   -4.1456   -1.1058   -0.4957 C   0  0  0  0  0  0  0  0  0  0  0  0
   -4.7237   -0.1820    0.3526 C   0  0  0  0  0  0  0  0  0  0  0  0
   -6.1901   -0.1384    0.5426 C   0  0  0  0  0  0  0  0  0  0  0  0
   -6.8617   -1.1865   -0.2813 C   0  0  0  0  0  0  0  0  0  0  0  0
   -6.4684   -0.3420    2.0120 C   0  0  0  0  0  0  0  0  0  0  0  0
   -6.7182    1.2242    0.1518 C   0  0  0  0  0  0  0  0  0  0  0  0
   -3.9183    0.6918    1.0139 C   0  0  0  0  0  0  0  0  0  0  0  0
   -2.5363    0.6549    0.8383 C   0  0  0  0  0  0  0  0  0  0  0  0
    2.5384   -0.3159   -0.5188 C   0  0  0  0  0  0  0  0  0  0  0  0
    3.9371   -0.2651   -0.6211 C   0  0  0  0  0  0  0  0  0  0  0  0
    6.8386    1.8066    0.1323 C   0  0  0  0  0  0  0  0  0  0  0  0
    6.3848    2.9590    0.3743 O   0  0  0  0  0  0  0  0  0  0  0  0
    8.0951    1.4584   -0.0249 O   0  0  0  0  0  0  0  0  0  0  0  0
    9.2828   -2.5594    0.1886 H   0  0  0  0  0  0  0  0  0  0  0  0
    8.1916   -2.1982   -1.1636 H   0  0  0  0  0  0  0  0  0  0  0  0
    9.9502   -2.3313   -1.4688 H   0  0  0  0  0  0  0  0  0  0  0  0
    4.4507    2.2833    1.4997 H   0  0  0  0  0  0  0  0  0  0  0  0
    2.0411    2.1422    1.6305 H   0  0  0  0  0  0  0  0  0  0  0  0
   -0.0224    1.2614    1.0939 H   0  0  0  0  0  0  0  0  0  0  0  0
   -2.3217   -1.8788   -1.3451 H   0  0  0  0  0  0  0  0  0  0  0  0
   -4.8179   -1.7926   -1.0115 H   0  0  0  0  0  0  0  0  0  0  0  0
   -6.5278   -2.1973    0.0209 H   0  0  0  0  0  0  0  0  0  0  0  0
   -6.6540   -0.9806   -1.3621 H   0  0  0  0  0  0  0  0  0  0  0  0
   -7.9561   -1.1240   -0.0705 H   0  0  0  0  0  0  0  0  0  0  0  0
   -7.3886   -0.9164    2.1460 H   0  0  0  0  0  0  0  0  0  0  0  0
   -6.5016    0.6525    2.5298 H   0  0  0  0  0  0  0  0  0  0  0  0
   -5.6461   -0.9039    2.5104 H   0  0  0  0  0  0  0  0  0  0  0  0
   -5.9929    2.0245    0.3783 H   0  0  0  0  0  0  0  0  0  0  0  0
   -7.6541    1.4282    0.6732 H   0  0  0  0  0  0  0  0  0  0  0  0
   -6.8422    1.2368   -0.9692 H   0  0  0  0  0  0  0  0  0  0  0  0
   -4.2876    1.4532    1.7019 H   0  0  0  0  0  0  0  0  0  0  0  0
   -1.9342    1.3659    1.3820 H   0  0  0  0  0  0  0  0  0  0  0  0
    2.0895   -1.0775   -1.1218 H   0  0  0  0  0  0  0  0  0  0  0  0
    4.4819   -0.9442   -1.2574 H   0  0  0  0  0  0  0  0  0  0  0  0
  1  2  1  0
  2  3  1  0
  3  4  2  0
  4  5  1  0
  5  6  1  0
  6  7  2  0
  7  8  1  0
  8  9  2  0
  9 10  1  0
 10 11  1  0
 11 12  2  0
 11 13  1  0
 13 14  2  0
 14 15  1  0
 15 16  2  0
 16 17  1  0
 17 18  1  0
 17 19  1  0
 17 20  1  0
 16 21  1  0
 21 22  2  0
  9 23  1  0
 23 24  2  0
  5 25  1  0
 25 26  2  0
 25 27  1  0
 27  3  1  0
 24  6  1  0
 22 13  1  0
  1 28  1  0
  1 29  1  0
  1 30  1  0
  7 31  1  0
  8 32  1  0
 10 33  1  0
 14 34  1  0
 15 35  1  0
 18 36  1  0
 18 37  1  0
 18 38  1  0
 19 39  1  0
 19 40  1  0
 19 41  1  0
 20 42  1  0
 20 43  1  0
 20 44  1  0
 21 45  1  0
 22 46  1  0
 23 47  1  0
 24 48  1  0
M  END
$$$$
