@<TRIPOS>MOLECULE
*****
 39 40 0 0 0
SMALL
GASTEIGER

@<TRIPOS>ATOM
      1 C          -2.0145    0.2007    3.7353 C.3     1  UNL1        0.0790
      2 O          -2.6053    0.3072    2.4604 O.3     1  UNL1       -0.4913
      3 C          -1.9719   -0.1313    1.3063 C.ar    1  UNL1        0.1654
      4 C          -0.7087   -0.7101    1.3002 C.ar    1  UNL1       -0.0126
      5 C          -0.1027   -1.1368    0.1407 C.ar    1  UNL1       -0.0358
      6 C           1.2277   -1.7261    0.1956 C.3     1  UNL1        0.0025
      7 C           2.3452   -0.8581   -0.2194 C.ar    1  UNL1        0.0146
      8 C           2.9591   -0.9749   -1.4472 C.ar    1  UNL1        0.0379
      9 N           3.9615   -0.1455   -1.7410 N.ar    1  UNL1       -0.2227
     10 C           4.4285    0.8105   -0.9226 C.ar    1  UNL1        0.2142
     11 N           5.5142    1.6701   -1.3065 N.pl3   1  UNL1       -0.3274
     12 N           3.8277    0.9198    0.2706 N.ar    1  UNL1       -0.1999
     13 C           2.7953    0.1076    0.6439 C.ar    1  UNL1        0.1247
     14 N           2.2395    0.3203    1.9427 N.pl3   1  UNL1       -0.3428
     15 C          -0.8011   -0.9720   -1.0567 C.ar    1  UNL1       -0.0126
     16 C          -2.0525   -0.4035   -1.0887 C.ar    1  UNL1        0.1654
     17 O          -2.6972   -0.2645   -2.2981 O.3     1  UNL1       -0.4913
     18 C          -2.0817   -0.6991   -3.4866 C.3     1  UNL1        0.0790
     19 C          -2.6338    0.0169    0.1081 C.ar    1  UNL1        0.2035
     20 O          -3.8853    0.5860    0.0788 O.3     1  UNL1       -0.4885
     21 C          -4.1568    1.9530   -0.0708 C.3     1  UNL1        0.0791
     22 H          -1.5628   -0.8163    3.9097 H       1  UNL1        0.0660
     23 H          -2.8292    0.2694    4.5069 H       1  UNL1        0.0660
     24 H          -1.3027    0.9978    3.9669 H       1  UNL1        0.0660
     25 H          -0.2399   -0.8083    2.2713 H       1  UNL1        0.0658
     26 H           1.2420   -2.6217   -0.4907 H       1  UNL1        0.0363
     27 H           1.4069   -2.1197    1.2183 H       1  UNL1        0.0363
     28 H           2.5847   -1.7420   -2.1061 H       1  UNL1        0.0834
     29 H           6.3884    1.3099   -1.7391 H       1  UNL1        0.1452
     30 H           5.4421    2.7002   -1.1534 H       1  UNL1        0.1452
     31 H           1.5209    1.0204    2.1334 H       1  UNL1        0.1437
     32 H           2.5957   -0.2745    2.7157 H       1  UNL1        0.1437
     33 H          -0.3484   -1.2977   -1.9717 H       1  UNL1        0.0658
     34 H          -2.7509   -0.4301   -4.3493 H       1  UNL1        0.0660
     35 H          -1.0971   -0.2065   -3.5655 H       1  UNL1        0.0660
     36 H          -1.8804   -1.8043   -3.4770 H       1  UNL1        0.0660
     37 H          -4.9336    2.3240    0.6476 H       1  UNL1        0.0660
     38 H          -3.2264    2.5329    0.0276 H       1  UNL1        0.0660
     39 H          -4.5965    2.0964   -1.0894 H       1  UNL1        0.0660
@<TRIPOS>BOND
     1     1     2    1
     2     2     3    1
     3     3     4   ar
     4     4     5   ar
     5     5     6    1
     6     6     7    1
     7     7     8   ar
     8     8     9   ar
     9     9    10   ar
    10    10    11    1
    11    10    12   ar
    12    12    13   ar
    13    13    14    1
    14     5    15   ar
    15    15    16   ar
    16    16    17    1
    17    17    18    1
    18    16    19   ar
    19    19    20    1
    20    20    21    1
    21    19     3   ar
    22    13     7   ar
    23     1    22    1
    24     1    23    1
    25     1    24    1
    26     4    25    1
    27     6    26    1
    28     6    27    1
    29     8    28    1
    30    11    29    1
    31    11    30    1
    32    14    31    1
    33    14    32    1
    34    15    33    1
    35    18    34    1
    36    18    35    1
    37    18    36    1
    38    21    37    1
    39    21    38    1
    40    21    39    1
