@<TRIPOS>MOLECULE
*****
 41 44 0 0 0
SMALL
GASTEIGER

@<TRIPOS>ATOM
      1 N           3.2196    1.0146    3.8217 N.1     1  UNL1       -0.1893
      2 C           3.3490    1.0539    2.6560 C.1     1  UNL1        0.1192
      3 C           3.4839    1.1045    1.2237 C.ar    1  UNL1        0.1438
      4 C           4.5776    1.5631    0.5181 C.ar    1  UNL1        0.0643
      5 N           4.3115    1.4422   -0.7977 N.ar    1  UNL1       -0.2348
      6 C           3.0791    0.9194   -0.9536 C.ar    1  UNL1        0.1385
      7 C           2.3686    0.6105   -2.1024 C.ar    1  UNL1       -0.0181
      8 C           1.1062    0.0752   -1.9890 C.ar    1  UNL1       -0.0477
      9 C           0.6108   -0.1268   -0.7057 C.ar    1  UNL1        0.0173
     10 C          -0.7156   -0.7012   -0.5383 C.ar    1  UNL1        0.0794
     11 C          -1.7880   -0.0722    0.0107 C.ar    1  UNL1        0.0986
     12 C          -1.9205    1.2711    0.5512 C.ar    1  UNL1        0.0027
     13 C          -1.7259    2.3410   -0.2689 C.ar    1  UNL1       -0.0498
     14 C          -1.8631    3.6021    0.2857 C.ar    1  UNL1       -0.0258
     15 C          -2.1831    3.8064    1.6128 C.ar    1  UNL1        0.1234
     16 F          -2.3129    5.0446    2.1445 F       1  UNL1       -0.2055
     17 C          -2.3743    2.6984    2.4180 C.ar    1  UNL1       -0.0258
     18 C          -2.2400    1.4288    1.8757 C.ar    1  UNL1       -0.0498
     19 N          -2.8059   -0.9751   -0.0295 N.ar    1  UNL1       -0.2140
     20 C          -2.3936   -2.1301   -0.5829 C.ar    1  UNL1        0.1942
     21 N          -3.1771   -3.2875   -0.7885 N.pl3   1  UNL1       -0.3288
     22 N          -1.0870   -1.9394   -0.8937 N.ar    1  UNL1       -0.3060
     23 C          -0.2791   -2.9604   -1.5136 C.3     1  UNL1        0.0869
     24 C           0.4226   -3.8342   -0.5079 C.3     1  UNL1        0.2569
     25 F           1.1637   -4.7700   -1.1958 F       1  UNL1       -0.2073
     26 F           1.2761   -3.0084    0.2165 F       1  UNL1       -0.2073
     27 C           1.3649    0.2011    0.4092 C.ar    1  UNL1        0.0216
     28 N           2.5915    0.7210    0.2812 N.ar    1  UNL1       -0.2906
     29 H           5.5146    1.9604    0.9359 H       1  UNL1        0.0859
     30 H           2.7654    0.7717   -3.0917 H       1  UNL1        0.0654
     31 H           0.4796   -0.1944   -2.8242 H       1  UNL1        0.0626
     32 H          -1.4720    2.2800   -1.3284 H       1  UNL1        0.0625
     33 H          -1.7178    4.4940   -0.3241 H       1  UNL1        0.0646
     34 H          -2.6240    2.8191    3.4556 H       1  UNL1        0.0646
     35 H          -2.3945    0.5652    2.5204 H       1  UNL1        0.0625
     36 H          -3.7732   -3.6332   -0.0221 H       1  UNL1        0.1451
     37 H          -3.1536   -3.7800   -1.6907 H       1  UNL1        0.1451
     38 H          -0.8886   -3.5753   -2.2380 H       1  UNL1        0.0549
     39 H           0.5020   -2.4867   -2.1476 H       1  UNL1        0.0549
     40 H          -0.2675   -4.3511    0.1767 H       1  UNL1        0.1037
     41 H           0.9708    0.0377    1.4206 H       1  UNL1        0.0820
@<TRIPOS>BOND
     1     1     2    3
     2     2     3    1
     3     3     4   ar
     4     4     5   ar
     5     5     6   ar
     6     6     7   ar
     7     7     8   ar
     8     8     9   ar
     9     9    10    1
    10    10    11   ar
    11    11    12    1
    12    12    13   ar
    13    13    14   ar
    14    14    15   ar
    15    15    16    1
    16    15    17   ar
    17    17    18   ar
    18    11    19   ar
    19    19    20   ar
    20    20    21    1
    21    20    22   ar
    22    22    23    1
    23    23    24    1
    24    24    25    1
    25    24    26    1
    26     9    27   ar
    27    27    28   ar
    28    28     3   ar
    29    28     6   ar
    30    22    10   ar
    31    18    12   ar
    32     4    29    1
    33     7    30    1
    34     8    31    1
    35    13    32    1
    36    14    33    1
    37    17    34    1
    38    18    35    1
    39    21    36    1
    40    21    37    1
    41    23    38    1
    42    23    39    1
    43    24    40    1
    44    27    41    1
