
     RDKit          3D

 41 44  0  0  0  0  0  0  0  0999 V2000
    3.2196    1.0146    3.8217 N   0  0  0  0  0  0  0  0  0  0  0  0
    3.3490    1.0539    2.6560 C   0  0  0  0  0  0  0  0  0  0  0  0
    3.4839    1.1045    1.2237 C   0  0  0  0  0  0  0  0  0  0  0  0
    4.5776    1.5631    0.5181 C   0  0  0  0  0  0  0  0  0  0  0  0
    4.3115    1.4422   -0.7977 N   0  0  0  0  0  0  0  0  0  0  0  0
    3.0791    0.9194   -0.9536 C   0  0  0  0  0  0  0  0  0  0  0  0
    2.3686    0.6105   -2.1024 C   0  0  0  0  0  0  0  0  0  0  0  0
    1.1062    0.0752   -1.9890 C   0  0  0  0  0  0  0  0  0  0  0  0
    0.6108   -0.1268   -0.7057 C   0  0  0  0  0  0  0  0  0  0  0  0
   -0.7156   -0.7012   -0.5383 C   0  0  0  0  0  0  0  0  0  0  0  0
   -1.7880   -0.0722    0.0107 C   0  0  0  0  0  0  0  0  0  0  0  0
   -1.9205    1.2711    0.5512 C   0  0  0  0  0  0  0  0  0  0  0  0
   -1.7259    2.3410   -0.2689 C   0  0  0  0  0  0  0  0  0  0  0  0
   -1.8631    3.6021    0.2857 C   0  0  0  0  0  0  0  0  0  0  0  0
   -2.1831    3.8064    1.6128 C   0  0  0  0  0  0  0  0  0  0  0  0
   -2.3129    5.0446    2.1445 F   0  0  0  0  0  0  0  0  0  0  0  0
   -2.3743    2.6984    2.4180 C   0  0  0  0  0  0  0  0  0  0  0  0
   -2.2400    1.4288    1.8757 C   0  0  0  0  0  0  0  0  0  0  0  0
   -2.8059   -0.9751   -0.0295 N   0  0  0  0  0  0  0  0  0  0  0  0
   -2.3936   -2.1301   -0.5829 C   0  0  0  0  0  0  0  0  0  0  0  0
   -3.1771   -3.2875   -0.7885 N   0  0  0  0  0  0  0  0  0  0  0  0
   -1.0870   -1.9394   -0.8937 N   0  0  0  0  0  0  0  0  0  0  0  0
   -0.2791   -2.9604   -1.5136 C   0  0  0  0  0  0  0  0  0  0  0  0
    0.4226   -3.8342   -0.5079 C   0  0  0  0  0  0  0  0  0  0  0  0
    1.1637   -4.7700   -1.1958 F   0  0  0  0  0  0  0  0  0  0  0  0
    1.2761   -3.0084    0.2165 F   0  0  0  0  0  0  0  0  0  0  0  0
    1.3649    0.2011    0.4092 C   0  0  0  0  0  0  0  0  0  0  0  0
    2.5915    0.7210    0.2812 N   0  0  0  0  0  0  0  0  0  0  0  0
    5.5146    1.9604    0.9359 H   0  0  0  0  0  0  0  0  0  0  0  0
    2.7654    0.7717   -3.0917 H   0  0  0  0  0  0  0  0  0  0  0  0
    0.4796   -0.1944   -2.8242 H   0  0  0  0  0  0  0  0  0  0  0  0
   -1.4720    2.2800   -1.3284 H   0  0  0  0  0  0  0  0  0  0  0  0
   -1.7178    4.4940   -0.3241 H   0  0  0  0  0  0  0  0  0  0  0  0
   -2.6240    2.8191    3.4556 H   0  0  0  0  0  0  0  0  0  0  0  0
   -2.3945    0.5652    2.5204 H   0  0  0  0  0  0  0  0  0  0  0  0
   -3.7732   -3.6332   -0.0221 H   0  0  0  0  0  0  0  0  0  0  0  0
   -3.1536   -3.7800   -1.6907 H   0  0  0  0  0  0  0  0  0  0  0  0
   -0.8886   -3.5753   -2.2380 H   0  0  0  0  0  0  0  0  0  0  0  0
    0.5020   -2.4867   -2.1476 H   0  0  0  0  0  0  0  0  0  0  0  0
   -0.2675   -4.3511    0.1767 H   0  0  0  0  0  0  0  0  0  0  0  0
    0.9708    0.0377    1.4206 H   0  0  0  0  0  0  0  0  0  0  0  0
  1  2  3  0
  2  3  1  0
  3  4  2  0
  4  5  1  0
  5  6  2  0
  6  7  1  0
  7  8  2  0
  8  9  1  0
  9 10  1  0
 10 11  2  0
 11 12  1  0
 12 13  2  0
 13 14  1  0
 14 15  2  0
 15 16  1  0
 15 17  1  0
 17 18  2  0
 11 19  1  0
 19 20  2  0
 20 21  1  0
 20 22  1  0
 22 23  1  0
 23 24  1  0
 24 25  1  0
 24 26  1  0
  9 27  2  0
 27 28  1  0
 28  3  1  0
 28  6  1  0
 22 10  1  0
 18 12  1  0
  4 29  1  0
  7 30  1  0
  8 31  1  0
 13 32  1  0
 14 33  1  0
 17 34  1  0
 18 35  1  0
 21 36  1  0
 21 37  1  0
 23 38  1  0
 23 39  1  0
 24 40  1  0
 27 41  1  0
M  END
$$$$
