@<TRIPOS>MOLECULE
*****
 41 42 0 0 0
SMALL
GASTEIGER

@<TRIPOS>ATOM
      1 C          -0.9284    2.8558    2.2715 C.3     1  UNL1        0.0788
      2 O          -1.3561    1.6246    1.7670 O.3     1  UNL1       -0.4948
      3 C          -2.4797    1.3967    1.0106 C.ar    1  UNL1        0.1234
      4 C          -3.2969    2.5017    0.7048 C.ar    1  UNL1       -0.0170
      5 C          -4.4259    2.2883   -0.0406 C.ar    1  UNL1       -0.0230
      6 C          -4.7943    1.0267   -0.5049 C.ar    1  UNL1        0.1239
      7 F          -5.8961    0.7950   -1.2331 F       1  UNL1       -0.2055
      8 C          -3.9710   -0.0229   -0.1872 C.ar    1  UNL1       -0.0198
      9 C          -2.7972    0.1472    0.5768 C.ar    1  UNL1       -0.0029
     10 C          -1.9468   -1.0351    0.8155 C.3     1  UNL1       -0.0218
     11 C          -0.9119   -1.1859   -0.2188 C.3     1  UNL1       -0.0225
     12 C           0.1450   -0.1732   -0.3876 C.3     1  UNL1        0.0594
     13 C           1.0724    0.0500    0.7458 C.3     1  UNL1       -0.0242
     14 C           2.3517   -0.5918    0.2971 C.3     1  UNL1       -0.0242
     15 C           1.9809   -1.2702   -0.9730 C.3     1  UNL1        0.0603
     16 C           3.0396   -1.2857   -2.0277 C.3     1  UNL1       -0.0142
     17 C           4.2809   -1.9889   -1.5787 C.3     1  UNL1       -0.0046
     18 N           4.8118   -1.3145   -0.4187 N.3     1  UNL1       -0.3299
     19 O           0.9060   -0.5598   -1.4950 O.3     1  UNL1       -0.3733
     20 H          -1.7833    3.4593    2.6519 H       1  UNL1        0.0660
     21 H          -0.2242    2.6852    3.1413 H       1  UNL1        0.0660
     22 H          -0.4053    3.4769    1.4946 H       1  UNL1        0.0660
     23 H          -3.0113    3.4752    1.0618 H       1  UNL1        0.0655
     24 H          -5.0784    3.0992   -0.2980 H       1  UNL1        0.0647
     25 H          -4.2029   -1.0367   -0.5215 H       1  UNL1        0.0650
     26 H          -1.4236   -0.9728    1.8055 H       1  UNL1        0.0315
     27 H          -2.5514   -1.9698    0.8654 H       1  UNL1        0.0315
     28 H          -1.4112   -1.2625   -1.2500 H       1  UNL1        0.0293
     29 H          -0.4239   -2.2127   -0.1492 H       1  UNL1        0.0293
     30 H          -0.3172    0.8201   -0.6300 H       1  UNL1        0.0596
     31 H           0.7049   -0.4716    1.6785 H       1  UNL1        0.0291
     32 H           1.2092    1.1261    1.0028 H       1  UNL1        0.0291
     33 H           3.0542    0.2339    0.0445 H       1  UNL1        0.0291
     34 H           2.7779   -1.2760    1.0613 H       1  UNL1        0.0291
     35 H           1.6375   -2.3179   -0.7611 H       1  UNL1        0.0596
     36 H           2.5912   -1.8129   -2.9197 H       1  UNL1        0.0302
     37 H           3.2365   -0.2158   -2.3064 H       1  UNL1        0.0302
     38 H           5.0379   -1.9922   -2.4104 H       1  UNL1        0.0423
     39 H           4.0626   -3.0435   -1.3178 H       1  UNL1        0.0423
     40 H           5.8131   -1.0266   -0.6440 H       1  UNL1        0.1182
     41 H           4.9237   -2.0229    0.3412 H       1  UNL1        0.1182
@<TRIPOS>BOND
     1     1     2    1
     2     2     3    1
     3     3     4   ar
     4     4     5   ar
     5     5     6   ar
     6     6     7    1
     7     6     8   ar
     8     8     9   ar
     9     9    10    1
    10    10    11    1
    11    11    12    1
    12    12    13    1
    13    13    14    1
    14    14    15    1
    15    15    16    1
    16    16    17    1
    17    17    18    1
    18    15    19    1
    19     9     3   ar
    20    19    12    1
    21     1    20    1
    22     1    21    1
    23     1    22    1
    24     4    23    1
    25     5    24    1
    26     8    25    1
    27    10    26    1
    28    10    27    1
    29    11    28    1
    30    11    29    1
    31    12    30    1
    32    13    31    1
    33    13    32    1
    34    14    33    1
    35    14    34    1
    36    15    35    1
    37    16    36    1
    38    16    37    1
    39    17    38    1
    40    17    39    1
    41    18    40    1
    42    18    41    1
