@<TRIPOS>MOLECULE
*****
 76 78 0 0 0
SMALL
GASTEIGER

@<TRIPOS>ATOM
      1 C           7.7910   -3.3610   -1.4347 C.3     1  UNL1        0.0364
      2 O           6.9965   -2.8059   -2.4162 O.3     1  UNL1       -0.3829
      3 C           6.9245   -1.4405   -2.4023 C.3     1  UNL1        0.0504
      4 C           6.3553   -0.9111   -1.0777 C.3     1  UNL1        0.0049
      5 C           6.2550    0.5921   -1.1349 C.3     1  UNL1        0.0918
      6 O           5.7670    1.2685   -0.0789 O.3     1  UNL1       -0.4882
      7 C           4.5645    1.2979    0.5674 C.ar    1  UNL1        0.1626
      8 C           3.4840    0.5586    0.2027 C.ar    1  UNL1       -0.0042
      9 C           2.2238    0.5644    0.8591 C.ar    1  UNL1        0.0406
     10 C           1.1693   -0.2701    0.3488 C.2     1  UNL1        0.2470
     11 O           1.6992   -1.2394   -0.4322 O.2     1  UNL1       -0.2700
     12 N          -0.1926   -0.3072    0.4547 N.am    1  UNL1       -0.2946
     13 C          -0.8170   -1.3283   -0.4330 C.3     1  UNL1        0.0207
     14 C          -1.3226   -0.8287   -1.7179 C.3     1  UNL1        0.0055
     15 C          -0.3709   -0.1177   -2.6202 C.3     1  UNL1        0.0017
     16 N          -1.1688    1.0443   -3.0929 N.3     1  UNL1       -0.3141
     17 C          -2.5137    0.5649   -3.1626 C.3     1  UNL1        0.0133
     18 C          -2.6605   -0.2040   -1.7863 C.3     1  UNL1        0.0463
     19 N          -3.6912   -1.1657   -1.9656 N.3     1  UNL1       -0.1896
     20 S          -5.1632   -1.0057   -1.2331 S.O2    1  UNL1        0.0338
     21 O          -6.0783   -2.1129   -1.7866 O.2     1  UNL1       -0.1579
     22 O          -5.8261    0.2726   -1.7752 O.2     1  UNL1       -0.1579
     23 C          -5.2825   -0.9921    0.5074 C.3     1  UNL1        0.1067
     24 C          -6.7308   -0.8266    0.8757 C.ar    1  UNL1       -0.0250
     25 C          -7.6113   -1.8681    1.0142 C.ar    1  UNL1       -0.0570
     26 C          -8.9495   -1.6317    1.3554 C.ar    1  UNL1       -0.0615
     27 C          -9.3785   -0.3419    1.5519 C.ar    1  UNL1       -0.0617
     28 C          -8.5031    0.7109    1.4165 C.ar    1  UNL1       -0.0615
     29 C          -7.1967    0.4465    1.0807 C.ar    1  UNL1       -0.0570
     30 C          -1.0168    0.4540    1.3012 C.3     1  UNL1        0.0207
     31 C          -0.8778   -0.0235    2.7366 C.3     1  UNL1       -0.0467
     32 C          -1.0009    1.9358    1.2065 C.3     1  UNL1       -0.0467
     33 C           2.1606    1.4030    1.9341 C.ar    1  UNL1       -0.0459
     34 C           3.2549    2.1805    2.3346 C.ar    1  UNL1       -0.0156
     35 C           4.4399    2.1494    1.6858 C.ar    1  UNL1        0.1615
     36 O           5.5472    2.8890    2.0222 O.3     1  UNL1       -0.4915
     37 C           5.5707    3.8054    3.0960 C.3     1  UNL1        0.0790
     38 H           8.8256   -2.9433   -1.5672 H       1  UNL1        0.0523
     39 H           7.4304   -3.2113   -0.4121 H       1  UNL1        0.0523
     40 H           7.9079   -4.4776   -1.6059 H       1  UNL1        0.0523
     41 H           7.9343   -0.9650   -2.5777 H       1  UNL1        0.0561
     42 H           6.2357   -1.1326   -3.2395 H       1  UNL1        0.0561
     43 H           7.0407   -1.2389   -0.2613 H       1  UNL1        0.0320
     44 H           5.3812   -1.3638   -0.8962 H       1  UNL1        0.0320
     45 H           7.2830    0.9685   -1.4178 H       1  UNL1        0.0697
     46 H           5.6309    0.8716   -2.0528 H       1  UNL1        0.0697
     47 H           3.5637   -0.0812   -0.6863 H       1  UNL1        0.0663
     48 H          -1.6473   -1.7373    0.1599 H       1  UNL1        0.0468
     49 H          -0.0723   -2.1105   -0.5867 H       1  UNL1        0.0468
     50 H          -1.4881   -1.8333   -2.3068 H       1  UNL1        0.0344
     51 H          -0.1082   -0.6397   -3.5591 H       1  UNL1        0.0428
     52 H           0.5619    0.2438   -2.1829 H       1  UNL1        0.0428
     53 H          -1.1141    1.8320   -2.4227 H       1  UNL1        0.1220
     54 H          -3.2333    1.4054   -3.1518 H       1  UNL1        0.0440
     55 H          -2.7142   -0.1873   -3.9272 H       1  UNL1        0.0440
     56 H          -2.9506    0.5343   -1.0488 H       1  UNL1        0.0493
     57 H          -3.4466   -2.0421   -2.4208 H       1  UNL1        0.1480
     58 H          -4.6471   -0.2755    1.0174 H       1  UNL1        0.0565
     59 H          -4.9868   -2.0118    0.9024 H       1  UNL1        0.0565
     60 H          -7.2549   -2.8586    0.8560 H       1  UNL1        0.0621
     61 H          -9.6436   -2.4669    1.4609 H       1  UNL1        0.0618
     62 H         -10.4180   -0.1163    1.8210 H       1  UNL1        0.0618
     63 H          -8.8294    1.7478    1.5698 H       1  UNL1        0.0618
     64 H          -6.5099    1.2762    0.9742 H       1  UNL1        0.0621
     65 H          -2.1335    0.1856    1.1071 H       1  UNL1        0.0495
     66 H           0.1182   -0.5007    2.9386 H       1  UNL1        0.0247
     67 H          -1.6071   -0.8267    3.0001 H       1  UNL1        0.0247
     68 H          -0.9972    0.7815    3.4722 H       1  UNL1        0.0247
     69 H          -0.1886    2.3648    0.5876 H       1  UNL1        0.0247
     70 H          -1.9580    2.3746    0.7837 H       1  UNL1        0.0247
     71 H          -0.9132    2.4429    2.1997 H       1  UNL1        0.0247
     72 H           1.2775    1.5004    2.5419 H       1  UNL1        0.0626
     73 H           3.1472    2.8423    3.2065 H       1  UNL1        0.0655
     74 H           4.9310    3.4828    3.9191 H       1  UNL1        0.0660
     75 H           5.1536    4.7952    2.7593 H       1  UNL1        0.0660
     76 H           6.5882    4.0149    3.4556 H       1  UNL1        0.0660
@<TRIPOS>BOND
     1     1     2    1
     2     2     3    1
     3     3     4    1
     4     4     5    1
     5     5     6    1
     6     6     7    1
     7     7     8   ar
     8     8     9   ar
     9     9    10    1
    10    10    11    2
    11    10    12   am
    12    12    13    1
    13    13    14    1
    14    14    15    1
    15    15    16    1
    16    16    17    1
    17    17    18    1
    18    18    19    1
    19    19    20    1
    20    20    21    2
    21    20    22    2
    22    20    23    1
    23    23    24    1
    24    24    25   ar
    25    25    26   ar
    26    26    27   ar
    27    27    28   ar
    28    28    29   ar
    29    12    30    1
    30    30    31    1
    31    30    32    1
    32     9    33   ar
    33    33    34   ar
    34    34    35   ar
    35    35    36    1
    36    36    37    1
    37    35     7   ar
    38    18    14    1
    39    29    24   ar
    40     1    38    1
    41     1    39    1
    42     1    40    1
    43     3    41    1
    44     3    42    1
    45     4    43    1
    46     4    44    1
    47     5    45    1
    48     5    46    1
    49     8    47    1
    50    13    48    1
    51    13    49    1
    52    14    50    1
    53    15    51    1
    54    15    52    1
    55    16    53    1
    56    17    54    1
    57    17    55    1
    58    18    56    1
    59    19    57    1
    60    23    58    1
    61    23    59    1
    62    25    60    1
    63    26    61    1
    64    27    62    1
    65    28    63    1
    66    29    64    1
    67    30    65    1
    68    31    66    1
    69    31    67    1
    70    31    68    1
    71    32    69    1
    72    32    70    1
    73    32    71    1
    74    33    72    1
    75    34    73    1
    76    37    74    1
    77    37    75    1
    78    37    76    1
