
     RDKit          3D

 76 78  0  0  0  0  0  0  0  0999 V2000
    7.7910   -3.3610   -1.4347 C   0  0  0  0  0  0  0  0  0  0  0  0
    6.9965   -2.8059   -2.4162 O   0  0  0  0  0  0  0  0  0  0  0  0
    6.9245   -1.4405   -2.4023 C   0  0  0  0  0  0  0  0  0  0  0  0
    6.3553   -0.9111   -1.0777 C   0  0  0  0  0  0  0  0  0  0  0  0
    6.2550    0.5921   -1.1349 C   0  0  0  0  0  0  0  0  0  0  0  0
    5.7670    1.2685   -0.0789 O   0  0  0  0  0  0  0  0  0  0  0  0
    4.5645    1.2979    0.5674 C   0  0  0  0  0  0  0  0  0  0  0  0
    3.4840    0.5586    0.2027 C   0  0  0  0  0  0  0  0  0  0  0  0
    2.2238    0.5644    0.8591 C   0  0  0  0  0  0  0  0  0  0  0  0
    1.1693   -0.2701    0.3488 C   0  0  0  0  0  0  0  0  0  0  0  0
    1.6992   -1.2394   -0.4322 O   0  0  0  0  0  0  0  0  0  0  0  0
   -0.1926   -0.3072    0.4547 N   0  0  0  0  0  0  0  0  0  0  0  0
   -0.8170   -1.3283   -0.4330 C   0  0  0  0  0  0  0  0  0  0  0  0
   -1.3226   -0.8287   -1.7179 C   0  0  2  0  0  0  0  0  0  0  0  0
   -0.3709   -0.1177   -2.6202 C   0  0  0  0  0  0  0  0  0  0  0  0
   -1.1688    1.0443   -3.0929 N   0  0  0  0  0  0  0  0  0  0  0  0
   -2.5137    0.5649   -3.1626 C   0  0  0  0  0  0  0  0  0  0  0  0
   -2.6605   -0.2040   -1.7863 C   0  0  1  0  0  0  0  0  0  0  0  0
   -3.6912   -1.1657   -1.9656 N   0  0  0  0  0  0  0  0  0  0  0  0
   -5.1632   -1.0057   -1.2331 S   0  0  0  0  0  6  0  0  0  0  0  0
   -6.0783   -2.1129   -1.7866 O   0  0  0  0  0  0  0  0  0  0  0  0
   -5.8261    0.2726   -1.7752 O   0  0  0  0  0  0  0  0  0  0  0  0
   -5.2825   -0.9921    0.5074 C   0  0  0  0  0  0  0  0  0  0  0  0
   -6.7308   -0.8266    0.8757 C   0  0  0  0  0  0  0  0  0  0  0  0
   -7.6113   -1.8681    1.0142 C   0  0  0  0  0  0  0  0  0  0  0  0
   -8.9495   -1.6317    1.3554 C   0  0  0  0  0  0  0  0  0  0  0  0
   -9.3785   -0.3419    1.5519 C   0  0  0  0  0  0  0  0  0  0  0  0
   -8.5031    0.7109    1.4165 C   0  0  0  0  0  0  0  0  0  0  0  0
   -7.1967    0.4465    1.0807 C   0  0  0  0  0  0  0  0  0  0  0  0
   -1.0168    0.4540    1.3012 C   0  0  0  0  0  0  0  0  0  0  0  0
   -0.8778   -0.0235    2.7366 C   0  0  0  0  0  0  0  0  0  0  0  0
   -1.0009    1.9358    1.2065 C   0  0  0  0  0  0  0  0  0  0  0  0
    2.1606    1.4030    1.9341 C   0  0  0  0  0  0  0  0  0  0  0  0
    3.2549    2.1805    2.3346 C   0  0  0  0  0  0  0  0  0  0  0  0
    4.4399    2.1494    1.6858 C   0  0  0  0  0  0  0  0  0  0  0  0
    5.5472    2.8890    2.0222 O   0  0  0  0  0  0  0  0  0  0  0  0
    5.5707    3.8054    3.0960 C   0  0  0  0  0  0  0  0  0  0  0  0
    8.8256   -2.9433   -1.5672 H   0  0  0  0  0  0  0  0  0  0  0  0
    7.4304   -3.2113   -0.4121 H   0  0  0  0  0  0  0  0  0  0  0  0
    7.9079   -4.4776   -1.6059 H   0  0  0  0  0  0  0  0  0  0  0  0
    7.9343   -0.9650   -2.5777 H   0  0  0  0  0  0  0  0  0  0  0  0
    6.2357   -1.1326   -3.2395 H   0  0  0  0  0  0  0  0  0  0  0  0
    7.0407   -1.2389   -0.2613 H   0  0  0  0  0  0  0  0  0  0  0  0
    5.3812   -1.3638   -0.8962 H   0  0  0  0  0  0  0  0  0  0  0  0
    7.2830    0.9685   -1.4178 H   0  0  0  0  0  0  0  0  0  0  0  0
    5.6309    0.8716   -2.0528 H   0  0  0  0  0  0  0  0  0  0  0  0
    3.5637   -0.0812   -0.6863 H   0  0  0  0  0  0  0  0  0  0  0  0
   -1.6473   -1.7373    0.1599 H   0  0  0  0  0  0  0  0  0  0  0  0
   -0.0723   -2.1105   -0.5867 H   0  0  0  0  0  0  0  0  0  0  0  0
   -1.4881   -1.8333   -2.3068 H   0  0  0  0  0  0  0  0  0  0  0  0
   -0.1082   -0.6397   -3.5591 H   0  0  0  0  0  0  0  0  0  0  0  0
    0.5619    0.2438   -2.1829 H   0  0  0  0  0  0  0  0  0  0  0  0
   -1.1141    1.8320   -2.4227 H   0  0  0  0  0  0  0  0  0  0  0  0
   -3.2333    1.4054   -3.1518 H   0  0  0  0  0  0  0  0  0  0  0  0
   -2.7142   -0.1873   -3.9272 H   0  0  0  0  0  0  0  0  0  0  0  0
   -2.9506    0.5343   -1.0488 H   0  0  0  0  0  0  0  0  0  0  0  0
   -3.4466   -2.0421   -2.4208 H   0  0  0  0  0  0  0  0  0  0  0  0
   -4.6471   -0.2755    1.0174 H   0  0  0  0  0  0  0  0  0  0  0  0
   -4.9868   -2.0118    0.9024 H   0  0  0  0  0  0  0  0  0  0  0  0
   -7.2549   -2.8586    0.8560 H   0  0  0  0  0  0  0  0  0  0  0  0
   -9.6436   -2.4669    1.4609 H   0  0  0  0  0  0  0  0  0  0  0  0
  -10.4180   -0.1163    1.8210 H   0  0  0  0  0  0  0  0  0  0  0  0
   -8.8294    1.7478    1.5698 H   0  0  0  0  0  0  0  0  0  0  0  0
   -6.5099    1.2762    0.9742 H   0  0  0  0  0  0  0  0  0  0  0  0
   -2.1335    0.1856    1.1071 H   0  0  0  0  0  0  0  0  0  0  0  0
    0.1182   -0.5007    2.9386 H   0  0  0  0  0  0  0  0  0  0  0  0
   -1.6071   -0.8267    3.0001 H   0  0  0  0  0  0  0  0  0  0  0  0
   -0.9972    0.7815    3.4722 H   0  0  0  0  0  0  0  0  0  0  0  0
   -0.1886    2.3648    0.5876 H   0  0  0  0  0  0  0  0  0  0  0  0
   -1.9580    2.3746    0.7837 H   0  0  0  0  0  0  0  0  0  0  0  0
   -0.9132    2.4429    2.1997 H   0  0  0  0  0  0  0  0  0  0  0  0
    1.2775    1.5004    2.5419 H   0  0  0  0  0  0  0  0  0  0  0  0
    3.1472    2.8423    3.2065 H   0  0  0  0  0  0  0  0  0  0  0  0
    4.9310    3.4828    3.9191 H   0  0  0  0  0  0  0  0  0  0  0  0
    5.1536    4.7952    2.7593 H   0  0  0  0  0  0  0  0  0  0  0  0
    6.5882    4.0149    3.4556 H   0  0  0  0  0  0  0  0  0  0  0  0
  1  2  1  0
  2  3  1  0
  3  4  1  0
  4  5  1  0
  5  6  1  0
  6  7  1  0
  7  8  2  0
  8  9  1  0
  9 10  1  0
 10 11  2  0
 10 12  1  0
 12 13  1  0
 13 14  1  0
 14 15  1  0
 15 16  1  0
 16 17  1  0
 17 18  1  0
 18 19  1  0
 19 20  1  0
 20 21  2  0
 20 22  2  0
 20 23  1  0
 23 24  1  0
 24 25  2  0
 25 26  1  0
 26 27  2  0
 27 28  1  0
 28 29  2  0
 12 30  1  0
 30 31  1  0
 30 32  1  0
  9 33  2  0
 33 34  1  0
 34 35  2  0
 35 36  1  0
 36 37  1  0
 35  7  1  0
 18 14  1  0
 29 24  1  0
  1 38  1  0
  1 39  1  0
  1 40  1  0
  3 41  1  0
  3 42  1  0
  4 43  1  0
  4 44  1  0
  5 45  1  0
  5 46  1  0
  8 47  1  0
 13 48  1  0
 13 49  1  0
 14 50  1  6
 15 51  1  0
 15 52  1  0
 16 53  1  0
 17 54  1  0
 17 55  1  0
 18 56  1  1
 19 57  1  0
 23 58  1  0
 23 59  1  0
 25 60  1  0
 26 61  1  0
 27 62  1  0
 28 63  1  0
 29 64  1  0
 30 65  1  0
 31 66  1  0
 31 67  1  0
 31 68  1  0
 32 69  1  0
 32 70  1  0
 32 71  1  0
 33 72  1  0
 34 73  1  0
 37 74  1  0
 37 75  1  0
 37 76  1  0
M  END
$$$$
