@<TRIPOS>MOLECULE
*****
 53 56 0 0 0
SMALL
GASTEIGER

@<TRIPOS>ATOM
      1 C           8.3942   -0.0595   -0.9225 C.3     1  UNL1        0.0596
      2 S           7.4082   -0.7574    0.3864 S.O2    1  UNL1       -0.0059
      3 O           7.9941   -0.3944    1.7228 O.2     1  UNL1       -0.1696
      4 O           7.4361   -2.2509    0.2292 O.2     1  UNL1       -0.1696
      5 C           5.7775   -0.1221    0.3220 C.ar    1  UNL1        0.0883
      6 C           5.4222    1.0232    1.0097 C.ar    1  UNL1       -0.0334
      7 C           4.1222    1.4884    0.9288 C.ar    1  UNL1       -0.0178
      8 C           3.1413    0.8599    0.1849 C.ar    1  UNL1        0.1246
      9 C           3.5066   -0.2815   -0.4970 C.ar    1  UNL1       -0.0038
     10 C           4.7802   -0.7495   -0.4262 C.ar    1  UNL1       -0.0302
     11 C           2.4258   -0.9416   -1.2952 C.3     1  UNL1       -0.0206
     12 C           1.2024   -0.9561   -0.3820 C.3     1  UNL1       -0.0087
     13 C           0.7388    0.4336   -0.0709 C.3     1  UNL1        0.1138
     14 C          -0.1572    0.8928   -1.1829 C.3     1  UNL1        0.0030
     15 C          -1.5670    0.5087   -1.0963 C.3     1  UNL1        0.0183
     16 N          -2.0207   -0.0142    0.1486 N.am    1  UNL1       -0.3009
     17 C          -3.4480   -0.1059    0.3494 C.2     1  UNL1        0.2199
     18 O          -3.9205   -0.5594    1.4262 O.2     1  UNL1       -0.2752
     19 C          -4.4024    0.3264   -0.6954 C.3     1  UNL1        0.0507
     20 C          -5.7823    0.1162   -0.2043 C.ar    1  UNL1       -0.0202
     21 C          -6.5451    1.2046    0.2294 C.ar    1  UNL1       -0.0554
     22 C          -7.8315    1.0245    0.6890 C.ar    1  UNL1       -0.0430
     23 C          -8.3930   -0.2539    0.7280 C.ar    1  UNL1        0.0424
     24 CL        -10.0387   -0.4197    1.3245 Cl      1  UNL1       -0.0835
     25 C          -7.6489   -1.3375    0.3021 C.ar    1  UNL1       -0.0248
     26 C          -6.3587   -1.1456   -0.1575 C.ar    1  UNL1        0.0460
     27 CL         -5.4231   -2.5329   -0.6963 Cl      1  UNL1       -0.0832
     28 C          -1.1754   -0.4571    1.2224 C.3     1  UNL1        0.0183
     29 C          -0.0000    0.4861    1.2734 C.3     1  UNL1        0.0030
     30 O           1.8381    1.3277    0.1049 O.3     1  UNL1       -0.4853
     31 H           9.2915   -0.6955   -1.0454 H       1  UNL1        0.0468
     32 H           7.7748   -0.0355   -1.8375 H       1  UNL1        0.0468
     33 H           8.7339    0.9264   -0.5994 H       1  UNL1        0.0468
     34 H           6.1546    1.5580    1.6109 H       1  UNL1        0.0638
     35 H           3.8128    2.3914    1.4617 H       1  UNL1        0.0655
     36 H           5.0544   -1.6525   -0.9699 H       1  UNL1        0.0640
     37 H           2.6826   -1.9678   -1.5828 H       1  UNL1        0.0316
     38 H           2.2194   -0.2683   -2.1496 H       1  UNL1        0.0316
     39 H           1.5257   -1.4905    0.5525 H       1  UNL1        0.0307
     40 H           0.4168   -1.5151   -0.9171 H       1  UNL1        0.0307
     41 H          -0.0058    1.9981   -1.2954 H       1  UNL1        0.0319
     42 H           0.2796    0.4625   -2.1320 H       1  UNL1        0.0319
     43 H          -1.8504   -0.2345   -1.8931 H       1  UNL1        0.0466
     44 H          -2.1999    1.4125   -1.3411 H       1  UNL1        0.0466
     45 H          -4.2986   -0.2935   -1.6302 H       1  UNL1        0.0407
     46 H          -4.2873    1.4084   -0.9313 H       1  UNL1        0.0407
     47 H          -6.0756    2.1991    0.1871 H       1  UNL1        0.0621
     48 H          -8.4243    1.8658    1.0253 H       1  UNL1        0.0632
     49 H          -8.0928   -2.3421    0.3334 H       1  UNL1        0.0647
     50 H          -0.8409   -1.4917    1.0149 H       1  UNL1        0.0466
     51 H          -1.7121   -0.3580    2.1884 H       1  UNL1        0.0466
     52 H           0.7308    0.2470    2.0498 H       1  UNL1        0.0319
     53 H          -0.3642    1.5229    1.3692 H       1  UNL1        0.0319
@<TRIPOS>BOND
     1     1     2    1
     2     2     3    2
     3     2     4    2
     4     2     5    1
     5     5     6   ar
     6     6     7   ar
     7     7     8   ar
     8     8     9   ar
     9     9    10   ar
    10     9    11    1
    11    11    12    1
    12    12    13    1
    13    13    14    1
    14    14    15    1
    15    15    16    1
    16    16    17   am
    17    17    18    2
    18    17    19    1
    19    19    20    1
    20    20    21   ar
    21    21    22   ar
    22    22    23   ar
    23    23    24    1
    24    23    25   ar
    25    25    26   ar
    26    26    27    1
    27    16    28    1
    28    28    29    1
    29    13    30    1
    30    10     5   ar
    31    29    13    1
    32    30     8    1
    33    26    20   ar
    34     1    31    1
    35     1    32    1
    36     1    33    1
    37     6    34    1
    38     7    35    1
    39    10    36    1
    40    11    37    1
    41    11    38    1
    42    12    39    1
    43    12    40    1
    44    14    41    1
    45    14    42    1
    46    15    43    1
    47    15    44    1
    48    19    45    1
    49    19    46    1
    50    21    47    1
    51    22    48    1
    52    25    49    1
    53    28    50    1
    54    28    51    1
    55    29    52    1
    56    29    53    1
