
     RDKit          3D

 62 65  0  0  0  0  0  0  0  0999 V2000
    5.0647    3.2005    0.7319 C   0  0  0  0  0  0  0  0  0  0  0  0
    4.7451    1.9569    1.3944 N   0  0  0  0  0  0  0  0  0  0  0  0
    4.0308    2.2495    2.6028 C   0  0  0  0  0  0  0  0  0  0  0  0
    3.9837    1.1142    0.4804 C   0  0  0  0  0  0  0  0  0  0  0  0
    3.6734   -0.1551    1.1967 C   0  0  0  0  0  0  0  0  0  0  0  0
    2.8818   -1.1459    0.3843 C   0  0  0  0  0  0  0  0  0  0  0  0
    1.6111   -0.5369    0.0064 N   0  0  0  0  0  0  0  0  0  0  0  0
    0.3551   -0.9824    0.4591 C   0  0  0  0  0  0  0  0  0  0  0  0
    0.3058   -1.9686    1.2409 O   0  0  0  0  0  0  0  0  0  0  0  0
   -0.9360   -0.3649    0.0760 C   0  0  0  0  0  0  0  0  0  0  0  0
   -0.7716    0.7510   -0.8176 N   0  0  0  0  0  0  0  0  0  0  0  0
   -1.8689   -1.3527   -0.5794 C   0  0  0  0  0  0  0  0  0  0  0  0
   -3.2332   -0.7553   -0.8358 C   0  0  0  0  0  0  0  0  0  0  0  0
   -3.6512    0.1268    0.2269 N   0  0  0  0  0  0  0  0  0  0  0  0
   -4.9991    0.0897    0.6333 C   0  0  0  0  0  0  0  0  0  0  0  0
   -5.2605   -0.2790    1.9030 N   0  0  0  0  0  0  0  0  0  0  0  0
   -6.5280   -0.3372    2.3451 C   0  0  0  0  0  0  0  0  0  0  0  0
   -7.5446   -0.0324    1.5387 N   0  0  0  0  0  0  0  0  0  0  0  0
   -7.3077    0.3360    0.2753 C   0  0  0  0  0  0  0  0  0  0  0  0
   -8.1562    0.6894   -0.7197 N   0  0  0  0  0  0  0  0  0  0  0  0
   -7.4315    0.9774   -1.8097 C   0  0  0  0  0  0  0  0  0  0  0  0
   -6.0839    0.8080   -1.5187 C   0  0  0  0  0  0  0  0  0  0  0  0
   -5.9994    0.4086   -0.2224 C   0  0  0  0  0  0  0  0  0  0  0  0
   -2.7424    1.0391    0.8907 C   0  0  0  0  0  0  0  0  0  0  0  0
   -1.5709    0.1568    1.3460 C   0  0  0  0  0  0  0  0  0  0  0  0
    3.6084   -1.6791   -0.7732 C   0  0  0  0  0  0  0  0  0  0  0  0
    4.1996   -2.9228   -0.7027 C   0  0  0  0  0  0  0  0  0  0  0  0
    4.8978   -3.4936   -1.7442 C   0  0  0  0  0  0  0  0  0  0  0  0
    5.0281   -2.8071   -2.9314 C   0  0  0  0  0  0  0  0  0  0  0  0
    5.9074   -3.4814   -4.2988 Cl  0  0  0  0  0  0  0  0  0  0  0  0
    4.4419   -1.5639   -3.0139 C   0  0  0  0  0  0  0  0  0  0  0  0
    3.7446   -0.9990   -1.9675 C   0  0  0  0  0  0  0  0  0  0  0  0
    5.4604    3.0477   -0.2929 H   0  0  0  0  0  0  0  0  0  0  0  0
    4.1561    3.8264    0.7490 H   0  0  0  0  0  0  0  0  0  0  0  0
    5.8212    3.7164    1.3853 H   0  0  0  0  0  0  0  0  0  0  0  0
    4.3579    1.5245    3.3868 H   0  0  0  0  0  0  0  0  0  0  0  0
    2.9397    2.2476    2.5026 H   0  0  0  0  0  0  0  0  0  0  0  0
    4.3558    3.2606    2.9848 H   0  0  0  0  0  0  0  0  0  0  0  0
    4.7091    0.8578   -0.3427 H   0  0  0  0  0  0  0  0  0  0  0  0
    3.1091    1.6402    0.0975 H   0  0  0  0  0  0  0  0  0  0  0  0
    3.0437    0.1034    2.0829 H   0  0  0  0  0  0  0  0  0  0  0  0
    4.6083   -0.6056    1.5696 H   0  0  0  0  0  0  0  0  0  0  0  0
    2.6759   -2.0081    1.0810 H   0  0  0  0  0  0  0  0  0  0  0  0
    1.6406    0.2802   -0.6406 H   0  0  0  0  0  0  0  0  0  0  0  0
   -0.1505    1.4627   -0.3987 H   0  0  0  0  0  0  0  0  0  0  0  0
   -0.4762    0.4677   -1.7771 H   0  0  0  0  0  0  0  0  0  0  0  0
   -2.0061   -2.2264    0.0904 H   0  0  0  0  0  0  0  0  0  0  0  0
   -1.4567   -1.6978   -1.5479 H   0  0  0  0  0  0  0  0  0  0  0  0
   -3.1701   -0.1133   -1.7635 H   0  0  0  0  0  0  0  0  0  0  0  0
   -4.0025   -1.5074   -1.0221 H   0  0  0  0  0  0  0  0  0  0  0  0
   -6.7014   -0.6374    3.3706 H   0  0  0  0  0  0  0  0  0  0  0  0
   -9.1942    0.7412   -0.6850 H   0  0  0  0  0  0  0  0  0  0  0  0
   -7.8084    1.2923   -2.7710 H   0  0  0  0  0  0  0  0  0  0  0  0
   -5.2445    0.9607   -2.1815 H   0  0  0  0  0  0  0  0  0  0  0  0
   -3.1853    1.5486    1.7429 H   0  0  0  0  0  0  0  0  0  0  0  0
   -2.3016    1.7823    0.1857 H   0  0  0  0  0  0  0  0  0  0  0  0
   -2.0139   -0.7183    1.8666 H   0  0  0  0  0  0  0  0  0  0  0  0
   -0.8675    0.7216    1.9736 H   0  0  0  0  0  0  0  0  0  0  0  0
    4.1150   -3.4802    0.2078 H   0  0  0  0  0  0  0  0  0  0  0  0
    5.3488   -4.4839   -1.6386 H   0  0  0  0  0  0  0  0  0  0  0  0
    4.5439   -1.0263   -3.9435 H   0  0  0  0  0  0  0  0  0  0  0  0
    3.2988   -0.0237   -2.0689 H   0  0  0  0  0  0  0  0  0  0  0  0
  1  2  1  0
  2  3  1  0
  2  4  1  0
  4  5  1  0
  5  6  1  0
  6  7  1  0
  7  8  1  0
  8  9  2  0
  8 10  1  0
 10 11  1  0
 10 12  1  0
 12 13  1  0
 13 14  1  0
 14 15  1  0
 15 16  2  0
 16 17  1  0
 17 18  2  0
 18 19  1  0
 19 20  1  0
 20 21  1  0
 21 22  2  0
 22 23  1  0
 14 24  1  0
 24 25  1  0
  6 26  1  0
 26 27  2  0
 27 28  1  0
 28 29  2  0
 29 30  1  0
 29 31  1  0
 31 32  2  0
 25 10  1  0
 32 26  1  0
 23 15  1  0
 23 19  2  0
  1 33  1  0
  1 34  1  0
  1 35  1  0
  3 36  1  0
  3 37  1  0
  3 38  1  0
  4 39  1  0
  4 40  1  0
  5 41  1  0
  5 42  1  0
  6 43  1  0
  7 44  1  0
 11 45  1  0
 11 46  1  0
 12 47  1  0
 12 48  1  0
 13 49  1  0
 13 50  1  0
 17 51  1  0
 20 52  1  0
 21 53  1  0
 22 54  1  0
 24 55  1  0
 24 56  1  0
 25 57  1  0
 25 58  1  0
 27 59  1  0
 28 60  1  0
 31 61  1  0
 32 62  1  0
M  END
$$$$
