@<TRIPOS>MOLECULE
*****
 62 65 0 0 0
SMALL
GASTEIGER

@<TRIPOS>ATOM
      1 C           5.0647    3.2005    0.7319 C.3     1  UNL1       -0.0130
      2 N           4.7451    1.9569    1.3944 N.3     1  UNL1       -0.3083
      3 C           4.0308    2.2495    2.6028 C.3     1  UNL1       -0.0130
      4 C           3.9837    1.1142    0.4804 C.3     1  UNL1        0.0003
      5 C           3.6734   -0.1551    1.1967 C.3     1  UNL1       -0.0175
      6 C           2.8818   -1.1459    0.3843 C.3     1  UNL1        0.0496
      7 N           1.6111   -0.5369    0.0064 N.am    1  UNL1       -0.3069
      8 C           0.3551   -0.9824    0.4591 C.2     1  UNL1        0.2336
      9 O           0.3058   -1.9686    1.2409 O.2     1  UNL1       -0.2738
     10 C          -0.9360   -0.3649    0.0760 C.3     1  UNL1        0.0965
     11 N          -0.7716    0.7510   -0.8176 N.3     1  UNL1       -0.3173
     12 C          -1.8689   -1.3527   -0.5794 C.3     1  UNL1       -0.0104
     13 C          -3.2332   -0.7553   -0.8358 C.3     1  UNL1        0.0156
     14 N          -3.6512    0.1268    0.2269 N.pl3   1  UNL1       -0.3144
     15 C          -4.9991    0.0897    0.6333 C.ar    1  UNL1        0.1337
     16 N          -5.2605   -0.2790    1.9030 N.ar    1  UNL1       -0.2200
     17 C          -6.5280   -0.3372    2.3451 C.ar    1  UNL1        0.1204
     18 N          -7.5446   -0.0324    1.5387 N.ar    1  UNL1       -0.2178
     19 C          -7.3077    0.3360    0.2753 C.ar    1  UNL1        0.1432
     20 N          -8.1562    0.6894   -0.7197 N.ar    1  UNL1       -0.3457
     21 C          -7.4315    0.9774   -1.8097 C.ar    1  UNL1        0.0042
     22 C          -6.0839    0.8080   -1.5187 C.ar    1  UNL1       -0.0318
     23 C          -5.9994    0.4086   -0.2224 C.ar    1  UNL1        0.0585
     24 C          -2.7424    1.0391    0.8907 C.3     1  UNL1        0.0156
     25 C          -1.5709    0.1568    1.3460 C.3     1  UNL1       -0.0104
     26 C           3.6084   -1.6791   -0.7732 C.ar    1  UNL1       -0.0271
     27 C           4.1996   -2.9228   -0.7027 C.ar    1  UNL1       -0.0554
     28 C           4.8978   -3.4936   -1.7442 C.ar    1  UNL1       -0.0431
     29 C           5.0281   -2.8071   -2.9314 C.ar    1  UNL1        0.0410
     30 CL          5.9074   -3.4814   -4.2988 Cl      1  UNL1       -0.0835
     31 C           4.4419   -1.5639   -3.0139 C.ar    1  UNL1       -0.0431
     32 C           3.7446   -0.9990   -1.9675 C.ar    1  UNL1       -0.0554
     33 H           5.4604    3.0477   -0.2929 H       1  UNL1        0.0391
     34 H           4.1561    3.8264    0.7490 H       1  UNL1        0.0391
     35 H           5.8212    3.7164    1.3853 H       1  UNL1        0.0391
     36 H           4.3579    1.5245    3.3868 H       1  UNL1        0.0391
     37 H           2.9397    2.2476    2.5026 H       1  UNL1        0.0391
     38 H           4.3558    3.2606    2.9848 H       1  UNL1        0.0391
     39 H           4.7091    0.8578   -0.3427 H       1  UNL1        0.0427
     40 H           3.1091    1.6402    0.0975 H       1  UNL1        0.0427
     41 H           3.0437    0.1034    2.0829 H       1  UNL1        0.0299
     42 H           4.6083   -0.6056    1.5696 H       1  UNL1        0.0299
     43 H           2.6759   -2.0081    1.0810 H       1  UNL1        0.0549
     44 H           1.6406    0.2802   -0.6406 H       1  UNL1        0.1493
     45 H          -0.1505    1.4627   -0.3987 H       1  UNL1        0.1192
     46 H          -0.4762    0.4677   -1.7771 H       1  UNL1        0.1192
     47 H          -2.0061   -2.2264    0.0904 H       1  UNL1        0.0303
     48 H          -1.4567   -1.6978   -1.5479 H       1  UNL1        0.0303
     49 H          -3.1701   -0.1133   -1.7635 H       1  UNL1        0.0465
     50 H          -4.0025   -1.5074   -1.0221 H       1  UNL1        0.0465
     51 H          -6.7014   -0.6374    3.3706 H       1  UNL1        0.1048
     52 H          -9.1942    0.7412   -0.6850 H       1  UNL1        0.1668
     53 H          -7.8084    1.2923   -2.7710 H       1  UNL1        0.0807
     54 H          -5.2445    0.9607   -2.1815 H       1  UNL1        0.0640
     55 H          -3.1853    1.5486    1.7429 H       1  UNL1        0.0465
     56 H          -2.3016    1.7823    0.1857 H       1  UNL1        0.0465
     57 H          -2.0139   -0.7183    1.8666 H       1  UNL1        0.0303
     58 H          -0.8675    0.7216    1.9736 H       1  UNL1        0.0303
     59 H           4.1150   -3.4802    0.2078 H       1  UNL1        0.0621
     60 H           5.3488   -4.4839   -1.6386 H       1  UNL1        0.0632
     61 H           4.5439   -1.0263   -3.9435 H       1  UNL1        0.0632
     62 H           3.2988   -0.0237   -2.0689 H       1  UNL1        0.0621
@<TRIPOS>BOND
     1     1     2    1
     2     2     3    1
     3     2     4    1
     4     4     5    1
     5     5     6    1
     6     6     7    1
     7     7     8   am
     8     8     9    2
     9     8    10    1
    10    10    11    1
    11    10    12    1
    12    12    13    1
    13    13    14    1
    14    14    15    1
    15    15    16   ar
    16    16    17   ar
    17    17    18   ar
    18    18    19   ar
    19    19    20   ar
    20    20    21   ar
    21    21    22   ar
    22    22    23   ar
    23    14    24    1
    24    24    25    1
    25     6    26    1
    26    26    27   ar
    27    27    28   ar
    28    28    29   ar
    29    29    30    1
    30    29    31   ar
    31    31    32   ar
    32    25    10    1
    33    32    26   ar
    34    23    15   ar
    35    23    19   ar
    36     1    33    1
    37     1    34    1
    38     1    35    1
    39     3    36    1
    40     3    37    1
    41     3    38    1
    42     4    39    1
    43     4    40    1
    44     5    41    1
    45     5    42    1
    46     6    43    1
    47     7    44    1
    48    11    45    1
    49    11    46    1
    50    12    47    1
    51    12    48    1
    52    13    49    1
    53    13    50    1
    54    17    51    1
    55    20    52    1
    56    21    53    1
    57    22    54    1
    58    24    55    1
    59    24    56    1
    60    25    57    1
    61    25    58    1
    62    27    59    1
    63    28    60    1
    64    31    61    1
    65    32    62    1
