@<TRIPOS>MOLECULE
*****
 59 62 0 0 0
SMALL
GASTEIGER

@<TRIPOS>ATOM
      1 C          -3.0408    0.3493    1.7026 C.3     1  UNL1       -0.0362
      2 C          -2.1292   -0.0804    0.6212 C.ar    1  UNL1       -0.0076
      3 C          -0.8010   -0.2966    0.8555 C.ar    1  UNL1       -0.0399
      4 C           0.1022   -0.7030   -0.1401 C.ar    1  UNL1        0.0258
      5 C           1.4029   -1.1203    0.2611 C.1     1  UNL1       -0.0595
      6 C           2.5427   -1.4913    0.6353 C.1     1  UNL1       -0.0412
      7 C           3.8482   -1.9195    1.0594 C.ar    1  UNL1        0.1137
      8 C           4.3957   -1.2450    2.1682 C.ar    1  UNL1       -0.0272
      9 C           5.6860   -1.4637    2.5666 C.ar    1  UNL1       -0.0500
     10 C           6.5026   -2.3725    1.8726 C.ar    1  UNL1        0.0003
     11 C           7.9036   -2.4670    2.3007 C.ar    1  UNL1       -0.0164
     12 C           8.9188   -2.7610    1.3951 C.ar    1  UNL1       -0.0526
     13 C          10.2709   -2.7474    1.7781 C.ar    1  UNL1       -0.0428
     14 C          10.6436   -2.4401    3.0644 C.ar    1  UNL1        0.0410
     15 CL         12.3474   -2.3471    3.5599 Cl      1  UNL1       -0.0835
     16 C           9.6524   -2.1538    3.9538 C.ar    1  UNL1       -0.0428
     17 C           8.2908   -2.1658    3.5868 C.ar    1  UNL1       -0.0526
     18 C           5.9325   -3.0147    0.8026 C.ar    1  UNL1        0.0367
     19 N           4.6380   -2.7780    0.4227 N.ar    1  UNL1       -0.2461
     20 C          -0.4296   -0.8589   -1.3910 C.ar    1  UNL1       -0.0428
     21 C          -1.7861   -0.6422   -1.6657 C.ar    1  UNL1       -0.0185
     22 C          -2.6507   -0.2599   -0.6838 C.ar    1  UNL1        0.1235
     23 O          -3.9894   -0.0594   -0.8479 O.3     1  UNL1       -0.4904
     24 C          -4.8312   -0.1343   -1.9089 C.3     1  UNL1        0.1023
     25 C          -4.7768    0.8332   -3.0238 C.3     1  UNL1        0.0335
     26 N          -5.0971    2.2001   -2.6692 N.3     1  UNL1       -0.2940
     27 C          -4.1653    2.8758   -1.8476 C.3     1  UNL1       -0.0006
     28 C          -4.8503    3.3021   -0.5868 C.3     1  UNL1       -0.0387
     29 C          -6.1981    2.6049   -0.6203 C.3     1  UNL1       -0.0341
     30 C          -6.4186    2.2758   -2.0683 C.3     1  UNL1        0.0337
     31 C          -7.1625    3.4214   -2.7045 C.3     1  UNL1        0.0598
     32 O          -7.2480    3.1513   -4.0840 O.3     1  UNL1       -0.3935
     33 H          -2.4311    0.9027    2.4816 H       1  UNL1        0.0279
     34 H          -3.7865    1.0825    1.3502 H       1  UNL1        0.0279
     35 H          -3.5869   -0.4971    2.1704 H       1  UNL1        0.0279
     36 H          -0.3575   -0.1480    1.8619 H       1  UNL1        0.0633
     37 H           3.7229   -0.5396    2.6869 H       1  UNL1        0.0645
     38 H           6.1015   -0.9431    3.4126 H       1  UNL1        0.0625
     39 H           8.6583   -3.0096    0.3880 H       1  UNL1        0.0624
     40 H          11.0559   -2.9867    1.0403 H       1  UNL1        0.0632
     41 H           9.9130   -1.8857    4.9735 H       1  UNL1        0.0632
     42 H           7.5403   -1.9436    4.3313 H       1  UNL1        0.0624
     43 H           6.5401   -3.7196    0.2616 H       1  UNL1        0.0836
     44 H           0.2685   -1.1703   -2.1797 H       1  UNL1        0.0631
     45 H          -2.1339   -0.7846   -2.6752 H       1  UNL1        0.0654
     46 H          -4.7300   -1.1780   -2.4202 H       1  UNL1        0.0709
     47 H          -5.8965   -0.1870   -1.5211 H       1  UNL1        0.0709
     48 H          -3.8142    0.8390   -3.5718 H       1  UNL1        0.0460
     49 H          -5.5757    0.5528   -3.7776 H       1  UNL1        0.0460
     50 H          -3.8902    3.8269   -2.4205 H       1  UNL1        0.0427
     51 H          -3.1971    2.3717   -1.6902 H       1  UNL1        0.0427
     52 H          -4.2670    3.1377    0.3156 H       1  UNL1        0.0278
     53 H          -5.0384    4.4159   -0.6141 H       1  UNL1        0.0278
     54 H          -6.2349    1.6853   -0.0005 H       1  UNL1        0.0281
     55 H          -6.9793    3.2977   -0.2331 H       1  UNL1        0.0281
     56 H          -6.9828    1.3177   -2.2222 H       1  UNL1        0.0485
     57 H          -6.5889    4.3463   -2.5370 H       1  UNL1        0.0573
     58 H          -8.2116    3.4908   -2.2892 H       1  UNL1        0.0573
     59 H          -7.6019    2.2338   -4.2529 H       1  UNL1        0.2095
@<TRIPOS>BOND
     1     1     2    1
     2     2     3   ar
     3     3     4   ar
     4     4     5    1
     5     5     6    3
     6     6     7    1
     7     7     8   ar
     8     8     9   ar
     9     9    10   ar
    10    10    11    1
    11    11    12   ar
    12    12    13   ar
    13    13    14   ar
    14    14    15    1
    15    14    16   ar
    16    16    17   ar
    17    10    18   ar
    18    18    19   ar
    19     4    20   ar
    20    20    21   ar
    21    21    22   ar
    22    22    23    1
    23    23    24    1
    24    24    25    1
    25    25    26    1
    26    26    27    1
    27    27    28    1
    28    28    29    1
    29    29    30    1
    30    30    31    1
    31    31    32    1
    32    22     2   ar
    33    30    26    1
    34    19     7   ar
    35    17    11   ar
    36     1    33    1
    37     1    34    1
    38     1    35    1
    39     3    36    1
    40     8    37    1
    41     9    38    1
    42    12    39    1
    43    13    40    1
    44    16    41    1
    45    17    42    1
    46    18    43    1
    47    20    44    1
    48    21    45    1
    49    24    46    1
    50    24    47    1
    51    25    48    1
    52    25    49    1
    53    27    50    1
    54    27    51    1
    55    28    52    1
    56    28    53    1
    57    29    54    1
    58    29    55    1
    59    30    56    1
    60    31    57    1
    61    31    58    1
    62    32    59    1
