@<TRIPOS>MOLECULE
*****
 33 34 0 0 0
SMALL
GASTEIGER

@<TRIPOS>ATOM
      1 C          -3.9449   -0.8319   -1.1099 C.3     1  UNL1       -0.0482
      2 C          -3.3603    0.4774   -0.6458 C.3     1  UNL1        0.0784
      3 C          -4.3158    1.1638    0.2131 C.2     1  UNL1        0.3119
      4 O          -4.0119    1.4608    1.3896 O.2     1  UNL1       -0.2503
      5 O          -5.5723    1.5017   -0.2478 O.3     1  UNL1       -0.4802
      6 C          -2.0659    0.1922    0.0314 C.ar    1  UNL1       -0.0333
      7 C          -2.0532   -0.5650    1.1867 C.ar    1  UNL1       -0.0578
      8 C          -0.8915   -0.8642    1.8625 C.ar    1  UNL1       -0.0608
      9 C           0.3011   -0.3704    1.3355 C.ar    1  UNL1       -0.0509
     10 C           0.3373    0.3870    0.1874 C.ar    1  UNL1        0.0225
     11 C           1.5940    0.8610   -0.3376 C.2     1  UNL1        0.1931
     12 O           1.5633    1.9243   -1.0567 O.2     1  UNL1       -0.2867
     13 C           2.8846    0.2326   -0.1182 C.ar    1  UNL1        0.0223
     14 C           3.0803   -1.0951    0.1676 C.ar    1  UNL1       -0.0509
     15 C           4.3547   -1.6202    0.3885 C.ar    1  UNL1       -0.0611
     16 C           5.4476   -0.8100    0.3224 C.ar    1  UNL1       -0.0617
     17 C           5.2868    0.5347    0.0359 C.ar    1  UNL1       -0.0611
     18 C           4.0308    1.0399   -0.1791 C.ar    1  UNL1       -0.0509
     19 C          -0.8729    0.6634   -0.4615 C.ar    1  UNL1       -0.0470
     20 H          -4.8853   -0.7076   -1.6794 H       1  UNL1        0.0241
     21 H          -3.1883   -1.3926   -1.7166 H       1  UNL1        0.0241
     22 H          -4.2007   -1.4066   -0.1867 H       1  UNL1        0.0241
     23 H          -3.1366    1.0801   -1.5503 H       1  UNL1        0.0459
     24 H          -6.0762    2.2464    0.2182 H       1  UNL1        0.2951
     25 H          -2.9873   -0.9326    1.5689 H       1  UNL1        0.0621
     26 H          -0.8602   -1.4551    2.7677 H       1  UNL1        0.0618
     27 H           1.1916   -0.6027    1.8884 H       1  UNL1        0.0625
     28 H           2.2586   -1.7704    0.2137 H       1  UNL1        0.0625
     29 H           4.4839   -2.6822    0.6148 H       1  UNL1        0.0618
     30 H           6.4469   -1.2014    0.4904 H       1  UNL1        0.0618
     31 H           6.1311    1.1956   -0.0210 H       1  UNL1        0.0618
     32 H           3.8877    2.0990   -0.4078 H       1  UNL1        0.0625
     33 H          -0.8569    1.2481   -1.3475 H       1  UNL1        0.0628
@<TRIPOS>BOND
     1     1     2    1
     2     2     3    1
     3     3     4    2
     4     3     5    1
     5     2     6    1
     6     6     7   ar
     7     7     8   ar
     8     8     9   ar
     9     9    10   ar
    10    10    11    1
    11    11    12    2
    12    11    13    1
    13    13    14   ar
    14    14    15   ar
    15    15    16   ar
    16    16    17   ar
    17    17    18   ar
    18    10    19   ar
    19    19     6   ar
    20    18    13   ar
    21     1    20    1
    22     1    21    1
    23     1    22    1
    24     2    23    1
    25     5    24    1
    26     7    25    1
    27     8    26    1
    28     9    27    1
    29    14    28    1
    30    15    29    1
    31    16    30    1
    32    17    31    1
    33    18    32    1
    34    19    33    1
