
     RDKit          3D

 34 35  0  0  0  0  0  0  0  0999 V2000
   -6.0801    1.1506    1.3580 N   0  0  0  0  0  0  0  0  0  0  0  0
   -5.4985    1.1069   -0.2622 S   0  0  0  0  0  0  0  0  0  0  0  0
   -6.4017    0.3313   -1.1750 O   0  0  0  0  0  0  0  0  0  0  0  0
   -5.3939    2.5203   -0.7804 O   0  0  0  0  0  0  0  0  0  0  0  0
   -3.8789    0.4342   -0.2931 C   0  0  0  0  0  0  0  0  0  0  0  0
   -3.7892   -0.9353   -0.4917 C   0  0  0  0  0  0  0  0  0  0  0  0
   -2.5097   -1.4973   -0.5183 C   0  0  0  0  0  0  0  0  0  0  0  0
   -1.3767   -0.7339   -0.3548 C   0  0  0  0  0  0  0  0  0  0  0  0
   -1.4805    0.6264   -0.1581 C   0  0  0  0  0  0  0  0  0  0  0  0
   -2.7460    1.2008   -0.1289 C   0  0  0  0  0  0  0  0  0  0  0  0
   -0.0922   -1.3751   -0.4021 C   0  0  0  0  0  0  0  0  0  0  0  0
    0.0178   -2.5994   -0.6537 O   0  0  0  0  0  0  0  0  0  0  0  0
    1.1394   -0.7027   -0.1744 N   0  0  0  0  0  0  0  0  0  0  0  0
    2.3725   -1.4316   -0.2468 C   0  0  0  0  0  0  0  0  0  0  0  0
    3.5566   -0.6029    0.0366 C   0  0  0  0  0  0  0  0  0  0  0  0
    3.9912    0.2680   -0.9456 C   0  0  0  0  0  0  0  0  0  0  0  0
    3.3726    0.3997   -2.1661 F   0  0  0  0  0  0  0  0  0  0  0  0
    5.0870    1.0881   -0.7893 C   0  0  0  0  0  0  0  0  0  0  0  0
    5.5234    1.9507   -1.7479 F   0  0  0  0  0  0  0  0  0  0  0  0
    5.7704    1.0186    0.4194 C   0  0  0  0  0  0  0  0  0  0  0  0
    6.8491    1.8101    0.6084 F   0  0  0  0  0  0  0  0  0  0  0  0
    5.3865    0.1673    1.4431 C   0  0  0  0  0  0  0  0  0  0  0  0
    4.2896   -0.6185    1.2209 C   0  0  0  0  0  0  0  0  0  0  0  0
   -6.8183    1.8950    1.4335 H   0  0  0  0  0  0  0  0  0  0  0  0
   -6.4352    0.2092    1.6535 H   0  0  0  0  0  0  0  0  0  0  0  0
   -4.6258   -1.6015   -0.6269 H   0  0  0  0  0  0  0  0  0  0  0  0
   -2.4134   -2.5683   -0.6723 H   0  0  0  0  0  0  0  0  0  0  0  0
   -0.6378    1.2790   -0.0239 H   0  0  0  0  0  0  0  0  0  0  0  0
   -2.8930    2.2751    0.0258 H   0  0  0  0  0  0  0  0  0  0  0  0
    1.1485    0.3187    0.0446 H   0  0  0  0  0  0  0  0  0  0  0  0
    2.2983   -2.2882    0.4533 H   0  0  0  0  0  0  0  0  0  0  0  0
    2.5174   -1.8365   -1.2689 H   0  0  0  0  0  0  0  0  0  0  0  0
    5.8755    0.0782    2.3816 H   0  0  0  0  0  0  0  0  0  0  0  0
    3.8751   -1.3371    1.9388 H   0  0  0  0  0  0  0  0  0  0  0  0
  1  2  1  0
  2  3  2  0
  2  4  2  0
  2  5  1  0
  5  6  2  0
  6  7  1  0
  7  8  2  0
  8  9  1  0
  9 10  2  0
  8 11  1  0
 11 12  2  0
 11 13  1  0
 13 14  1  0
 14 15  1  0
 15 16  2  0
 16 17  1  0
 16 18  1  0
 18 19  1  0
 18 20  2  0
 20 21  1  0
 20 22  1  0
 22 23  2  0
 10  5  1  0
 23 15  1  0
  1 24  1  0
  1 25  1  0
  6 26  1  0
  7 27  1  0
  9 28  1  0
 10 29  1  0
 13 30  1  0
 14 31  1  0
 14 32  1  0
 22 33  1  0
 23 34  1  0
M  END
$$$$
