
     RDKit          3D

 44 47  0  0  0  0  0  0  0  0999 V2000
    4.9144    1.5436    1.4581 O   0  0  0  0  0  0  0  0  0  0  0  0
    4.4785    1.0695    0.1148 S   0  0  0  0  0  6  0  0  0  0  0  0
    5.2302    1.8767   -0.9156 O   0  0  0  0  0  0  0  0  0  0  0  0
    4.8936   -0.5870   -0.1404 N   0  0  0  0  0  0  0  0  0  0  0  0
    4.1976   -1.4629    0.7808 C   0  0  0  0  0  0  0  0  0  0  0  0
    4.6348   -2.8804    0.4677 C   0  0  0  0  0  0  0  0  0  0  0  0
    6.0174   -3.0331    0.6239 O   0  0  0  0  0  0  0  0  0  0  0  0
    2.7625    1.3291   -0.1535 C   0  0  0  0  0  0  0  0  0  0  0  0
    2.2591    1.6637   -1.3942 C   0  0  0  0  0  0  0  0  0  0  0  0
    0.9027    1.8664   -1.5962 C   0  0  0  0  0  0  0  0  0  0  0  0
   -0.0017    1.7376   -0.5440 C   0  0  0  0  0  0  0  0  0  0  0  0
   -1.3983    1.9793   -0.8580 C   0  0  0  0  0  0  0  0  0  0  0  0
   -1.8461    3.0810   -1.5383 C   0  0  0  0  0  0  0  0  0  0  0  0
   -3.2033    3.2232   -1.7764 C   0  0  0  0  0  0  0  0  0  0  0  0
   -4.1182    2.3284   -1.3719 N   0  0  0  0  0  0  0  0  0  0  0  0
   -3.6943    1.2401   -0.7024 C   0  0  0  0  0  0  0  0  0  0  0  0
   -4.3480    0.1780   -0.1770 N   0  0  0  0  0  0  0  0  0  0  0  0
   -3.5050   -0.6832    0.4080 C   0  0  0  0  0  0  0  0  0  0  0  0
   -3.8144   -1.9586    1.0938 C   0  0  0  0  0  0  0  0  0  0  0  0
   -5.1109   -1.9646    1.9145 C   0  0  0  0  0  0  0  0  0  0  0  0
   -4.9936   -2.7502    0.6660 C   0  0  0  0  0  0  0  0  0  0  0  0
   -2.2446   -0.1392    0.2462 C   0  0  0  0  0  0  0  0  0  0  0  0
   -2.3321    1.0558   -0.4397 C   0  0  0  0  0  0  0  0  0  0  0  0
    0.4767    1.4084    0.6868 C   0  0  0  0  0  0  0  0  0  0  0  0
    1.8503    1.2067    0.8741 C   0  0  0  0  0  0  0  0  0  0  0  0
    5.9148   -0.6717    0.0931 H   0  0  0  0  0  0  0  0  0  0  0  0
    3.0991   -1.4294    0.5986 H   0  0  0  0  0  0  0  0  0  0  0  0
    4.4626   -1.2686    1.8388 H   0  0  0  0  0  0  0  0  0  0  0  0
    4.1538   -3.5816    1.1871 H   0  0  0  0  0  0  0  0  0  0  0  0
    4.3666   -3.1772   -0.5677 H   0  0  0  0  0  0  0  0  0  0  0  0
    6.2789   -2.3336    1.2971 H   0  0  0  0  0  0  0  0  0  0  0  0
    2.9841    1.7582   -2.1981 H   0  0  0  0  0  0  0  0  0  0  0  0
    0.5492    2.1259   -2.5774 H   0  0  0  0  0  0  0  0  0  0  0  0
   -1.1522    3.8120   -1.8750 H   0  0  0  0  0  0  0  0  0  0  0  0
   -3.5993    4.0911   -2.3172 H   0  0  0  0  0  0  0  0  0  0  0  0
   -5.3857    0.0133   -0.2040 H   0  0  0  0  0  0  0  0  0  0  0  0
   -2.9852   -2.5524    1.5267 H   0  0  0  0  0  0  0  0  0  0  0  0
   -5.7618   -1.0665    1.8484 H   0  0  0  0  0  0  0  0  0  0  0  0
   -5.1187   -2.4533    2.8910 H   0  0  0  0  0  0  0  0  0  0  0  0
   -5.5313   -2.4255   -0.2548 H   0  0  0  0  0  0  0  0  0  0  0  0
   -4.9681   -3.8561    0.7703 H   0  0  0  0  0  0  0  0  0  0  0  0
   -1.3154   -0.5751    0.5961 H   0  0  0  0  0  0  0  0  0  0  0  0
   -0.2145    1.3132    1.5045 H   0  0  0  0  0  0  0  0  0  0  0  0
    2.2158    0.9489    1.8420 H   0  0  0  0  0  0  0  0  0  0  0  0
  1  2  2  0
  2  3  2  0
  2  4  1  0
  4  5  1  0
  5  6  1  0
  6  7  1  0
  2  8  1  0
  8  9  2  0
  9 10  1  0
 10 11  2  0
 11 12  1  0
 12 13  2  0
 13 14  1  0
 14 15  2  0
 15 16  1  0
 16 17  1  0
 17 18  1  0
 18 19  1  0
 19 20  1  0
 20 21  1  0
 18 22  2  0
 22 23  1  0
 11 24  1  0
 24 25  2  0
 25  8  1  0
 23 12  1  0
 23 16  2  0
 21 19  1  0
  4 26  1  0
  5 27  1  0
  5 28  1  0
  6 29  1  0
  6 30  1  0
  7 31  1  0
  9 32  1  0
 10 33  1  0
 13 34  1  0
 14 35  1  0
 17 36  1  0
 19 37  1  0
 20 38  1  0
 20 39  1  0
 21 40  1  0
 21 41  1  0
 22 42  1  0
 24 43  1  0
 25 44  1  0
M  END
$$$$
