@<TRIPOS>MOLECULE
*****
 44 47 0 0 0
SMALL
GASTEIGER

@<TRIPOS>ATOM
      1 O           4.9144    1.5436    1.4581 O.2     1  UNL1       -0.1530
      2 S           4.4785    1.0695    0.1148 S.O2    1  UNL1        0.0585
      3 O           5.2302    1.8767   -0.9156 O.2     1  UNL1       -0.1530
      4 N           4.8936   -0.5870   -0.1404 N.3     1  UNL1       -0.1878
      5 C           4.1976   -1.4629    0.7808 C.3     1  UNL1        0.0406
      6 C           4.6348   -2.8804    0.4677 C.3     1  UNL1        0.0583
      7 O           6.0174   -3.0331    0.6239 O.3     1  UNL1       -0.3937
      8 C           2.7625    1.3291   -0.1535 C.ar    1  UNL1        0.1053
      9 C           2.2591    1.6637   -1.3942 C.ar    1  UNL1       -0.0348
     10 C           0.9027    1.8664   -1.5962 C.ar    1  UNL1       -0.0522
     11 C          -0.0017    1.7376   -0.5440 C.ar    1  UNL1       -0.0170
     12 C          -1.3983    1.9793   -0.8580 C.ar    1  UNL1       -0.0058
     13 C          -1.8461    3.0810   -1.5383 C.ar    1  UNL1       -0.0352
     14 C          -3.2033    3.2232   -1.7764 C.ar    1  UNL1        0.0305
     15 N          -4.1182    2.3284   -1.3719 N.ar    1  UNL1       -0.2375
     16 C          -3.6943    1.2401   -0.7024 C.ar    1  UNL1        0.1389
     17 N          -4.3480    0.1780   -0.1770 N.ar    1  UNL1       -0.3427
     18 C          -3.5050   -0.6832    0.4080 C.ar    1  UNL1        0.0214
     19 C          -3.8144   -1.9586    1.0938 C.3     1  UNL1       -0.0006
     20 C          -5.1109   -1.9646    1.9145 C.3     1  UNL1       -0.0443
     21 C          -4.9936   -2.7502    0.6660 C.3     1  UNL1       -0.0443
     22 C          -2.2446   -0.1392    0.2462 C.ar    1  UNL1       -0.0310
     23 C          -2.3321    1.0558   -0.4397 C.ar    1  UNL1        0.0266
     24 C           0.4767    1.4084    0.6868 C.ar    1  UNL1       -0.0522
     25 C           1.8503    1.2067    0.8741 C.ar    1  UNL1       -0.0348
     26 H           5.9148   -0.6717    0.0931 H       1  UNL1        0.1481
     27 H           3.0991   -1.4294    0.5986 H       1  UNL1        0.0464
     28 H           4.4626   -1.2686    1.8388 H       1  UNL1        0.0464
     29 H           4.1538   -3.5816    1.1871 H       1  UNL1        0.0570
     30 H           4.3666   -3.1772   -0.5677 H       1  UNL1        0.0570
     31 H           6.2789   -2.3336    1.2971 H       1  UNL1        0.2095
     32 H           2.9841    1.7582   -2.1981 H       1  UNL1        0.0637
     33 H           0.5492    2.1259   -2.5774 H       1  UNL1        0.0624
     34 H          -1.1522    3.8120   -1.8750 H       1  UNL1        0.0639
     35 H          -3.5993    4.0911   -2.3172 H       1  UNL1        0.0830
     36 H          -5.3857    0.0133   -0.2040 H       1  UNL1        0.1670
     37 H          -2.9852   -2.5524    1.5267 H       1  UNL1        0.0363
     38 H          -5.7618   -1.0665    1.8484 H       1  UNL1        0.0272
     39 H          -5.1187   -2.4533    2.8910 H       1  UNL1        0.0272
     40 H          -5.5313   -2.4255   -0.2548 H       1  UNL1        0.0272
     41 H          -4.9681   -3.8561    0.7703 H       1  UNL1        0.0272
     42 H          -1.3154   -0.5751    0.5961 H       1  UNL1        0.0642
     43 H          -0.2145    1.3132    1.5045 H       1  UNL1        0.0624
     44 H           2.2158    0.9489    1.8420 H       1  UNL1        0.0637
@<TRIPOS>BOND
     1     1     2    2
     2     2     3    2
     3     2     4    1
     4     4     5    1
     5     5     6    1
     6     6     7    1
     7     2     8    1
     8     8     9   ar
     9     9    10   ar
    10    10    11   ar
    11    11    12    1
    12    12    13   ar
    13    13    14   ar
    14    14    15   ar
    15    15    16   ar
    16    16    17   ar
    17    17    18   ar
    18    18    19    1
    19    19    20    1
    20    20    21    1
    21    18    22   ar
    22    22    23   ar
    23    11    24   ar
    24    24    25   ar
    25    25     8   ar
    26    23    12   ar
    27    23    16   ar
    28    21    19    1
    29     4    26    1
    30     5    27    1
    31     5    28    1
    32     6    29    1
    33     6    30    1
    34     7    31    1
    35     9    32    1
    36    10    33    1
    37    13    34    1
    38    14    35    1
    39    17    36    1
    40    19    37    1
    41    20    38    1
    42    20    39    1
    43    21    40    1
    44    21    41    1
    45    22    42    1
    46    24    43    1
    47    25    44    1
