@<TRIPOS>MOLECULE
*****
 41 42 0 0 0
SMALL
GASTEIGER

@<TRIPOS>ATOM
      1 O          -2.0129    2.8983    2.1145 O.2     1  UNL1       -0.2492
      2 C          -2.5130    2.1047    1.2356 C.2     1  UNL1        0.3223
      3 OXT        -2.8279    2.7372    0.0435 O.3     1  UNL1       -0.4795
      4 CA         -2.7199    0.6853    1.4905 C.3     1  UNL1        0.1101
      5 C          -1.6415   -0.0483    2.2004 C.3     1  UNL1       -0.0018
      6 C          -0.3295   -0.0709    1.5554 C.ar    1  UNL1       -0.0453
      7 C           0.0543   -1.0971    0.7007 C.ar    1  UNL1       -0.0579
      8 C           1.2890   -1.1123    0.1175 C.ar    1  UNL1       -0.0538
      9 C           2.1952   -0.1229    0.3491 C.ar    1  UNL1       -0.0179
     10 C           3.5030   -0.1402   -0.2695 C.ar    1  UNL1       -0.0179
     11 C           4.5984    0.3963    0.3459 C.ar    1  UNL1       -0.0540
     12 C           5.8339    0.3650   -0.2685 C.ar    1  UNL1       -0.0612
     13 C           6.0024   -0.2044   -1.5140 C.ar    1  UNL1       -0.0617
     14 C           4.8918   -0.7420   -2.1250 C.ar    1  UNL1       -0.0612
     15 C           3.6402   -0.7156   -1.5138 C.ar    1  UNL1       -0.0540
     16 C           1.8525    0.8975    1.1811 C.ar    1  UNL1       -0.0538
     17 C           0.6156    0.9254    1.7740 C.ar    1  UNL1       -0.0579
     18 N          -3.3078   -0.0212    0.4569 N.3     1  UNL1       -0.2935
     19 C          -2.9244    0.0018   -0.8669 C.3     1  UNL1        0.0994
     20 P          -4.0094   -1.1884   -1.7815 P.3     1  UNL1        0.3414
     21 O          -3.3777   -1.5723   -3.0894 O.2     1  UNL1       -0.2575
     22 O          -4.2337   -2.5105   -0.7553 O.3     1  UNL1       -0.3232
     23 O          -5.4570   -0.3684   -2.0711 O.3     1  UNL1       -0.3232
     24 HXT        -3.1668    3.6817   -0.0211 H       1  UNL1        0.2951
     25 HA         -3.5799    0.7002    2.3262 H       1  UNL1        0.0579
     26 H          -1.9470   -1.1350    2.3627 H       1  UNL1        0.0334
     27 H          -1.5433    0.3051    3.2839 H       1  UNL1        0.0334
     28 H          -0.6953   -1.8699    0.5392 H       1  UNL1        0.0620
     29 H           1.5329   -1.9400   -0.5414 H       1  UNL1        0.0624
     30 H           4.4970    0.8487    1.3210 H       1  UNL1        0.0624
     31 H           6.6646    0.7936    0.2432 H       1  UNL1        0.0618
     32 H           6.9652   -0.2351   -2.0055 H       1  UNL1        0.0618
     33 H           4.9273   -1.2094   -3.1019 H       1  UNL1        0.0618
     34 H           2.7839   -1.1481   -2.0219 H       1  UNL1        0.0624
     35 H           2.5851    1.6845    1.3598 H       1  UNL1        0.0624
     36 H           0.3774    1.7377    2.4328 H       1  UNL1        0.0620
     37 H          -4.1198   -0.6366    0.7083 H       1  UNL1        0.1233
     38 H          -1.9103   -0.3520   -1.0534 H       1  UNL1        0.0550
     39 H          -3.1175    0.9938   -1.3374 H       1  UNL1        0.0550
     40 H          -3.4069   -3.0579   -0.7937 H       1  UNL1        0.2198
     41 H          -5.9682   -0.2585   -1.2518 H       1  UNL1        0.2198
@<TRIPOS>BOND
     1     1     2    2
     2     2     3    1
     3     2     4    1
     4     4     5    1
     5     5     6    1
     6     6     7   ar
     7     7     8   ar
     8     8     9   ar
     9     9    10    1
    10    10    11   ar
    11    11    12   ar
    12    12    13   ar
    13    13    14   ar
    14    14    15   ar
    15     9    16   ar
    16    16    17   ar
    17     4    18    1
    18    18    19    1
    19    19    20    1
    20    20    21    2
    21    20    22    1
    22    20    23    1
    23    17     6   ar
    24    15    10   ar
    25     3    24    1
    26     4    25    1
    27     5    26    1
    28     5    27    1
    29     7    28    1
    30     8    29    1
    31    11    30    1
    32    12    31    1
    33    13    32    1
    34    14    33    1
    35    15    34    1
    36    16    35    1
    37    17    36    1
    38    18    37    1
    39    19    38    1
    40    19    39    1
    41    22    40    1
    42    23    41    1
