
     RDKit          3D

 41 42  0  0  0  0  0  0  0  0999 V2000
   -2.0129    2.8983    2.1145 O   0  0  0  0  0  0  0  0  0  0  0  0
   -2.5130    2.1047    1.2356 C   0  0  0  0  0  0  0  0  0  0  0  0
   -2.8279    2.7372    0.0435 O   0  0  0  0  0  0  0  0  0  0  0  0
   -2.7199    0.6853    1.4905 C   0  0  2  0  0  0  0  0  0  0  0  0
   -1.6415   -0.0483    2.2004 C   0  0  0  0  0  0  0  0  0  0  0  0
   -0.3295   -0.0709    1.5554 C   0  0  0  0  0  0  0  0  0  0  0  0
    0.0543   -1.0971    0.7007 C   0  0  0  0  0  0  0  0  0  0  0  0
    1.2890   -1.1123    0.1175 C   0  0  0  0  0  0  0  0  0  0  0  0
    2.1952   -0.1229    0.3491 C   0  0  0  0  0  0  0  0  0  0  0  0
    3.5030   -0.1402   -0.2695 C   0  0  0  0  0  0  0  0  0  0  0  0
    4.5984    0.3963    0.3459 C   0  0  0  0  0  0  0  0  0  0  0  0
    5.8339    0.3650   -0.2685 C   0  0  0  0  0  0  0  0  0  0  0  0
    6.0024   -0.2044   -1.5140 C   0  0  0  0  0  0  0  0  0  0  0  0
    4.8918   -0.7420   -2.1250 C   0  0  0  0  0  0  0  0  0  0  0  0
    3.6402   -0.7156   -1.5138 C   0  0  0  0  0  0  0  0  0  0  0  0
    1.8525    0.8975    1.1811 C   0  0  0  0  0  0  0  0  0  0  0  0
    0.6156    0.9254    1.7740 C   0  0  0  0  0  0  0  0  0  0  0  0
   -3.3078   -0.0212    0.4569 N   0  0  0  0  0  0  0  0  0  0  0  0
   -2.9244    0.0018   -0.8669 C   0  0  0  0  0  0  0  0  0  0  0  0
   -4.0094   -1.1884   -1.7815 P   0  0  0  0  0  5  0  0  0  0  0  0
   -3.3777   -1.5723   -3.0894 O   0  0  0  0  0  0  0  0  0  0  0  0
   -4.2337   -2.5105   -0.7553 O   0  0  0  0  0  0  0  0  0  0  0  0
   -5.4570   -0.3684   -2.0711 O   0  0  0  0  0  0  0  0  0  0  0  0
   -3.1668    3.6817   -0.0211 H   0  0  0  0  0  0  0  0  0  0  0  0
   -3.5799    0.7002    2.3262 H   0  0  0  0  0  0  0  0  0  0  0  0
   -1.9470   -1.1350    2.3627 H   0  0  0  0  0  0  0  0  0  0  0  0
   -1.5433    0.3051    3.2839 H   0  0  0  0  0  0  0  0  0  0  0  0
   -0.6953   -1.8699    0.5392 H   0  0  0  0  0  0  0  0  0  0  0  0
    1.5329   -1.9400   -0.5414 H   0  0  0  0  0  0  0  0  0  0  0  0
    4.4970    0.8487    1.3210 H   0  0  0  0  0  0  0  0  0  0  0  0
    6.6646    0.7936    0.2432 H   0  0  0  0  0  0  0  0  0  0  0  0
    6.9652   -0.2351   -2.0055 H   0  0  0  0  0  0  0  0  0  0  0  0
    4.9273   -1.2094   -3.1019 H   0  0  0  0  0  0  0  0  0  0  0  0
    2.7839   -1.1481   -2.0219 H   0  0  0  0  0  0  0  0  0  0  0  0
    2.5851    1.6845    1.3598 H   0  0  0  0  0  0  0  0  0  0  0  0
    0.3774    1.7377    2.4328 H   0  0  0  0  0  0  0  0  0  0  0  0
   -4.1198   -0.6366    0.7083 H   0  0  0  0  0  0  0  0  0  0  0  0
   -1.9103   -0.3520   -1.0534 H   0  0  0  0  0  0  0  0  0  0  0  0
   -3.1175    0.9938   -1.3374 H   0  0  0  0  0  0  0  0  0  0  0  0
   -3.4069   -3.0579   -0.7937 H   0  0  0  0  0  0  0  0  0  0  0  0
   -5.9682   -0.2585   -1.2518 H   0  0  0  0  0  0  0  0  0  0  0  0
  1  2  2  0
  2  3  1  0
  2  4  1  0
  4  5  1  0
  5  6  1  0
  6  7  2  0
  7  8  1  0
  8  9  2  0
  9 10  1  0
 10 11  2  0
 11 12  1  0
 12 13  2  0
 13 14  1  0
 14 15  2  0
  9 16  1  0
 16 17  2  0
  4 18  1  0
 18 19  1  0
 19 20  1  0
 20 21  2  0
 20 22  1  0
 20 23  1  0
 17  6  1  0
 15 10  1  0
  3 24  1  0
  4 25  1  1
  5 26  1  0
  5 27  1  0
  7 28  1  0
  8 29  1  0
 11 30  1  0
 12 31  1  0
 13 32  1  0
 14 33  1  0
 15 34  1  0
 16 35  1  0
 17 36  1  0
 18 37  1  0
 19 38  1  0
 19 39  1  0
 22 40  1  0
 23 41  1  0
M  END
$$$$
