@<TRIPOS>MOLECULE
*****
 59 60 0 0 0
SMALL
GASTEIGER

@<TRIPOS>ATOM
      1 C          -4.5416    1.1982   -2.4330 C.3     0  UNK0       -0.0148
      2 N          -3.3410    1.7330   -1.8179 N.3     1  UNK1       -0.3051
      3 C          -2.9523    0.7638   -0.7701 C.3     1  UNK1        0.1103
      4 C          -1.7429    1.2124   -0.0841 C.2     1  UNK1        0.2377
      5 O          -1.2224    2.3023   -0.4048 O.2     1  UNK1       -0.2735
      6 N          -1.0698    0.4749    0.9733 N.am    2  PRO2       -0.2884
      7 CD         -1.5555   -0.7811    1.4568 C.3     2  PRO2        0.0156
      8 CG         -0.3921   -1.3705    2.2150 C.3     2  PRO2       -0.0350
      9 CB          0.2487   -0.0933    2.8167 C.3     2  PRO2       -0.0243
     10 CA          0.1097    0.8513    1.6557 C.3     2  PRO2        0.1023
     11 C           1.3286    0.8833    0.8179 C.2     2  PRO2        0.2341
     12 O           2.3917    1.2809    1.2900 O.2     2  PRO2       -0.2738
     13 N           1.2557    0.4528   -0.5233 N.am    3  ARG3       -0.3044
     14 CA          2.3933    0.4444   -1.4349 C.3     3  ARG3        0.0786
     15 C           2.1816    1.3800   -2.5689 C.2     3  ARG3        0.1404
     16 O           3.0542    1.4781   -3.4120 O.2     3  ARG3       -0.2991
     17 CB          2.6154   -0.9521   -1.9101 C.3     3  ARG3       -0.0250
     18 CG          2.9122   -1.9426   -0.8350 C.3     3  ARG3       -0.0202
     19 CD          4.1480   -1.6285   -0.0469 C.3     3  ARG3        0.0647
     20 NE          5.3305   -1.5869   -0.8872 N.pl3   3  ARG3       -0.2761
     21 CZ          6.6039   -1.3024   -0.3268 C.cat   3  ARG3        0.3762
     22 NH1         6.8499   -1.6148    0.9006 N.pl3   3  ARG3       -0.1298
     23 NH2         7.5798   -0.6720   -1.1537 N.pl3   3  ARG3       -0.2893
     24 C          -4.1170    0.7804    0.1884 C.ar    1  UNK1       -0.0217
     25 C          -4.6033    2.0084    0.6264 C.ar    1  UNK1       -0.0566
     26 C          -5.6756    2.0242    1.4918 C.ar    1  UNK1       -0.0614
     27 C          -6.3005    0.8843    1.9532 C.ar    1  UNK1       -0.0617
     28 C          -5.7964   -0.3178    1.5018 C.ar    1  UNK1       -0.0614
     29 C          -4.7252   -0.3653    0.6361 C.ar    1  UNK1       -0.0566
     30 H          -5.2950    0.8750   -1.6723 H       0  UNK0        0.0388
     31 H          -4.3427    0.3162   -3.0673 H       0  UNK0        0.0388
     32 H          -4.9889    1.9686   -3.1241 H       0  UNK0        0.0388
     33 H          -2.5841    1.7009   -2.5440 H       1  UNK1        0.1226
     34 H          -2.8957   -0.2040   -1.2608 H       1  UNK1        0.0607
     35 HD1        -2.3477   -0.5468    2.2052 H       2  PRO2        0.0465
     36 HD2        -1.9424   -1.4486    0.6691 H       2  PRO2        0.0465
     37 HG1         0.3564   -1.8490    1.5744 H       2  PRO2        0.0281
     38 HG2        -0.7073   -2.0112    3.0459 H       2  PRO2        0.0281
     39 HB1         1.2848   -0.2795    3.1212 H       2  PRO2        0.0288
     40 HB2        -0.3647    0.2151    3.6914 H       2  PRO2        0.0288
     41 HA         -0.0708    1.8699    2.1066 H       2  PRO2        0.0597
     42 H           0.3306    0.1147   -0.8879 H       3  ARG3        0.1494
     43 HA          3.3018    0.7946   -0.9053 H       3  ARG3        0.0574
     44 H           1.2799    1.9746   -2.6687 H       3  ARG3        0.1046
     45 HB1         1.7336   -1.3452   -2.4826 H       3  ARG3        0.0288
     46 HB2         3.4486   -0.9418   -2.6501 H       3  ARG3        0.0288
     47 HG1         2.0620   -2.1225   -0.1701 H       3  ARG3        0.0296
     48 HG2         3.1113   -2.9234   -1.3489 H       3  ARG3        0.0296
     49 HD1         4.3043   -2.4981    0.6563 H       3  ARG3        0.0655
     50 HD2         4.1050   -0.7325    0.5682 H       3  ARG3        0.0655
     51 HE          5.2081   -1.7715   -1.9014 H       3  ARG3        0.2579
     52 HH1         6.1248   -2.0693    1.4733 H       3  ARG3        0.3062
     53 HH21        7.8444   -1.1299   -2.0518 H       3  ARG3        0.2546
     54 HH22        7.9864    0.2262   -0.8184 H       3  ARG3        0.2546
     55 H          -4.1227    2.9239    0.2733 H       1  UNK1        0.0621
     56 H          -6.0516    2.9790    1.8308 H       1  UNK1        0.0618
     57 H          -7.1405    0.9361    2.6328 H       1  UNK1        0.0618
     58 H          -6.2624   -1.2188    1.8436 H       1  UNK1        0.0618
     59 H          -4.3329   -1.3282    0.2840 H       1  UNK1        0.0621
@<TRIPOS>BOND
     1     1     2    1
     2     2     3    1
     3     3     4    1
     4     4     5    2
     5     4     6   am
     6     6     7    1
     7     7     8    1
     8     8     9    1
     9     9    10    1
    10    10    11    1
    11    11    12    2
    12    11    13   am
    13    13    14    1
    14    14    15    1
    15    15    16    2
    16    14    17    1
    17    17    18    1
    18    18    19    1
    19    19    20    1
    20    20    21    1
    21    21    22    2
    22    21    23    1
    23     3    24    1
    24    24    25   ar
    25    25    26   ar
    26    26    27   ar
    27    27    28   ar
    28    28    29   ar
    29    10     6    1
    30    29    24   ar
    31     1    30    1
    32     1    31    1
    33     1    32    1
    34     2    33    1
    35     3    34    1
    36     7    35    1
    37     7    36    1
    38     8    37    1
    39     8    38    1
    40     9    39    1
    41     9    40    1
    42    10    41    1
    43    13    42    1
    44    14    43    1
    45    15    44    1
    46    17    45    1
    47    17    46    1
    48    18    47    1
    49    18    48    1
    50    19    49    1
    51    19    50    1
    52    20    51    1
    53    22    52    1
    54    23    53    1
    55    23    54    1
    56    25    55    1
    57    26    56    1
    58    27    57    1
    59    28    58    1
    60    29    59    1
