
     RDKit          3D

 62 66  0  0  0  0  0  0  0  0999 V2000
    3.6294   -2.0200    0.3882 C   0  0  0  0  0  0  0  0  0  0  0  0
    2.1770   -1.6458    0.4862 C   0  0  0  0  0  0  0  0  0  0  0  0
    1.4096   -2.6734   -0.3412 C   0  0  0  0  0  0  0  0  0  0  0  0
    1.7855   -1.9245    1.9529 C   0  0  0  0  0  0  0  0  0  0  0  0
    1.8441   -0.2738    0.0836 C   0  0  0  0  0  0  0  0  0  0  0  0
    0.5545    0.2767    0.0804 C   0  0  0  0  0  0  0  0  0  0  0  0
   -0.7187   -0.3280    0.4109 C   0  0  0  0  0  0  0  0  0  0  0  0
   -0.8177   -1.4141    0.9897 O   0  0  0  0  0  0  0  0  0  0  0  0
   -1.9284    0.3314    0.0686 N   0  0  0  0  0  0  0  0  0  0  0  0
   -3.2433   -0.2400    0.3860 C   0  0  0  0  0  0  0  0  0  0  0  0
   -3.9899    0.6998    1.3120 C   0  0  0  0  0  0  0  0  0  0  0  0
   -4.3433    1.9977    0.6109 C   0  0  0  0  0  0  0  0  0  0  0  0
   -5.2104    1.6981   -0.5936 C   0  0  0  0  0  0  0  0  0  0  0  0
   -6.4734    1.0106   -0.1383 C   0  0  0  0  0  0  0  0  0  0  0  0
   -6.0987   -0.2990    0.5206 C   0  0  0  0  0  0  0  0  0  0  0  0
   -5.2646    0.0349    1.7310 C   0  0  0  0  0  0  0  0  0  0  0  0
   -5.3406   -1.1572   -0.4661 C   0  0  0  0  0  0  0  0  0  0  0  0
   -4.0473   -0.4709   -0.8549 C   0  0  0  0  0  0  0  0  0  0  0  0
   -4.4078    0.8405   -1.5387 C   0  0  0  0  0  0  0  0  0  0  0  0
    0.7171    1.6027   -0.3521 C   0  0  0  0  0  0  0  0  0  0  0  0
    1.9861    1.8025   -0.5802 N   0  0  0  0  0  0  0  0  0  0  0  0
    2.6805    0.6656   -0.3183 N   0  0  0  0  0  0  0  0  0  0  0  0
    4.0859    0.7226   -0.5393 C   0  0  0  0  0  0  0  0  0  0  0  0
    4.6438    0.6843   -1.8185 C   0  0  0  0  0  0  0  0  0  0  0  0
    6.0078    0.7746   -2.0138 C   0  0  0  0  0  0  0  0  0  0  0  0
    6.8597    0.9073   -0.9435 C   0  0  0  0  0  0  0  0  0  0  0  0
    8.3157    1.0137   -1.1120 C   0  0  0  0  0  0  0  0  0  0  0  0
    8.7892    0.9788   -2.2559 O   0  0  0  0  0  0  0  0  0  0  0  0
    9.1451    1.1512   -0.0005 O   0  0  0  0  0  0  0  0  0  0  0  0
    6.3256    0.9474    0.3352 C   0  0  0  0  0  0  0  0  0  0  0  0
    4.9535    0.8545    0.5080 C   0  0  0  0  0  0  0  0  0  0  0  0
    4.1502   -1.7251   -0.5104 H   0  0  0  0  0  0  0  0  0  0  0  0
    4.2063   -1.7514    1.3106 H   0  0  0  0  0  0  0  0  0  0  0  0
    3.7310   -3.1647    0.3876 H   0  0  0  0  0  0  0  0  0  0  0  0
    0.7456   -2.1984   -1.0937 H   0  0  0  0  0  0  0  0  0  0  0  0
    2.1365   -3.2645   -0.9706 H   0  0  0  0  0  0  0  0  0  0  0  0
    0.9025   -3.4225    0.3002 H   0  0  0  0  0  0  0  0  0  0  0  0
    1.3756   -1.0465    2.4544 H   0  0  0  0  0  0  0  0  0  0  0  0
    2.7278   -2.1751    2.5410 H   0  0  0  0  0  0  0  0  0  0  0  0
    1.1871   -2.8490    2.0360 H   0  0  0  0  0  0  0  0  0  0  0  0
   -1.8783    1.2453   -0.4257 H   0  0  0  0  0  0  0  0  0  0  0  0
   -3.0807   -1.1872    0.8964 H   0  0  0  0  0  0  0  0  0  0  0  0
   -3.3291    0.9358    2.1619 H   0  0  0  0  0  0  0  0  0  0  0  0
   -4.8324    2.6514    1.3388 H   0  0  0  0  0  0  0  0  0  0  0  0
   -3.4077    2.4509    0.2272 H   0  0  0  0  0  0  0  0  0  0  0  0
   -5.4968    2.6407   -1.0893 H   0  0  0  0  0  0  0  0  0  0  0  0
   -7.1012    0.7951   -1.0111 H   0  0  0  0  0  0  0  0  0  0  0  0
   -6.9829    1.6810    0.5808 H   0  0  0  0  0  0  0  0  0  0  0  0
   -6.9859   -0.8533    0.8832 H   0  0  0  0  0  0  0  0  0  0  0  0
   -5.0369   -0.8628    2.3442 H   0  0  0  0  0  0  0  0  0  0  0  0
   -5.8489    0.7537    2.3460 H   0  0  0  0  0  0  0  0  0  0  0  0
   -6.0061   -1.2956   -1.3399 H   0  0  0  0  0  0  0  0  0  0  0  0
   -5.0648   -2.0952    0.0486 H   0  0  0  0  0  0  0  0  0  0  0  0
   -3.5066   -1.0669   -1.5983 H   0  0  0  0  0  0  0  0  0  0  0  0
   -3.4585    1.3797   -1.7450 H   0  0  0  0  0  0  0  0  0  0  0  0
   -4.9643    0.5792   -2.4603 H   0  0  0  0  0  0  0  0  0  0  0  0
   -0.1416    2.2964   -0.4502 H   0  0  0  0  0  0  0  0  0  0  0  0
    3.9346    0.5795   -2.6293 H   0  0  0  0  0  0  0  0  0  0  0  0
    6.3999    0.7408   -3.0166 H   0  0  0  0  0  0  0  0  0  0  0  0
    9.9812    1.7331   -0.0913 H   0  0  0  0  0  0  0  0  0  0  0  0
    7.0276    1.0533    1.1638 H   0  0  0  0  0  0  0  0  0  0  0  0
    4.5909    0.8942    1.5221 H   0  0  0  0  0  0  0  0  0  0  0  0
  1  2  1  0
  2  3  1  0
  2  4  1  0
  2  5  1  0
  5  6  2  0
  6  7  1  0
  7  8  2  0
  7  9  1  0
  9 10  1  0
 10 11  1  0
 11 12  1  0
 12 13  1  0
 13 14  1  0
 14 15  1  0
 15 16  1  0
 15 17  1  0
 17 18  1  0
 18 19  1  0
  6 20  1  0
 20 21  2  0
 21 22  1  0
 22 23  1  0
 23 24  2  0
 24 25  1  0
 25 26  2  0
 26 27  1  0
 27 28  2  0
 27 29  1  0
 26 30  1  0
 30 31  2  0
 22  5  1  0
 31 23  1  0
 18 10  1  0
 16 11  1  0
 19 13  1  0
  1 32  1  0
  1 33  1  0
  1 34  1  0
  3 35  1  0
  3 36  1  0
  3 37  1  0
  4 38  1  0
  4 39  1  0
  4 40  1  0
  9 41  1  0
 10 42  1  0
 11 43  1  0
 12 44  1  0
 12 45  1  0
 13 46  1  0
 14 47  1  0
 14 48  1  0
 15 49  1  0
 16 50  1  0
 16 51  1  0
 17 52  1  0
 17 53  1  0
 18 54  1  0
 19 55  1  0
 19 56  1  0
 20 57  1  0
 24 58  1  0
 25 59  1  0
 29 60  1  0
 30 61  1  0
 31 62  1  0
M  END
$$$$
