@<TRIPOS>MOLECULE
*****
 62 66 0 0 0
SMALL
GASTEIGER

@<TRIPOS>ATOM
      1 C           3.6294   -2.0200    0.3882 C.3     1  UNL1       -0.0546
      2 C           2.1770   -1.6458    0.4862 C.3     1  UNL1        0.0053
      3 C           1.4096   -2.6734   -0.3412 C.3     1  UNL1       -0.0546
      4 C           1.7855   -1.9245    1.9529 C.3     1  UNL1       -0.0546
      5 C           1.8441   -0.2738    0.0836 C.ar    1  UNL1        0.0624
      6 C           0.5545    0.2767    0.0804 C.ar    1  UNL1        0.0782
      7 C          -0.7187   -0.3280    0.4109 C.2     1  UNL1        0.2476
      8 O          -0.8177   -1.4141    0.9897 O.2     1  UNL1       -0.2701
      9 N          -1.9284    0.3314    0.0686 N.am    1  UNL1       -0.3079
     10 C          -3.2433   -0.2400    0.3860 C.3     1  UNL1        0.0291
     11 C          -3.9899    0.6998    1.3120 C.3     1  UNL1       -0.0218
     12 C          -4.3433    1.9977    0.6109 C.3     1  UNL1       -0.0456
     13 C          -5.2104    1.6981   -0.5936 C.3     1  UNL1       -0.0402
     14 C          -6.4734    1.0106   -0.1383 C.3     1  UNL1       -0.0473
     15 C          -6.0987   -0.2990    0.5206 C.3     1  UNL1       -0.0402
     16 C          -5.2646    0.0349    1.7310 C.3     1  UNL1       -0.0456
     17 C          -5.3406   -1.1572   -0.4661 C.3     1  UNL1       -0.0456
     18 C          -4.0473   -0.4709   -0.8549 C.3     1  UNL1       -0.0218
     19 C          -4.4078    0.8405   -1.5387 C.3     1  UNL1       -0.0456
     20 C           0.7171    1.6027   -0.3521 C.ar    1  UNL1        0.0622
     21 N           1.9861    1.8025   -0.5802 N.ar    1  UNL1       -0.1738
     22 N           2.6805    0.6656   -0.3183 N.ar    1  UNL1       -0.2355
     23 C           4.0859    0.7226   -0.5393 C.ar    1  UNL1        0.0657
     24 C           4.6438    0.6843   -1.8185 C.ar    1  UNL1       -0.0355
     25 C           6.0078    0.7746   -2.0138 C.ar    1  UNL1       -0.0458
     26 C           6.8597    0.9073   -0.9435 C.ar    1  UNL1        0.0590
     27 C           8.3157    1.0137   -1.1120 C.2     1  UNL1        0.3368
     28 O           8.7892    0.9788   -2.2559 O.2     1  UNL1       -0.2451
     29 O           9.1451    1.1512   -0.0005 O.3     1  UNL1       -0.4771
     30 C           6.3256    0.9474    0.3352 C.ar    1  UNL1       -0.0458
     31 C           4.9535    0.8545    0.5080 C.ar    1  UNL1       -0.0355
     32 H           4.1502   -1.7251   -0.5104 H       1  UNL1        0.0239
     33 H           4.2063   -1.7514    1.3106 H       1  UNL1        0.0239
     34 H           3.7310   -3.1647    0.3876 H       1  UNL1        0.0239
     35 H           0.7456   -2.1984   -1.0937 H       1  UNL1        0.0239
     36 H           2.1365   -3.2645   -0.9706 H       1  UNL1        0.0239
     37 H           0.9025   -3.4225    0.3002 H       1  UNL1        0.0239
     38 H           1.3756   -1.0465    2.4544 H       1  UNL1        0.0239
     39 H           2.7278   -2.1751    2.5410 H       1  UNL1        0.0239
     40 H           1.1871   -2.8490    2.0360 H       1  UNL1        0.0239
     41 H          -1.8783    1.2453   -0.4257 H       1  UNL1        0.1493
     42 H          -3.0807   -1.1872    0.8964 H       1  UNL1        0.0504
     43 H          -3.3291    0.9358    2.1619 H       1  UNL1        0.0319
     44 H          -4.8324    2.6514    1.3388 H       1  UNL1        0.0271
     45 H          -3.4077    2.4509    0.2272 H       1  UNL1        0.0271
     46 H          -5.4968    2.6407   -1.0893 H       1  UNL1        0.0301
     47 H          -7.1012    0.7951   -1.0111 H       1  UNL1        0.0271
     48 H          -6.9829    1.6810    0.5808 H       1  UNL1        0.0271
     49 H          -6.9859   -0.8533    0.8832 H       1  UNL1        0.0301
     50 H          -5.0369   -0.8628    2.3442 H       1  UNL1        0.0271
     51 H          -5.8489    0.7537    2.3460 H       1  UNL1        0.0271
     52 H          -6.0061   -1.2956   -1.3399 H       1  UNL1        0.0271
     53 H          -5.0648   -2.0952    0.0486 H       1  UNL1        0.0271
     54 H          -3.5066   -1.0669   -1.5983 H       1  UNL1        0.0319
     55 H          -3.4585    1.3797   -1.7450 H       1  UNL1        0.0271
     56 H          -4.9643    0.5792   -2.4603 H       1  UNL1        0.0271
     57 H          -0.1416    2.2964   -0.4502 H       1  UNL1        0.0856
     58 H           3.9346    0.5795   -2.6293 H       1  UNL1        0.0639
     59 H           6.3999    0.7408   -3.0166 H       1  UNL1        0.0626
     60 H           9.9812    1.7331   -0.0913 H       1  UNL1        0.2954
     61 H           7.0276    1.0533    1.1638 H       1  UNL1        0.0626
     62 H           4.5909    0.8942    1.5221 H       1  UNL1        0.0639
@<TRIPOS>BOND
     1     1     2    1
     2     2     3    1
     3     2     4    1
     4     2     5    1
     5     5     6   ar
     6     6     7    1
     7     7     8    2
     8     7     9   am
     9     9    10    1
    10    10    11    1
    11    11    12    1
    12    12    13    1
    13    13    14    1
    14    14    15    1
    15    15    16    1
    16    15    17    1
    17    17    18    1
    18    18    19    1
    19     6    20   ar
    20    20    21   ar
    21    21    22   ar
    22    22    23    1
    23    23    24   ar
    24    24    25   ar
    25    25    26   ar
    26    26    27    1
    27    27    28    2
    28    27    29    1
    29    26    30   ar
    30    30    31   ar
    31    22     5   ar
    32    31    23   ar
    33    18    10    1
    34    16    11    1
    35    19    13    1
    36     1    32    1
    37     1    33    1
    38     1    34    1
    39     3    35    1
    40     3    36    1
    41     3    37    1
    42     4    38    1
    43     4    39    1
    44     4    40    1
    45     9    41    1
    46    10    42    1
    47    11    43    1
    48    12    44    1
    49    12    45    1
    50    13    46    1
    51    14    47    1
    52    14    48    1
    53    15    49    1
    54    16    50    1
    55    16    51    1
    56    17    52    1
    57    17    53    1
    58    18    54    1
    59    19    55    1
    60    19    56    1
    61    20    57    1
    62    24    58    1
    63    25    59    1
    64    29    60    1
    65    30    61    1
    66    31    62    1
