@<TRIPOS>MOLECULE
*****
 47 48 0 0 0
SMALL
GASTEIGER

@<TRIPOS>ATOM
      1 C           5.7969   -1.8600    0.8603 C.3     1  UNL1        0.0788
      2 O           4.8539   -0.9110    1.2577 O.3     1  UNL1       -0.4951
      3 C           3.5989   -0.7465    0.6915 C.ar    1  UNL1        0.1201
      4 C           3.1144   -1.5018   -0.3348 C.ar    1  UNL1       -0.0197
      5 C           1.8506   -1.2461   -0.8193 C.ar    1  UNL1       -0.0547
      6 C           1.0206   -0.2554   -0.3264 C.ar    1  UNL1       -0.0401
      7 C          -0.3391    0.0020   -0.8771 C.3     1  UNL1        0.0257
      8 C          -0.4227    1.2866   -1.6123 C.3     1  UNL1        0.0078
      9 N          -0.1253    2.4907   -0.9860 N.3     1  UNL1       -0.3077
     10 C          -0.9196    3.1135   -0.0184 C.3     1  UNL1       -0.0130
     11 C           0.5338    3.4555   -1.8256 C.3     1  UNL1       -0.0130
     12 C          -1.4562   -0.2987    0.0421 C.3     1  UNL1        0.0740
     13 O          -1.3792    0.4745    1.1766 O.3     1  UNL1       -0.3879
     14 C          -1.4015   -1.7967    0.4513 C.3     1  UNL1       -0.0234
     15 C          -2.3836   -2.0209    1.5421 C.3     1  UNL1       -0.0504
     16 C          -3.7870   -1.8430    0.9373 C.3     1  UNL1       -0.0529
     17 C          -3.8779   -0.4626    0.3818 C.3     1  UNL1       -0.0504
     18 C          -2.7867   -0.1312   -0.6168 C.3     1  UNL1       -0.0234
     19 C           1.5403    0.4903    0.7121 C.ar    1  UNL1       -0.0547
     20 C           2.8104    0.2515    1.2169 C.ar    1  UNL1       -0.0197
     21 H           5.3313   -2.7741    0.3998 H       1  UNL1        0.0660
     22 H           6.4277   -1.4117    0.0647 H       1  UNL1        0.0660
     23 H           6.4868   -2.1637    1.6687 H       1  UNL1        0.0660
     24 H           3.7497   -2.2815   -0.7333 H       1  UNL1        0.0654
     25 H           1.4858   -1.8576   -1.6310 H       1  UNL1        0.0622
     26 H          -0.4276   -0.7977   -1.7134 H       1  UNL1        0.0389
     27 H           0.1776    1.2047   -2.6050 H       1  UNL1        0.0433
     28 H          -1.4688    1.3906   -2.0600 H       1  UNL1        0.0433
     29 H          -0.5512    3.0522    1.0327 H       1  UNL1        0.0391
     30 H          -1.9802    2.7990   -0.0584 H       1  UNL1        0.0391
     31 H          -0.9943    4.2420   -0.1749 H       1  UNL1        0.0391
     32 H           1.4475    3.8802   -1.3600 H       1  UNL1        0.0391
     33 H           0.7418    3.0540   -2.8481 H       1  UNL1        0.0391
     34 H          -0.1744    4.3121   -1.9862 H       1  UNL1        0.0391
     35 H          -0.9374    0.0799    1.9478 H       1  UNL1        0.2102
     36 H          -0.3699   -2.1061    0.6745 H       1  UNL1        0.0293
     37 H          -1.7295   -2.3532   -0.4501 H       1  UNL1        0.0293
     38 H          -2.3188   -1.3353    2.3920 H       1  UNL1        0.0266
     39 H          -2.3110   -3.0838    1.8904 H       1  UNL1        0.0266
     40 H          -4.5503   -1.9509    1.7318 H       1  UNL1        0.0265
     41 H          -3.9599   -2.5825    0.1298 H       1  UNL1        0.0265
     42 H          -4.8696   -0.3731   -0.1139 H       1  UNL1        0.0266
     43 H          -3.8017    0.3016    1.1949 H       1  UNL1        0.0266
     44 H          -2.9772    0.8978   -0.9379 H       1  UNL1        0.0293
     45 H          -2.8492   -0.7824   -1.5219 H       1  UNL1        0.0293
     46 H           0.9911    1.2894    1.1791 H       1  UNL1        0.0622
     47 H           3.1906    0.8592    2.0350 H       1  UNL1        0.0654
@<TRIPOS>BOND
     1     1     2    1
     2     2     3    1
     3     3     4   ar
     4     4     5   ar
     5     5     6   ar
     6     6     7    1
     7     7     8    1
     8     8     9    1
     9     9    10    1
    10     9    11    1
    11     7    12    1
    12    12    13    1
    13    12    14    1
    14    14    15    1
    15    15    16    1
    16    16    17    1
    17    17    18    1
    18     6    19   ar
    19    19    20   ar
    20    20     3   ar
    21    18    12    1
    22     1    21    1
    23     1    22    1
    24     1    23    1
    25     4    24    1
    26     5    25    1
    27     7    26    1
    28     8    27    1
    29     8    28    1
    30    10    29    1
    31    10    30    1
    32    10    31    1
    33    11    32    1
    34    11    33    1
    35    11    34    1
    36    13    35    1
    37    14    36    1
    38    14    37    1
    39    15    38    1
    40    15    39    1
    41    16    40    1
    42    16    41    1
    43    17    42    1
    44    17    43    1
    45    18    44    1
    46    18    45    1
    47    19    46    1
    48    20    47    1
