
     RDKit          3D

 47 48  0  0  0  0  0  0  0  0999 V2000
    5.7969   -1.8600    0.8603 C   0  0  0  0  0  0  0  0  0  0  0  0
    4.8539   -0.9110    1.2577 O   0  0  0  0  0  0  0  0  0  0  0  0
    3.5989   -0.7465    0.6915 C   0  0  0  0  0  0  0  0  0  0  0  0
    3.1144   -1.5018   -0.3348 C   0  0  0  0  0  0  0  0  0  0  0  0
    1.8506   -1.2461   -0.8193 C   0  0  0  0  0  0  0  0  0  0  0  0
    1.0206   -0.2554   -0.3264 C   0  0  0  0  0  0  0  0  0  0  0  0
   -0.3391    0.0020   -0.8771 C   0  0  0  0  0  0  0  0  0  0  0  0
   -0.4227    1.2866   -1.6123 C   0  0  0  0  0  0  0  0  0  0  0  0
   -0.1253    2.4907   -0.9860 N   0  0  0  0  0  0  0  0  0  0  0  0
   -0.9196    3.1135   -0.0184 C   0  0  0  0  0  0  0  0  0  0  0  0
    0.5338    3.4555   -1.8256 C   0  0  0  0  0  0  0  0  0  0  0  0
   -1.4562   -0.2987    0.0421 C   0  0  0  0  0  0  0  0  0  0  0  0
   -1.3792    0.4745    1.1766 O   0  0  0  0  0  0  0  0  0  0  0  0
   -1.4015   -1.7967    0.4513 C   0  0  0  0  0  0  0  0  0  0  0  0
   -2.3836   -2.0209    1.5421 C   0  0  0  0  0  0  0  0  0  0  0  0
   -3.7870   -1.8430    0.9373 C   0  0  0  0  0  0  0  0  0  0  0  0
   -3.8779   -0.4626    0.3818 C   0  0  0  0  0  0  0  0  0  0  0  0
   -2.7867   -0.1312   -0.6168 C   0  0  0  0  0  0  0  0  0  0  0  0
    1.5403    0.4903    0.7121 C   0  0  0  0  0  0  0  0  0  0  0  0
    2.8104    0.2515    1.2169 C   0  0  0  0  0  0  0  0  0  0  0  0
    5.3313   -2.7741    0.3998 H   0  0  0  0  0  0  0  0  0  0  0  0
    6.4277   -1.4117    0.0647 H   0  0  0  0  0  0  0  0  0  0  0  0
    6.4868   -2.1637    1.6687 H   0  0  0  0  0  0  0  0  0  0  0  0
    3.7497   -2.2815   -0.7333 H   0  0  0  0  0  0  0  0  0  0  0  0
    1.4858   -1.8576   -1.6310 H   0  0  0  0  0  0  0  0  0  0  0  0
   -0.4276   -0.7977   -1.7134 H   0  0  0  0  0  0  0  0  0  0  0  0
    0.1776    1.2047   -2.6050 H   0  0  0  0  0  0  0  0  0  0  0  0
   -1.4688    1.3906   -2.0600 H   0  0  0  0  0  0  0  0  0  0  0  0
   -0.5512    3.0522    1.0327 H   0  0  0  0  0  0  0  0  0  0  0  0
   -1.9802    2.7990   -0.0584 H   0  0  0  0  0  0  0  0  0  0  0  0
   -0.9943    4.2420   -0.1749 H   0  0  0  0  0  0  0  0  0  0  0  0
    1.4475    3.8802   -1.3600 H   0  0  0  0  0  0  0  0  0  0  0  0
    0.7418    3.0540   -2.8481 H   0  0  0  0  0  0  0  0  0  0  0  0
   -0.1744    4.3121   -1.9862 H   0  0  0  0  0  0  0  0  0  0  0  0
   -0.9374    0.0799    1.9478 H   0  0  0  0  0  0  0  0  0  0  0  0
   -0.3699   -2.1061    0.6745 H   0  0  0  0  0  0  0  0  0  0  0  0
   -1.7295   -2.3532   -0.4501 H   0  0  0  0  0  0  0  0  0  0  0  0
   -2.3188   -1.3353    2.3920 H   0  0  0  0  0  0  0  0  0  0  0  0
   -2.3110   -3.0838    1.8904 H   0  0  0  0  0  0  0  0  0  0  0  0
   -4.5503   -1.9509    1.7318 H   0  0  0  0  0  0  0  0  0  0  0  0
   -3.9599   -2.5825    0.1298 H   0  0  0  0  0  0  0  0  0  0  0  0
   -4.8696   -0.3731   -0.1139 H   0  0  0  0  0  0  0  0  0  0  0  0
   -3.8017    0.3016    1.1949 H   0  0  0  0  0  0  0  0  0  0  0  0
   -2.9772    0.8978   -0.9379 H   0  0  0  0  0  0  0  0  0  0  0  0
   -2.8492   -0.7824   -1.5219 H   0  0  0  0  0  0  0  0  0  0  0  0
    0.9911    1.2894    1.1791 H   0  0  0  0  0  0  0  0  0  0  0  0
    3.1906    0.8592    2.0350 H   0  0  0  0  0  0  0  0  0  0  0  0
  1  2  1  0
  2  3  1  0
  3  4  2  0
  4  5  1  0
  5  6  2  0
  6  7  1  0
  7  8  1  0
  8  9  1  0
  9 10  1  0
  9 11  1  0
  7 12  1  0
 12 13  1  0
 12 14  1  0
 14 15  1  0
 15 16  1  0
 16 17  1  0
 17 18  1  0
  6 19  1  0
 19 20  2  0
 20  3  1  0
 18 12  1  0
  1 21  1  0
  1 22  1  0
  1 23  1  0
  4 24  1  0
  5 25  1  0
  7 26  1  0
  8 27  1  0
  8 28  1  0
 10 29  1  0
 10 30  1  0
 10 31  1  0
 11 32  1  0
 11 33  1  0
 11 34  1  0
 13 35  1  0
 14 36  1  0
 14 37  1  0
 15 38  1  0
 15 39  1  0
 16 40  1  0
 16 41  1  0
 17 42  1  0
 17 43  1  0
 18 44  1  0
 18 45  1  0
 19 46  1  0
 20 47  1  0
M  END
$$$$
