
     RDKit          3D

 70 75  0  0  0  0  0  0  0  0999 V2000
    6.3401    1.0692   -3.6644 O   0  0  0  0  0  0  0  0  0  0  0  0
    7.3452    0.6617   -3.0122 C   0  0  0  0  0  0  0  0  0  0  0  0
    8.5812    0.7312   -3.5928 O   0  0  0  0  0  0  0  0  0  0  0  0
    7.1937    0.1283   -1.6692 C   0  0  0  0  0  0  0  0  0  0  0  0
    8.3179   -0.3009   -1.0015 C   0  0  0  0  0  0  0  0  0  0  0  0
    8.2175   -0.8132    0.2741 C   0  0  0  0  0  0  0  0  0  0  0  0
    6.9579   -0.8772    0.8469 C   0  0  0  0  0  0  0  0  0  0  0  0
    5.8172   -0.4499    0.1891 C   0  0  0  0  0  0  0  0  0  0  0  0
    4.5236   -0.5681    0.9039 C   0  0  0  0  0  0  0  0  0  0  0  0
    3.5988   -1.4429    0.0857 C   0  0  0  0  0  0  0  0  0  0  0  0
    2.3180   -1.5910    0.8824 C   0  0  0  0  0  0  0  0  0  0  0  0
    1.6673   -0.3160    0.9142 N   0  0  0  0  0  0  0  0  0  0  0  0
    0.3905   -0.3658    1.5958 C   0  0  2  0  0  0  0  0  0  0  0  0
   -0.4909   -1.3695    0.8358 C   0  0  0  0  0  0  0  0  0  0  0  0
   -1.8926   -0.9701    1.2637 C   0  0  1  0  0  0  0  0  0  0  0  0
   -2.0772   -1.1727    2.6258 O   0  0  0  0  0  0  0  0  0  0  0  0
   -2.3632    0.0436    3.2329 C   0  0  0  0  0  0  0  0  0  0  0  0
   -2.8350    0.9435    2.0773 C   0  0  0  0  0  0  0  0  0  0  0  0
   -1.8053    0.5462    1.0519 C   0  0  2  0  0  0  0  0  0  0  0  0
   -2.0363    0.9678   -0.3160 C   0  0  0  0  0  0  0  0  0  0  0  0
   -0.9489    0.9111   -1.0771 O   0  0  0  0  0  0  0  0  0  0  0  0
   -3.1440    1.4160   -1.0014 N   0  0  0  0  0  0  0  0  0  0  0  0
   -3.0373    1.6420   -2.4718 C   0  0  0  0  0  0  0  0  0  0  0  0
   -4.1593    0.9905   -3.0666 O   0  0  0  0  0  0  0  0  0  0  0  0
   -5.2149    0.4425   -2.3736 C   0  0  0  0  0  0  0  0  0  0  0  0
   -6.1258   -0.4566   -2.9172 C   0  0  0  0  0  0  0  0  0  0  0  0
   -7.1643   -0.9836   -2.2041 C   0  0  0  0  0  0  0  0  0  0  0  0
   -7.3552   -0.6386   -0.8905 C   0  0  0  0  0  0  0  0  0  0  0  0
   -8.4728   -1.1981   -0.1027 C   0  0  0  0  0  0  0  0  0  0  0  0
   -8.0909   -2.2310    0.7174 F   0  0  0  0  0  0  0  0  0  0  0  0
   -9.4641   -1.6201   -0.9654 F   0  0  0  0  0  0  0  0  0  0  0  0
   -9.0124   -0.1868    0.6816 F   0  0  0  0  0  0  0  0  0  0  0  0
   -6.4466    0.2664   -0.3263 C   0  0  0  0  0  0  0  0  0  0  0  0
   -5.4231    0.7821   -1.0386 C   0  0  0  0  0  0  0  0  0  0  0  0
   -4.4327    1.7430   -0.4780 C   0  0  0  0  0  0  0  0  0  0  0  0
   -0.3904    0.8980    1.4618 C   0  0  0  0  0  0  0  0  0  0  0  0
    2.4773    0.7143    1.5322 C   0  0  0  0  0  0  0  0  0  0  0  0
    3.8635    0.7965    0.9952 C   0  0  0  0  0  0  0  0  0  0  0  0
    5.9533    0.0495   -1.0668 C   0  0  0  0  0  0  0  0  0  0  0  0
    8.7891    1.2888   -4.4030 H   0  0  0  0  0  0  0  0  0  0  0  0
    9.3102   -0.2502   -1.4536 H   0  0  0  0  0  0  0  0  0  0  0  0
    9.1135   -1.1465    0.7852 H   0  0  0  0  0  0  0  0  0  0  0  0
    6.9233   -1.2883    1.8554 H   0  0  0  0  0  0  0  0  0  0  0  0
    4.6452   -1.0006    1.9050 H   0  0  0  0  0  0  0  0  0  0  0  0
    4.0515   -2.4239   -0.1557 H   0  0  0  0  0  0  0  0  0  0  0  0
    3.3406   -0.8631   -0.8289 H   0  0  0  0  0  0  0  0  0  0  0  0
    1.6760   -2.2973    0.3497 H   0  0  0  0  0  0  0  0  0  0  0  0
    2.5569   -1.9937    1.8868 H   0  0  0  0  0  0  0  0  0  0  0  0
    0.4626   -0.6410    2.6534 H   0  0  0  0  0  0  0  0  0  0  0  0
   -0.2353   -2.4005    1.1453 H   0  0  0  0  0  0  0  0  0  0  0  0
   -0.4069   -1.1899   -0.2428 H   0  0  0  0  0  0  0  0  0  0  0  0
   -2.6715   -1.4063    0.6495 H   0  0  0  0  0  0  0  0  0  0  0  0
   -1.4538    0.4579    3.6871 H   0  0  0  0  0  0  0  0  0  0  0  0
   -3.2117   -0.1029    3.9244 H   0  0  0  0  0  0  0  0  0  0  0  0
   -3.7996    0.4200    1.7802 H   0  0  0  0  0  0  0  0  0  0  0  0
   -2.9203    1.9755    2.3215 H   0  0  0  0  0  0  0  0  0  0  0  0
   -2.0978    1.2416   -2.8594 H   0  0  0  0  0  0  0  0  0  0  0  0
   -3.1441    2.7191   -2.6615 H   0  0  0  0  0  0  0  0  0  0  0  0
   -5.9957   -0.7416   -3.9461 H   0  0  0  0  0  0  0  0  0  0  0  0
   -7.8577   -1.6893   -2.6747 H   0  0  0  0  0  0  0  0  0  0  0  0
   -6.6025    0.5381    0.7199 H   0  0  0  0  0  0  0  0  0  0  0  0
   -4.5367    2.0029    0.5531 H   0  0  0  0  0  0  0  0  0  0  0  0
   -4.7086    2.7362   -1.0163 H   0  0  0  0  0  0  0  0  0  0  0  0
    0.0695    1.5438    0.6549 H   0  0  0  0  0  0  0  0  0  0  0  0
   -0.4239    1.5289    2.3449 H   0  0  0  0  0  0  0  0  0  0  0  0
    2.5176    0.5996    2.6455 H   0  0  0  0  0  0  0  0  0  0  0  0
    1.9799    1.6884    1.3478 H   0  0  0  0  0  0  0  0  0  0  0  0
    3.9142    1.2755   -0.0110 H   0  0  0  0  0  0  0  0  0  0  0  0
    4.4711    1.4049    1.6926 H   0  0  0  0  0  0  0  0  0  0  0  0
    5.0650    0.3827   -1.5805 H   0  0  0  0  0  0  0  0  0  0  0  0
  1  2  2  0
  2  3  1  0
  2  4  1  0
  4  5  2  0
  5  6  1  0
  6  7  2  0
  7  8  1  0
  8  9  1  0
  9 10  1  0
 10 11  1  0
 11 12  1  0
 12 13  1  0
 13 14  1  0
 14 15  1  0
 15 16  1  0
 16 17  1  0
 17 18  1  0
 18 19  1  0
 19 20  1  6
 20 21  2  0
 20 22  1  0
 22 23  1  0
 23 24  1  0
 24 25  1  0
 25 26  2  0
 26 27  1  0
 27 28  2  0
 28 29  1  0
 29 30  1  0
 29 31  1  0
 29 32  1  0
 28 33  1  0
 33 34  2  0
 34 35  1  0
 19 36  1  0
 12 37  1  0
 37 38  1  0
  8 39  2  0
 39  4  1  0
 38  9  1  0
 36 13  1  0
 19 15  1  0
 35 22  1  0
 34 25  1  0
  3 40  1  0
  5 41  1  0
  6 42  1  0
  7 43  1  0
  9 44  1  0
 10 45  1  0
 10 46  1  0
 11 47  1  0
 11 48  1  0
 13 49  1  1
 14 50  1  0
 14 51  1  0
 15 52  1  6
 17 53  1  0
 17 54  1  0
 18 55  1  0
 18 56  1  0
 23 57  1  0
 23 58  1  0
 26 59  1  0
 27 60  1  0
 33 61  1  0
 35 62  1  0
 35 63  1  0
 36 64  1  0
 36 65  1  0
 37 66  1  0
 37 67  1  0
 38 68  1  0
 38 69  1  0
 39 70  1  0
M  END
$$$$
