@<TRIPOS>MOLECULE
*****
 70 75 0 0 0
SMALL
GASTEIGER

@<TRIPOS>ATOM
      1 O           6.3401    1.0692   -3.6644 O.2     1  UNL1       -0.2451
      2 C           7.3452    0.6617   -3.0122 C.2     1  UNL1        0.3368
      3 O           8.5812    0.7312   -3.5928 O.3     1  UNL1       -0.4771
      4 C           7.1937    0.1283   -1.6692 C.ar    1  UNL1        0.0591
      5 C           8.3179   -0.3009   -1.0015 C.ar    1  UNL1       -0.0478
      6 C           8.2175   -0.8132    0.2741 C.ar    1  UNL1       -0.0607
      7 C           6.9579   -0.8772    0.8469 C.ar    1  UNL1       -0.0583
      8 C           5.8172   -0.4499    0.1891 C.ar    1  UNL1       -0.0434
      9 C           4.5236   -0.5681    0.9039 C.3     1  UNL1       -0.0135
     10 C           3.5988   -1.4429    0.0857 C.3     1  UNL1       -0.0333
     11 C           2.3180   -1.5910    0.8824 C.3     1  UNL1       -0.0003
     12 N           1.6673   -0.3160    0.9142 N.3     1  UNL1       -0.2992
     13 C           0.3905   -0.3658    1.5958 C.3     1  UNL1        0.0138
     14 C          -0.4909   -1.3695    0.8358 C.3     1  UNL1       -0.0099
     15 C          -1.8926   -0.9701    1.2637 C.3     1  UNL1        0.0741
     16 O          -2.0772   -1.1727    2.6258 O.3     1  UNL1       -0.3754
     17 C          -2.3632    0.0436    3.2329 C.3     1  UNL1        0.0491
     18 C          -2.8350    0.9435    2.0773 C.3     1  UNL1       -0.0130
     19 C          -1.8053    0.5462    1.0519 C.3     1  UNL1        0.0768
     20 C          -2.0363    0.9678   -0.3160 C.2     1  UNL1        0.2271
     21 O          -0.9489    0.9111   -1.0771 O.2     1  UNL1       -0.2748
     22 N          -3.1440    1.4160   -1.0014 N.am    1  UNL1       -0.2636
     23 C          -3.0373    1.6420   -2.4718 C.3     1  UNL1        0.1587
     24 O          -4.1593    0.9905   -3.0666 O.3     1  UNL1       -0.4730
     25 C          -5.2149    0.4425   -2.3736 C.ar    1  UNL1        0.1275
     26 C          -6.1258   -0.4566   -2.9172 C.ar    1  UNL1       -0.0190
     27 C          -7.1643   -0.9836   -2.2041 C.ar    1  UNL1       -0.0466
     28 C          -7.3552   -0.6386   -0.8905 C.ar    1  UNL1        0.0553
     29 C          -8.4728   -1.1981   -0.1027 C.3     1  UNL1        0.4174
     30 F          -8.0909   -2.2310    0.7174 F       1  UNL1       -0.1659
     31 F          -9.4641   -1.6201   -0.9654 F       1  UNL1       -0.1659
     32 F          -9.0124   -0.1868    0.6816 F       1  UNL1       -0.1659
     33 C          -6.4466    0.2664   -0.3263 C.ar    1  UNL1       -0.0420
     34 C          -5.4231    0.7821   -1.0386 C.ar    1  UNL1        0.0122
     35 C          -4.4327    1.7430   -0.4780 C.3     1  UNL1        0.0463
     36 C          -0.3904    0.8980    1.4618 C.3     1  UNL1       -0.0208
     37 C           2.4773    0.7143    1.5322 C.3     1  UNL1       -0.0003
     38 C           3.8635    0.7965    0.9952 C.3     1  UNL1       -0.0333
     39 C           5.9533    0.0495   -1.0668 C.ar    1  UNL1       -0.0443
     40 H           8.7891    1.2888   -4.4030 H       1  UNL1        0.2954
     41 H           9.3102   -0.2502   -1.4536 H       1  UNL1        0.0626
     42 H           9.1135   -1.1465    0.7852 H       1  UNL1        0.0618
     43 H           6.9233   -1.2883    1.8554 H       1  UNL1        0.0620
     44 H           4.6452   -1.0006    1.9050 H       1  UNL1        0.0350
     45 H           4.0515   -2.4239   -0.1557 H       1  UNL1        0.0283
     46 H           3.3406   -0.8631   -0.8289 H       1  UNL1        0.0283
     47 H           1.6760   -2.2973    0.3497 H       1  UNL1        0.0427
     48 H           2.5569   -1.9937    1.8868 H       1  UNL1        0.0427
     49 H           0.4626   -0.6410    2.6534 H       1  UNL1        0.0464
     50 H          -0.2353   -2.4005    1.1453 H       1  UNL1        0.0306
     51 H          -0.4069   -1.1899   -0.2428 H       1  UNL1        0.0306
     52 H          -2.6715   -1.4063    0.6495 H       1  UNL1        0.0607
     53 H          -1.4538    0.4579    3.6871 H       1  UNL1        0.0560
     54 H          -3.2117   -0.1029    3.9244 H       1  UNL1        0.0560
     55 H          -3.7996    0.4200    1.7802 H       1  UNL1        0.0298
     56 H          -2.9203    1.9755    2.3215 H       1  UNL1        0.0298
     57 H          -2.0978    1.2416   -2.8594 H       1  UNL1        0.0914
     58 H          -3.1441    2.7191   -2.6615 H       1  UNL1        0.0914
     59 H          -5.9957   -0.7416   -3.9461 H       1  UNL1        0.0654
     60 H          -7.8577   -1.6893   -2.6747 H       1  UNL1        0.0624
     61 H          -6.6025    0.5381    0.7199 H       1  UNL1        0.0627
     62 H          -4.5367    2.0029    0.5531 H       1  UNL1        0.0516
     63 H          -4.7086    2.7362   -1.0163 H       1  UNL1        0.0516
     64 H           0.0695    1.5438    0.6549 H       1  UNL1        0.0291
     65 H          -0.4239    1.5289    2.3449 H       1  UNL1        0.0291
     66 H           2.5176    0.5996    2.6455 H       1  UNL1        0.0427
     67 H           1.9799    1.6884    1.3478 H       1  UNL1        0.0427
     68 H           3.9142    1.2755   -0.0110 H       1  UNL1        0.0283
     69 H           4.4711    1.4049    1.6926 H       1  UNL1        0.0283
     70 H           5.0650    0.3827   -1.5805 H       1  UNL1        0.0628
@<TRIPOS>BOND
     1     1     2    2
     2     2     3    1
     3     2     4    1
     4     4     5   ar
     5     5     6   ar
     6     6     7   ar
     7     7     8   ar
     8     8     9    1
     9     9    10    1
    10    10    11    1
    11    11    12    1
    12    12    13    1
    13    13    14    1
    14    14    15    1
    15    15    16    1
    16    16    17    1
    17    17    18    1
    18    18    19    1
    19    19    20    1
    20    20    21    2
    21    20    22   am
    22    22    23    1
    23    23    24    1
    24    24    25    1
    25    25    26   ar
    26    26    27   ar
    27    27    28   ar
    28    28    29    1
    29    29    30    1
    30    29    31    1
    31    29    32    1
    32    28    33   ar
    33    33    34   ar
    34    34    35    1
    35    19    36    1
    36    12    37    1
    37    37    38    1
    38     8    39   ar
    39    39     4   ar
    40    38     9    1
    41    36    13    1
    42    19    15    1
    43    35    22    1
    44    34    25   ar
    45     3    40    1
    46     5    41    1
    47     6    42    1
    48     7    43    1
    49     9    44    1
    50    10    45    1
    51    10    46    1
    52    11    47    1
    53    11    48    1
    54    13    49    1
    55    14    50    1
    56    14    51    1
    57    15    52    1
    58    17    53    1
    59    17    54    1
    60    18    55    1
    61    18    56    1
    62    23    57    1
    63    23    58    1
    64    26    59    1
    65    27    60    1
    66    33    61    1
    67    35    62    1
    68    35    63    1
    69    36    64    1
    70    36    65    1
    71    37    66    1
    72    37    67    1
    73    38    68    1
    74    38    69    1
    75    39    70    1
