@<TRIPOS>MOLECULE
*****
 61 63 0 0 0
SMALL
GASTEIGER

@<TRIPOS>ATOM
      1 C           6.7143   -2.2037    0.2798 C.3     1  UNL1       -0.0638
      2 C           6.0701   -0.9234   -0.1862 C.3     1  UNL1       -0.0350
      3 C           4.5829   -0.9514    0.1739 C.3     1  UNL1        0.0817
      4 S           3.9019    0.5867   -0.4104 S.O2    1  UNL1        0.0318
      5 O           4.6167    1.7414    0.2360 O.2     1  UNL1       -0.1580
      6 O           4.1011    0.7015   -1.9143 O.2     1  UNL1       -0.1580
      7 N           2.2446    0.7511   -0.1017 N.3     1  UNL1       -0.1811
      8 C           1.4267   -0.2821   -0.7631 C.3     1  UNL1        0.0211
      9 C           0.0588    0.3643   -0.8613 C.3     1  UNL1       -0.0231
     10 C          -0.5487    0.6188    0.4647 C.3     1  UNL1        0.0650
     11 C          -0.9662   -0.5792    1.2306 C.3     1  UNL1        0.0259
     12 N          -1.8942   -1.5122    0.7773 N.am    1  UNL1       -0.3103
     13 C          -1.8477   -2.4669   -0.2595 C.2     1  UNL1        0.2456
     14 O          -0.8141   -2.5892   -0.9414 O.2     1  UNL1       -0.2702
     15 C          -2.9794   -3.3537   -0.5933 C.ar    1  UNL1        0.0578
     16 C          -2.7684   -4.7083   -0.4277 C.ar    1  UNL1       -0.0115
     17 C          -3.7632   -5.6495   -0.7097 C.ar    1  UNL1        0.1424
     18 F          -3.5684   -6.9780   -0.5520 F       1  UNL1       -0.2039
     19 C          -4.9764   -5.2264   -1.1606 C.ar    1  UNL1        0.0775
     20 CL         -6.2347   -6.4001   -1.5192 Cl      1  UNL1       -0.0805
     21 C          -5.1859   -3.8614   -1.3263 C.ar    1  UNL1       -0.0215
     22 C          -4.1869   -2.9314   -1.0420 C.ar    1  UNL1        0.0546
     23 CL         -4.4627   -1.2231   -1.2545 Cl      1  UNL1       -0.0827
     24 C          -1.6826    1.5827    0.2647 C.2     1  UNL1        0.2235
     25 O          -2.8373    1.0914    0.5278 O.2     1  UNL1       -0.2749
     26 N          -1.6372    2.9023   -0.1567 N.am    1  UNL1       -0.2966
     27 C          -0.5640    3.7753   -0.5158 C.3     1  UNL1        0.0382
     28 C          -0.6190    4.9734    0.4254 C.3     1  UNL1        0.0635
     29 O          -1.6632    4.8494    1.3377 O.3     1  UNL1       -0.3767
     30 C          -2.9006    4.7649    0.6647 C.3     1  UNL1        0.0635
     31 C          -2.9578    3.5965   -0.2746 C.3     1  UNL1        0.0382
     32 C           0.4465    1.3476    1.3932 C.3     1  UNL1       -0.0231
     33 C           1.8463    0.8027    1.2587 C.3     1  UNL1        0.0211
     34 H           7.7983   -2.1604    0.0427 H       1  UNL1        0.0230
     35 H           6.6031   -2.2488    1.3826 H       1  UNL1        0.0230
     36 H           6.2121   -3.0572   -0.2196 H       1  UNL1        0.0230
     37 H           6.1349   -0.7655   -1.2710 H       1  UNL1        0.0279
     38 H           6.4938   -0.0459    0.3336 H       1  UNL1        0.0279
     39 H           4.0974   -1.8181   -0.3045 H       1  UNL1        0.0515
     40 H           4.4204   -1.0205    1.2487 H       1  UNL1        0.0515
     41 H           1.3396   -1.1127   -0.0649 H       1  UNL1        0.0444
     42 H           1.7624   -0.5196   -1.7684 H       1  UNL1        0.0444
     43 H          -0.5914   -0.2085   -1.5130 H       1  UNL1        0.0289
     44 H           0.2351    1.3283   -1.4378 H       1  UNL1        0.0289
     45 H           0.0374   -1.0923    1.5200 H       1  UNL1        0.0472
     46 H          -1.2981   -0.2557    2.2789 H       1  UNL1        0.0472
     47 H          -2.8504   -1.5356    1.2975 H       1  UNL1        0.1490
     48 H          -1.8256   -5.1093   -0.0718 H       1  UNL1        0.0655
     49 H          -6.1642   -3.5492   -1.6879 H       1  UNL1        0.0648
     50 H          -0.8405    4.2010   -1.5440 H       1  UNL1        0.0487
     51 H           0.4266    3.3915   -0.6504 H       1  UNL1        0.0487
     52 H           0.3139    5.0662    1.0220 H       1  UNL1        0.0575
     53 H          -0.7174    5.9208   -0.1350 H       1  UNL1        0.0575
     54 H          -3.6785    4.6345    1.4280 H       1  UNL1        0.0575
     55 H          -2.9833    5.7457    0.1185 H       1  UNL1        0.0575
     56 H          -2.9677    3.9516   -1.3463 H       1  UNL1        0.0487
     57 H          -3.7685    2.8877   -0.1013 H       1  UNL1        0.0487
     58 H           0.3482    2.4212    1.3900 H       1  UNL1        0.0289
     59 H           0.1320    1.0470    2.4456 H       1  UNL1        0.0289
     60 H           2.5289    1.5017    1.7862 H       1  UNL1        0.0444
     61 H           1.8497   -0.2081    1.7574 H       1  UNL1        0.0444
@<TRIPOS>BOND
     1     1     2    1
     2     2     3    1
     3     3     4    1
     4     4     5    2
     5     4     6    2
     6     4     7    1
     7     7     8    1
     8     8     9    1
     9     9    10    1
    10    10    11    1
    11    11    12    1
    12    12    13   am
    13    13    14    2
    14    13    15    1
    15    15    16   ar
    16    16    17   ar
    17    17    18    1
    18    17    19   ar
    19    19    20    1
    20    19    21   ar
    21    21    22   ar
    22    22    23    1
    23    10    24    1
    24    24    25    2
    25    24    26   am
    26    26    27    1
    27    27    28    1
    28    28    29    1
    29    29    30    1
    30    30    31    1
    31    10    32    1
    32    32    33    1
    33    33     7    1
    34    22    15   ar
    35    31    26    1
    36     1    34    1
    37     1    35    1
    38     1    36    1
    39     2    37    1
    40     2    38    1
    41     3    39    1
    42     3    40    1
    43     8    41    1
    44     8    42    1
    45     9    43    1
    46     9    44    1
    47    11    45    1
    48    11    46    1
    49    12    47    1
    50    16    48    1
    51    21    49    1
    52    27    50    1
    53    27    51    1
    54    28    52    1
    55    28    53    1
    56    30    54    1
    57    30    55    1
    58    31    56    1
    59    31    57    1
    60    32    58    1
    61    32    59    1
    62    33    60    1
    63    33    61    1
