@<TRIPOS>MOLECULE
*****
 49 52 0 0 0
SMALL
GASTEIGER

@<TRIPOS>ATOM
      1 O          -2.0896    1.4295   -1.8708 O.3     1  UNL1       -0.3857
      2 C          -1.9247    1.0597   -0.5280 C.3     1  UNL1        0.0955
      3 C          -3.2059    1.2850    0.2330 C.3     1  UNL1        0.0266
      4 N          -4.3035    0.5024   -0.3181 N.3     1  UNL1       -0.3105
      5 C          -5.4870    0.7824    0.4736 C.3     1  UNL1        0.0078
      6 C          -6.7328    0.0836    0.0817 C.3     1  UNL1       -0.0361
      7 C          -6.5378    1.5912   -0.1531 C.3     1  UNL1       -0.0361
      8 C          -0.8825    1.9964    0.0479 C.3     1  UNL1       -0.0055
      9 C           0.2987    1.1468    0.3718 C.3     1  UNL1        0.0177
     10 N           0.0225   -0.1930   -0.1068 N.pl3   1  UNL1       -0.2967
     11 C           1.0210   -1.1925   -0.2767 C.ar    1  UNL1        0.2215
     12 N           2.3006   -0.9777   -0.0081 N.ar    1  UNL1       -0.1789
     13 C           3.2923   -1.8416   -0.1349 C.ar    1  UNL1        0.2254
     14 O           4.5834   -1.4574    0.1904 O.3     1  UNL1       -0.4378
     15 C           4.8327   -0.1734    0.6465 C.ar    1  UNL1        0.1331
     16 C           4.7926    0.1512    2.0086 C.ar    1  UNL1       -0.0191
     17 C           5.0370    1.4175    2.4772 C.ar    1  UNL1       -0.0556
     18 C           5.3335    2.4129    1.5814 C.ar    1  UNL1       -0.0262
     19 C           5.3767    2.1113    0.2435 C.ar    1  UNL1        0.1269
     20 F           5.6687    3.0912   -0.6390 F       1  UNL1       -0.2054
     21 C           5.1328    0.8445   -0.2306 C.ar    1  UNL1        0.0160
     22 C           2.9863   -3.1049   -0.5931 C.ar    1  UNL1        0.0305
     23 C           1.6666   -3.3745   -0.8856 C.ar    1  UNL1        0.1522
     24 C           1.3288   -4.7254   -1.3772 C.3     1  UNL1        0.4345
     25 F           0.2246   -4.7568   -2.1803 F       1  UNL1       -0.1644
     26 F           1.1094   -5.5745   -0.3006 F       1  UNL1       -0.1644
     27 F           2.4133   -5.2387   -2.0732 F       1  UNL1       -0.1644
     28 N           0.6942   -2.4372   -0.7320 N.ar    1  UNL1       -0.2101
     29 C          -1.3869   -0.3265   -0.3693 C.3     1  UNL1        0.0450
     30 H          -2.3751    0.6213   -2.3689 H       1  UNL1        0.2103
     31 H          -3.0549    1.0745    1.2963 H       1  UNL1        0.0453
     32 H          -3.4621    2.3704    0.1214 H       1  UNL1        0.0453
     33 H          -4.0177   -0.5139   -0.2281 H       1  UNL1        0.1223
     34 H          -5.2537    0.9485    1.5592 H       1  UNL1        0.0460
     35 H          -7.5339   -0.1510    0.7850 H       1  UNL1        0.0281
     36 H          -6.7215   -0.5496   -0.8198 H       1  UNL1        0.0281
     37 H          -7.1214    2.2836    0.4908 H       1  UNL1        0.0281
     38 H          -6.4698    1.9293   -1.2116 H       1  UNL1        0.0281
     39 H          -1.2345    2.4649    0.9933 H       1  UNL1        0.0309
     40 H          -0.6277    2.8269   -0.6425 H       1  UNL1        0.0309
     41 H           0.5308    1.0825    1.4527 H       1  UNL1        0.0465
     42 H           1.2296    1.4813   -0.1724 H       1  UNL1        0.0465
     43 H           4.5622   -0.6139    2.7267 H       1  UNL1        0.0654
     44 H           5.0094    1.6820    3.5255 H       1  UNL1        0.0620
     45 H           5.5340    3.4265    1.8971 H       1  UNL1        0.0646
     46 H           5.1829    0.6766   -1.2912 H       1  UNL1        0.0683
     47 H           3.7843   -3.8306   -0.7050 H       1  UNL1        0.0692
     48 H          -1.9389   -0.8728    0.4088 H       1  UNL1        0.0493
     49 H          -1.5873   -0.8680   -1.3355 H       1  UNL1        0.0493
@<TRIPOS>BOND
     1     2     1    1
     2     2     3    1
     3     3     4    1
     4     4     5    1
     5     5     6    1
     6     6     7    1
     7     2     8    1
     8     8     9    1
     9     9    10    1
    10    10    11    1
    11    11    12   ar
    12    12    13   ar
    13    13    14    1
    14    14    15    1
    15    15    16   ar
    16    16    17   ar
    17    17    18   ar
    18    18    19   ar
    19    19    20    1
    20    19    21   ar
    21    13    22   ar
    22    22    23   ar
    23    23    24    1
    24    24    25    1
    25    24    26    1
    26    24    27    1
    27    23    28   ar
    28    10    29    1
    29    29     2    1
    30     7     5    1
    31    28    11   ar
    32    21    15   ar
    33     1    30    1
    34     3    31    1
    35     3    32    1
    36     4    33    1
    37     5    34    1
    38     6    35    1
    39     6    36    1
    40     7    37    1
    41     7    38    1
    42     8    39    1
    43     8    40    1
    44     9    41    1
    45     9    42    1
    46    16    43    1
    47    17    44    1
    48    18    45    1
    49    21    46    1
    50    22    47    1
    51    29    48    1
    52    29    49    1
