
     RDKit          3D

 31 34  0  0  0  0  0  0  0  0999 V2000
    4.5477   -0.6578    2.4686 F   0  0  0  0  0  0  0  0  0  0  0  0
    3.9185   -0.3593    1.3114 C   0  0  0  0  0  0  0  0  0  0  0  0
    4.6123    0.2567    0.2924 C   0  0  0  0  0  0  0  0  0  0  0  0
    3.9517    0.5370   -0.8421 N   0  0  0  0  0  0  0  0  0  0  0  0
    2.6472    0.2348   -1.0047 C   0  0  0  0  0  0  0  0  0  0  0  0
    1.9147   -0.3796   -0.0162 C   0  0  0  0  0  0  0  0  0  0  0  0
    0.5082   -0.6779   -0.2582 C   0  0  0  0  0  0  0  0  0  0  0  0
    0.0120   -1.6924   -0.9752 N   0  0  0  0  0  0  0  0  0  0  0  0
   -1.3283   -1.6653   -0.9895 C   0  0  0  0  0  0  0  0  0  0  0  0
   -2.3024   -2.4573   -1.5638 C   0  0  0  0  0  0  0  0  0  0  0  0
   -3.6218   -2.1504   -1.3833 C   0  0  0  0  0  0  0  0  0  0  0  0
   -4.6099   -2.9253   -1.9460 F   0  0  0  0  0  0  0  0  0  0  0  0
   -3.9442   -1.0395   -0.6197 C   0  0  0  0  0  0  0  0  0  0  0  0
   -5.2696   -0.7686   -0.4643 F   0  0  0  0  0  0  0  0  0  0  0  0
   -3.0027   -0.2232   -0.0294 C   0  0  0  0  0  0  0  0  0  0  0  0
   -1.6748   -0.5473   -0.2216 C   0  0  0  0  0  0  0  0  0  0  0  0
   -0.5471    0.0402    0.2144 N   0  0  0  0  0  0  0  0  0  0  0  0
   -0.3714    1.2100    1.0313 C   0  0  0  0  0  0  0  0  0  0  0  0
    0.2537    2.4004    0.2573 C   0  0  0  0  0  0  0  0  0  0  0  0
   -1.1370    2.4359    0.8734 C   0  0  0  0  0  0  0  0  0  0  0  0
    2.5671   -0.6779    1.1565 C   0  0  0  0  0  0  0  0  0  0  0  0
    5.6663    0.4979    0.4308 H   0  0  0  0  0  0  0  0  0  0  0  0
    2.1262    0.4750   -1.9456 H   0  0  0  0  0  0  0  0  0  0  0  0
   -2.0375   -3.3155   -2.1533 H   0  0  0  0  0  0  0  0  0  0  0  0
   -3.2817    0.6410    0.5639 H   0  0  0  0  0  0  0  0  0  0  0  0
    0.1235    1.0134    2.0026 H   0  0  0  0  0  0  0  0  0  0  0  0
    0.3326    2.3169   -0.8275 H   0  0  0  0  0  0  0  0  0  0  0  0
    1.0616    2.9502    0.7560 H   0  0  0  0  0  0  0  0  0  0  0  0
   -1.2090    3.1002    1.7719 H   0  0  0  0  0  0  0  0  0  0  0  0
   -1.9389    2.5870    0.1504 H   0  0  0  0  0  0  0  0  0  0  0  0
    2.0333   -1.1597    1.9595 H   0  0  0  0  0  0  0  0  0  0  0  0
  1  2  1  0
  2  3  2  0
  3  4  1  0
  4  5  2  0
  5  6  1  0
  6  7  1  0
  7  8  2  0
  8  9  1  0
  9 10  2  0
 10 11  1  0
 11 12  1  0
 11 13  2  0
 13 14  1  0
 13 15  1  0
 15 16  2  0
 16 17  1  0
 17 18  1  0
 18 19  1  0
 19 20  1  0
  6 21  2  0
 21  2  1  0
 17  7  1  0
 20 18  1  0
 16  9  1  0
  3 22  1  0
  5 23  1  0
 10 24  1  0
 15 25  1  0
 18 26  1  0
 19 27  1  0
 19 28  1  0
 20 29  1  0
 20 30  1  0
 21 31  1  0
M  END
$$$$
