@<TRIPOS>MOLECULE
*****
 31 34 0 0 0
SMALL
GASTEIGER

@<TRIPOS>ATOM
      1 F           4.5477   -0.6578    2.4686 F       1  UNL1       -0.2039
      2 C           3.9185   -0.3593    1.3114 C.ar    1  UNL1        0.1421
      3 C           4.6123    0.2567    0.2924 C.ar    1  UNL1        0.0628
      4 N           3.9517    0.5370   -0.8421 N.ar    1  UNL1       -0.2597
      5 C           2.6472    0.2348   -1.0047 C.ar    1  UNL1        0.0384
      6 C           1.9147   -0.3796   -0.0162 C.ar    1  UNL1        0.0383
      7 C           0.5082   -0.6779   -0.2582 C.ar    1  UNL1        0.1437
      8 N           0.0120   -1.6924   -0.9752 N.ar    1  UNL1       -0.2274
      9 C          -1.3283   -1.6653   -0.9895 C.ar    1  UNL1        0.0926
     10 C          -2.3024   -2.4573   -1.5638 C.ar    1  UNL1        0.0039
     11 C          -3.6218   -2.1504   -1.3833 C.ar    1  UNL1        0.1605
     12 F          -4.6099   -2.9253   -1.9460 F       1  UNL1       -0.2024
     13 C          -3.9442   -1.0395   -0.6197 C.ar    1  UNL1        0.1605
     14 F          -5.2696   -0.7686   -0.4643 F       1  UNL1       -0.2024
     15 C          -3.0027   -0.2232   -0.0294 C.ar    1  UNL1        0.0021
     16 C          -1.6748   -0.5473   -0.2216 C.ar    1  UNL1        0.0722
     17 N          -0.5471    0.0402    0.2144 N.ar    1  UNL1       -0.3204
     18 C          -0.3714    1.2100    1.0313 C.3     1  UNL1        0.0366
     19 C           0.2537    2.4004    0.2573 C.3     1  UNL1       -0.0302
     20 C          -1.1370    2.4359    0.8734 C.3     1  UNL1       -0.0302
     21 C           2.5671   -0.6779    1.1565 C.ar    1  UNL1       -0.0128
     22 H           5.6663    0.4979    0.4308 H       1  UNL1        0.0859
     23 H           2.1262    0.4750   -1.9456 H       1  UNL1        0.0837
     24 H          -2.0375   -3.3155   -2.1533 H       1  UNL1        0.0669
     25 H          -3.2817    0.6410    0.5639 H       1  UNL1        0.0668
     26 H           0.1235    1.0134    2.0026 H       1  UNL1        0.0528
     27 H           0.3326    2.3169   -0.8275 H       1  UNL1        0.0286
     28 H           1.0616    2.9502    0.7560 H       1  UNL1        0.0286
     29 H          -1.2090    3.1002    1.7719 H       1  UNL1        0.0286
     30 H          -1.9389    2.5870    0.1504 H       1  UNL1        0.0286
     31 H           2.0333   -1.1597    1.9595 H       1  UNL1        0.0654
@<TRIPOS>BOND
     1     1     2    1
     2     2     3   ar
     3     3     4   ar
     4     4     5   ar
     5     5     6   ar
     6     6     7    1
     7     7     8   ar
     8     8     9   ar
     9     9    10   ar
    10    10    11   ar
    11    11    12    1
    12    11    13   ar
    13    13    14    1
    14    13    15   ar
    15    15    16   ar
    16    16    17   ar
    17    17    18    1
    18    18    19    1
    19    19    20    1
    20     6    21   ar
    21    21     2   ar
    22    17     7   ar
    23    20    18    1
    24    16     9   ar
    25     3    22    1
    26     5    23    1
    27    10    24    1
    28    15    25    1
    29    18    26    1
    30    19    27    1
    31    19    28    1
    32    20    29    1
    33    20    30    1
    34    21    31    1
