
     RDKit          3D

 48 52  0  0  0  0  0  0  0  0999 V2000
   -1.4546    3.2007   -0.4358 N   0  0  0  0  0  0  0  0  0  0  0  0
   -2.1524    2.2738   -0.4800 C   0  0  0  0  0  0  0  0  0  0  0  0
   -3.0571    1.1127   -0.5283 C   0  0  2  0  0  0  0  0  0  0  0  0
   -4.3944    1.6038   -0.0075 C   0  0  0  0  0  0  0  0  0  0  0  0
   -4.4703    1.2454    1.4327 C   0  0  2  0  0  0  0  0  0  0  0  0
   -3.3637    1.3819    2.3814 C   0  0  0  0  0  0  0  0  0  0  0  0
   -3.5416    0.1279    1.5787 C   0  0  2  0  0  0  0  0  0  0  0  0
   -2.6751    0.0792    0.4001 N   0  0  0  0  0  0  0  0  0  0  0  0
   -1.6254   -0.9031    0.2882 C   0  0  0  0  0  0  0  0  0  0  0  0
   -1.4740   -1.7268    1.2275 O   0  0  0  0  0  0  0  0  0  0  0  0
   -0.7154   -1.0093   -0.8527 C   0  0  1  0  0  0  0  0  0  0  0  0
   -1.0696   -0.0880   -1.9174 N   0  0  0  0  0  0  0  0  0  0  0  0
    0.7413   -0.8472   -0.5140 C   0  0  0  0  0  0  0  0  0  0  0  0
    1.2165   -1.8925    0.4662 C   0  0  0  0  0  0  0  0  0  0  0  0
    2.7085   -1.7587    0.7140 C   0  0  0  0  0  0  0  0  0  0  0  0
    3.5474   -1.8081   -0.5134 C   0  0  0  0  0  0  0  0  0  0  0  0
    3.0064   -0.7838   -1.4862 C   0  0  0  0  0  0  0  0  0  0  0  0
    3.1719    0.6066   -0.9215 C   0  0  0  0  0  0  0  0  0  0  0  0
    2.4631    0.6725    0.4151 C   0  0  0  0  0  0  0  0  0  0  0  0
    2.7217    1.9081    0.9745 O   0  0  0  0  0  0  0  0  0  0  0  0
    2.9166   -0.3863    1.3623 C   0  0  0  0  0  0  0  0  0  0  0  0
    0.9867    0.4910    0.1421 C   0  0  0  0  0  0  0  0  0  0  0  0
    1.5638   -1.0211   -1.7724 C   0  0  0  0  0  0  0  0  0  0  0  0
   -3.2292    0.7512   -1.5650 H   0  0  0  0  0  0  0  0  0  0  0  0
   -4.4919    2.6863   -0.2211 H   0  0  0  0  0  0  0  0  0  0  0  0
   -5.2423    1.1157   -0.5324 H   0  0  0  0  0  0  0  0  0  0  0  0
   -5.5275    1.1864    1.8180 H   0  0  0  0  0  0  0  0  0  0  0  0
   -3.6254    1.3278    3.4559 H   0  0  0  0  0  0  0  0  0  0  0  0
   -2.4758    2.0207    2.1956 H   0  0  0  0  0  0  0  0  0  0  0  0
   -3.8878   -0.8035    2.0257 H   0  0  0  0  0  0  0  0  0  0  0  0
   -0.8011   -2.0372   -1.3178 H   0  0  0  0  0  0  0  0  0  0  0  0
   -1.4641   -0.5473   -2.7461 H   0  0  0  0  0  0  0  0  0  0  0  0
   -0.3892    0.6506   -2.1016 H   0  0  0  0  0  0  0  0  0  0  0  0
    0.9791   -2.8836    0.0342 H   0  0  0  0  0  0  0  0  0  0  0  0
    0.7572   -1.7491    1.4720 H   0  0  0  0  0  0  0  0  0  0  0  0
    3.0136   -2.5619    1.4009 H   0  0  0  0  0  0  0  0  0  0  0  0
    3.5577   -2.7877   -1.0123 H   0  0  0  0  0  0  0  0  0  0  0  0
    4.5666   -1.4685   -0.2361 H   0  0  0  0  0  0  0  0  0  0  0  0
    3.5529   -0.8034   -2.4619 H   0  0  0  0  0  0  0  0  0  0  0  0
    4.2120    0.9196   -0.8174 H   0  0  0  0  0  0  0  0  0  0  0  0
    2.5952    1.2932   -1.6066 H   0  0  0  0  0  0  0  0  0  0  0  0
    2.8342    2.6013    0.2552 H   0  0  0  0  0  0  0  0  0  0  0  0
    2.2504   -0.3503    2.2523 H   0  0  0  0  0  0  0  0  0  0  0  0
    3.9420   -0.2661    1.7293 H   0  0  0  0  0  0  0  0  0  0  0  0
    0.6103    1.3159   -0.4641 H   0  0  0  0  0  0  0  0  0  0  0  0
    0.4978    0.4270    1.1567 H   0  0  0  0  0  0  0  0  0  0  0  0
    1.4535   -2.1087   -2.0524 H   0  0  0  0  0  0  0  0  0  0  0  0
    1.2614   -0.4073   -2.6146 H   0  0  0  0  0  0  0  0  0  0  0  0
  1  2  3  0
  2  3  1  0
  3  4  1  0
  4  5  1  0
  5  6  1  0
  6  7  1  0
  7  8  1  0
  8  9  1  0
  9 10  2  0
  9 11  1  0
 11 12  1  0
 11 13  1  0
 13 14  1  0
 14 15  1  0
 15 16  1  0
 16 17  1  0
 17 18  1  0
 18 19  1  0
 19 20  1  0
 19 21  1  0
 19 22  1  0
 17 23  1  0
  8  3  1  0
 22 13  1  0
  7  5  1  0
 23 13  1  0
 21 15  1  0
  3 24  1  6
  4 25  1  0
  4 26  1  0
  5 27  1  1
  6 28  1  0
  6 29  1  0
  7 30  1  1
 11 31  1  6
 12 32  1  0
 12 33  1  0
 14 34  1  0
 14 35  1  0
 15 36  1  0
 16 37  1  0
 16 38  1  0
 17 39  1  0
 18 40  1  0
 18 41  1  0
 20 42  1  0
 21 43  1  0
 21 44  1  0
 22 45  1  0
 22 46  1  0
 23 47  1  0
 23 48  1  0
M  END
$$$$
