@<TRIPOS>MOLECULE
*****
 48 52 0 0 0
SMALL
GASTEIGER

@<TRIPOS>ATOM
      1 N          -1.4546    3.2007   -0.4358 N.1     1  UNL1       -0.1946
      2 C          -2.1524    2.2738   -0.4800 C.1     1  UNL1        0.0851
      3 C          -3.0571    1.1127   -0.5283 C.3     1  UNL1        0.1135
      4 C          -4.3944    1.6038   -0.0075 C.3     1  UNL1       -0.0164
      5 C          -4.4703    1.2454    1.4327 C.3     1  UNL1       -0.0180
      6 C          -3.3637    1.3819    2.3814 C.3     1  UNL1       -0.0294
      7 C          -3.5416    0.1279    1.5787 C.3     1  UNL1        0.0306
      8 N          -2.6751    0.0792    0.4001 N.am    1  UNL1       -0.2810
      9 C          -1.6254   -0.9031    0.2882 C.2     1  UNL1        0.2342
     10 O          -1.4740   -1.7268    1.2275 O.2     1  UNL1       -0.2738
     11 C          -0.7154   -1.0093   -0.8527 C.3     1  UNL1        0.0883
     12 N          -1.0696   -0.0880   -1.9174 N.3     1  UNL1       -0.3195
     13 C           0.7413   -0.8472   -0.5140 C.3     1  UNL1       -0.0025
     14 C           1.2165   -1.8925    0.4662 C.3     1  UNL1       -0.0425
     15 C           2.7085   -1.7587    0.7140 C.3     1  UNL1       -0.0376
     16 C           3.5474   -1.8081   -0.5134 C.3     1  UNL1       -0.0471
     17 C           3.0064   -0.7838   -1.4862 C.3     1  UNL1       -0.0376
     18 C           3.1719    0.6066   -0.9215 C.3     1  UNL1       -0.0211
     19 C           2.4631    0.6725    0.4151 C.3     1  UNL1        0.0672
     20 O           2.7217    1.9081    0.9745 O.3     1  UNL1       -0.3885
     21 C           2.9166   -0.3863    1.3623 C.3     1  UNL1       -0.0211
     22 C           0.9867    0.4910    0.1421 C.3     1  UNL1       -0.0164
     23 C           1.5638   -1.0211   -1.7724 C.3     1  UNL1       -0.0425
     24 H          -3.2292    0.7512   -1.5650 H       1  UNL1        0.0659
     25 H          -4.4919    2.6863   -0.2211 H       1  UNL1        0.0296
     26 H          -5.2423    1.1157   -0.5324 H       1  UNL1        0.0296
     27 H          -5.5275    1.1864    1.8180 H       1  UNL1        0.0320
     28 H          -3.6254    1.3278    3.4559 H       1  UNL1        0.0286
     29 H          -2.4758    2.0207    2.1956 H       1  UNL1        0.0286
     30 H          -3.8878   -0.8035    2.0257 H       1  UNL1        0.0504
     31 H          -0.8011   -2.0372   -1.3178 H       1  UNL1        0.0560
     32 H          -1.4641   -0.5473   -2.7461 H       1  UNL1        0.1189
     33 H          -0.3892    0.6506   -2.1016 H       1  UNL1        0.1189
     34 H           0.9791   -2.8836    0.0342 H       1  UNL1        0.0274
     35 H           0.7572   -1.7491    1.4720 H       1  UNL1        0.0274
     36 H           3.0136   -2.5619    1.4009 H       1  UNL1        0.0302
     37 H           3.5577   -2.7877   -1.0123 H       1  UNL1        0.0271
     38 H           4.5666   -1.4685   -0.2361 H       1  UNL1        0.0271
     39 H           3.5529   -0.8034   -2.4619 H       1  UNL1        0.0302
     40 H           4.2120    0.9196   -0.8174 H       1  UNL1        0.0296
     41 H           2.5952    1.2932   -1.6066 H       1  UNL1        0.0296
     42 H           2.8342    2.6013    0.2552 H       1  UNL1        0.2102
     43 H           2.2504   -0.3503    2.2523 H       1  UNL1        0.0296
     44 H           3.9420   -0.2661    1.7293 H       1  UNL1        0.0296
     45 H           0.6103    1.3159   -0.4641 H       1  UNL1        0.0299
     46 H           0.4978    0.4270    1.1567 H       1  UNL1        0.0299
     47 H           1.4535   -2.1087   -2.0524 H       1  UNL1        0.0274
     48 H           1.2614   -0.4073   -2.6146 H       1  UNL1        0.0274
@<TRIPOS>BOND
     1     1     2    3
     2     2     3    1
     3     3     4    1
     4     4     5    1
     5     5     6    1
     6     6     7    1
     7     7     8    1
     8     8     9   am
     9     9    10    2
    10     9    11    1
    11    11    12    1
    12    11    13    1
    13    13    14    1
    14    14    15    1
    15    15    16    1
    16    16    17    1
    17    17    18    1
    18    18    19    1
    19    19    20    1
    20    19    21    1
    21    19    22    1
    22    17    23    1
    23     8     3    1
    24    22    13    1
    25     7     5    1
    26    23    13    1
    27    21    15    1
    28     3    24    1
    29     4    25    1
    30     4    26    1
    31     5    27    1
    32     6    28    1
    33     6    29    1
    34     7    30    1
    35    11    31    1
    36    12    32    1
    37    12    33    1
    38    14    34    1
    39    14    35    1
    40    15    36    1
    41    16    37    1
    42    16    38    1
    43    17    39    1
    44    18    40    1
    45    18    41    1
    46    20    42    1
    47    21    43    1
    48    21    44    1
    49    22    45    1
    50    22    46    1
    51    23    47    1
    52    23    48    1
