@<TRIPOS>MOLECULE
*****
 44 43 0 0 0
SMALL
GASTEIGER

@<TRIPOS>ATOM
      1 C           0.8705   -0.1875   -0.1166 C.3     1  UNL1        0.0815
      2 N           1.6095    0.9960   -0.5557 N.3     1  UNL1       -0.3199
      3 C           0.9741   -0.3959    1.3450 C.3     1  UNL1       -0.0263
      4 C           2.3121   -0.6035    1.9309 C.3     1  UNL1       -0.0204
      5 C           3.1069   -1.7688    1.4912 C.3     1  UNL1        0.0649
      6 N           3.4232   -1.7860    0.0878 N.pl3   1  UNL1       -0.2715
      7 C           4.3284   -0.7938   -0.3701 C.cat   1  UNL1        0.4399
      8 N           5.1581   -0.1205    0.3428 N.pl3   1  UNL1       -0.1250
      9 N           4.3950   -0.4369   -1.7663 N.pl3   1  UNL1        0.0247
     10 N           4.9462    0.7027   -2.3509 N.pl3   1  UNL1        0.2321
     11 O           6.1403    0.9464   -3.0034 O.co2   1  UNL1       -0.5417
     12 O           4.5896    1.8909   -2.5033 O.2     1  UNL1        0.0837
     13 C          -0.5944    0.0220   -0.4460 C.2     1  UNL1        0.2006
     14 O          -0.7629    0.1980   -1.8279 O.2     1  UNL1       -0.4946
     15 N          -1.4635    0.0211    0.4653 N.2     1  UNL1       -0.2405
     16 C          -2.8666    0.1871    0.4559 C.3     1  UNL1        0.1299
     17 C          -3.3430    1.5482    0.0265 C.3     1  UNL1       -0.0094
     18 C          -4.8215    1.7287    0.0340 C.3     1  UNL1       -0.0045
     19 N          -5.4068    1.5302    1.3512 N.3     1  UNL1       -0.3299
     20 C          -3.4055   -0.8672   -0.4886 C.2     1  UNL1        0.2051
     21 O          -3.0199   -2.0980    0.0742 O.2     1  UNL1       -0.4943
     22 N          -4.0671   -1.1049   -1.5893 N.2     1  UNL1       -0.2693
     23 H           1.1507   -1.0743   -0.7104 H       1  UNL1        0.0555
     24 H           1.7272    1.5856    0.3093 H       1  UNL1        0.1189
     25 H           1.0489    1.4529   -1.2979 H       1  UNL1        0.1189
     26 H           0.2524   -1.2275    1.6058 H       1  UNL1        0.0286
     27 H           0.5652    0.5443    1.8282 H       1  UNL1        0.0286
     28 H           2.1662   -0.6750    3.0502 H       1  UNL1        0.0296
     29 H           2.9375    0.3232    1.8180 H       1  UNL1        0.0296
     30 H           2.6239   -2.7157    1.8159 H       1  UNL1        0.0655
     31 H           4.1100   -1.7171    2.0120 H       1  UNL1        0.0655
     32 H           3.0988   -2.4234   -0.6800 H       1  UNL1        0.2580
     33 H           5.2955   -0.1983    1.3684 H       1  UNL1        0.3064
     34 H           3.9879   -1.0846   -2.4973 H       1  UNL1        0.3477
     35 H          -1.7070    0.2235   -2.1883 H       1  UNL1        0.2934
     36 H          -3.3476   -0.0002    1.4439 H       1  UNL1        0.0643
     37 H          -2.9798    1.8233   -0.9867 H       1  UNL1        0.0303
     38 H          -2.9039    2.3163    0.7067 H       1  UNL1        0.0303
     39 H          -5.3661    1.1518   -0.7068 H       1  UNL1        0.0423
     40 H          -5.0111    2.8086   -0.2200 H       1  UNL1        0.0423
     41 H          -5.7590    0.5326    1.3611 H       1  UNL1        0.1182
     42 H          -6.2358    2.1558    1.4583 H       1  UNL1        0.1182
     43 H          -3.2844   -2.9921   -0.3085 H       1  UNL1        0.2935
     44 H          -4.4724   -0.4178   -2.2180 H       1  UNL1        0.1896
@<TRIPOS>UNITY_ATOM_ATTR
10 1
charge 1
11 1
charge -1
@<TRIPOS>BOND
     1     1     2    1
     2     1     3    1
     3     3     4    1
     4     4     5    1
     5     5     6    1
     6     6     7    1
     7     7     8    2
     8     7     9    1
     9     9    10    1
    10    10    11    1
    11    10    12    2
    12     1    13    1
    13    13    14    1
    14    13    15    2
    15    15    16    1
    16    16    17    1
    17    17    18    1
    18    18    19    1
    19    16    20    1
    20    20    21    1
    21    20    22    2
    22     1    23    1
    23     2    24    1
    24     2    25    1
    25     3    26    1
    26     3    27    1
    27     4    28    1
    28     4    29    1
    29     5    30    1
    30     5    31    1
    31     6    32    1
    32     8    33    1
    33     9    34    1
    34    14    35    1
    35    16    36    1
    36    17    37    1
    37    17    38    1
    38    18    39    1
    39    18    40    1
    40    19    41    1
    41    19    42    1
    42    21    43    1
    43    22    44    1
