@<TRIPOS>MOLECULE
*****
 63 67 0 0 0
SMALL
GASTEIGER

@<TRIPOS>ATOM
      1 C          -5.6442   -1.6899    2.2169 C.3     1  UNL1       -0.0464
      2 C          -5.8587   -0.2503    1.8351 C.3     1  UNL1        0.0236
      3 C          -7.0530   -0.2301    0.8991 C.3     1  UNL1       -0.0329
      4 C          -6.6019    0.4261   -0.3708 C.3     1  UNL1       -0.0329
      5 C          -5.3160    1.1150    0.0302 C.3     1  UNL1        0.0236
      6 C          -5.6634    2.4490    0.6942 C.3     1  UNL1       -0.0464
      7 N          -4.7459    0.2635    1.0205 N.am    1  UNL1       -0.2948
      8 C          -3.4088   -0.1048    1.2687 C.2     1  UNL1        0.2329
      9 O          -3.0760   -0.7760    2.2580 O.2     1  UNL1       -0.2740
     10 C          -2.3479    0.2990    0.3319 C.3     1  UNL1        0.1054
     11 C          -2.3248   -0.5496   -0.9938 C.3     1  UNL1       -0.0220
     12 C          -1.1984   -0.5215   -0.0345 C.3     1  UNL1        0.0134
     13 C           0.0868    0.2658   -0.2656 C.3     1  UNL1        0.0935
     14 C           0.3764    1.0674    0.9435 C.3     1  UNL1       -0.0351
     15 C           1.1321   -0.7302   -0.6369 C.ar    1  UNL1        0.0158
     16 C           2.3868   -0.6562   -0.0438 C.ar    1  UNL1       -0.0463
     17 C           3.4648   -1.5076   -0.5011 C.ar    1  UNL1       -0.0217
     18 C           4.7857   -1.2422   -0.0450 C.2     1  UNL1       -0.0172
     19 C           5.6508   -1.6686    0.7477 C.2     1  UNL1        0.1492
     20 F           5.3389   -2.7620    1.5219 F       1  UNL1       -0.2032
     21 C           7.0492   -1.1104    0.7929 C.ar    1  UNL1        0.0990
     22 C           7.4344   -0.3400   -0.2780 C.ar    1  UNL1       -0.0322
     23 C           8.5472    0.4032   -0.3115 C.ar    1  UNL1       -0.0408
     24 C           9.3748    0.3934    0.8576 C.ar    1  UNL1        0.0699
     25 C          10.3273    1.3368    0.9149 C.1     1  UNL1        0.1007
     26 N          11.3040    2.2788    0.9578 N.1     1  UNL1       -0.1908
     27 C           8.9953   -0.3837    1.9074 C.ar    1  UNL1        0.0457
     28 N           7.8105   -1.1562    1.8827 N.ar    1  UNL1       -0.2514
     29 C           3.1638   -2.3325   -1.4891 C.ar    1  UNL1       -0.0518
     30 C           1.9566   -2.4850   -2.1354 C.ar    1  UNL1       -0.0255
     31 C           0.9414   -1.6773   -1.7007 C.ar    1  UNL1        0.1289
     32 F          -0.2844   -1.7440   -2.2716 F       1  UNL1       -0.2051
     33 N          -0.0627    1.1590   -1.4335 N.2     1  UNL1       -0.2521
     34 C          -0.9907    2.0292   -1.4812 C.2     1  UNL1        0.1485
     35 N          -1.1394    2.8834   -2.5653 N.pl3   1  UNL1       -0.3380
     36 S          -2.1386    2.0898   -0.0805 S.3     1  UNL1       -0.0746
     37 H          -5.1200   -2.1557    1.3321 H       1  UNL1        0.0248
     38 H          -5.0352   -1.7637    3.1446 H       1  UNL1        0.0248
     39 H          -6.6373   -2.1603    2.3380 H       1  UNL1        0.0248
     40 H          -5.9949    0.4241    2.6689 H       1  UNL1        0.0498
     41 H          -7.8583    0.3839    1.3931 H       1  UNL1        0.0284
     42 H          -7.5028   -1.2197    0.7108 H       1  UNL1        0.0284
     43 H          -7.2896    1.2476   -0.7130 H       1  UNL1        0.0284
     44 H          -6.4300   -0.3055   -1.2032 H       1  UNL1        0.0284
     45 H          -4.7303    1.2525   -0.9056 H       1  UNL1        0.0498
     46 H          -6.7525    2.5749    0.6683 H       1  UNL1        0.0248
     47 H          -5.3373    2.4698    1.7614 H       1  UNL1        0.0248
     48 H          -5.2372    3.3070    0.1022 H       1  UNL1        0.0248
     49 H          -2.2806   -0.0033   -1.9308 H       1  UNL1        0.0287
     50 H          -2.9438   -1.4821   -0.9631 H       1  UNL1        0.0287
     51 H          -1.0170   -1.4480    0.5906 H       1  UNL1        0.0346
     52 H          -0.5417    1.2609    1.5532 H       1  UNL1        0.0256
     53 H           0.8310    2.0835    0.7424 H       1  UNL1        0.0256
     54 H           1.0715    0.5993    1.6902 H       1  UNL1        0.0256
     55 H           2.5961    0.0062    0.7513 H       1  UNL1        0.0628
     56 H           5.1318   -0.1987   -0.5058 H       1  UNL1        0.0653
     57 H           6.8122   -0.3507   -1.1810 H       1  UNL1        0.0640
     58 H           8.9215    1.0051   -1.1727 H       1  UNL1        0.0631
     59 H           9.6079   -0.4189    2.7965 H       1  UNL1        0.0843
     60 H           4.0300   -2.9842   -1.8617 H       1  UNL1        0.0624
     61 H           1.8046   -3.1785   -2.9228 H       1  UNL1        0.0646
     62 H          -0.9660    3.9224   -2.3894 H       1  UNL1        0.1442
     63 H          -1.4042    2.5904   -3.5654 H       1  UNL1        0.1442
@<TRIPOS>BOND
     1     1     2    1
     2     2     3    1
     3     3     4    1
     4     4     5    1
     5     5     6    1
     6     5     7    1
     7     7     8   am
     8     8     9    2
     9    10     8    1
    10    10    11    1
    11    11    12    1
    12    12    13    1
    13    13    14    1
    14    13    15    1
    15    15    16   ar
    16    16    17   ar
    17    17    18    1
    18    18    19    2
    19    19    20    1
    20    19    21    1
    21    21    22   ar
    22    22    23   ar
    23    23    24   ar
    24    24    25    1
    25    25    26    3
    26    24    27   ar
    27    27    28   ar
    28    17    29   ar
    29    29    30   ar
    30    30    31   ar
    31    31    32    1
    32    13    33    1
    33    33    34    2
    34    34    35    1
    35    34    36    1
    36     7     2    1
    37    12    10    1
    38    31    15   ar
    39    36    10    1
    40    28    21   ar
    41     1    37    1
    42     1    38    1
    43     1    39    1
    44     2    40    1
    45     3    41    1
    46     3    42    1
    47     4    43    1
    48     4    44    1
    49     5    45    1
    50     6    46    1
    51     6    47    1
    52     6    48    1
    53    11    49    1
    54    11    50    1
    55    12    51    1
    56    14    52    1
    57    14    53    1
    58    14    54    1
    59    16    55    1
    60    18    56    1
    61    22    57    1
    62    23    58    1
    63    27    59    1
    64    29    60    1
    65    30    61    1
    66    35    62    1
    67    35    63    1
