@<TRIPOS>MOLECULE
*****
 64 68 0 0 0
SMALL
GASTEIGER

@<TRIPOS>ATOM
      1 C          10.0640    0.4976   -1.6085 C.3     1  UNL1        0.0124
      2 C           9.0466   -0.2929   -0.8835 C.2     1  UNL1        0.2126
      3 O           9.1659   -1.5011   -0.6009 O.2     1  UNL1       -0.2759
      4 N           7.7989    0.2033   -0.4087 N.am    1  UNL1       -0.2987
      5 C           7.1677   -0.9370    0.2243 C.3     1  UNL1        0.0304
      6 C           5.8371   -0.6083    0.8598 C.3     1  UNL1        0.0280
      7 N           5.0173    0.2401   -0.0134 N.pl3   1  UNL1       -0.3269
      8 C           5.6723    1.0636   -0.9772 C.3     1  UNL1        0.0280
      9 C           7.0378    1.4375   -0.3824 C.3     1  UNL1        0.0304
     10 C           3.6060    0.2266    0.1176 C.ar    1  UNL1        0.0300
     11 C           2.7550    0.9513   -0.6905 C.ar    1  UNL1       -0.0372
     12 C           1.3794    0.9560   -0.5821 C.ar    1  UNL1       -0.0182
     13 C           0.7866    0.1869    0.3996 C.ar    1  UNL1        0.1207
     14 O          -0.5878    0.1723    0.5312 O.3     1  UNL1       -0.4893
     15 C          -1.2554   -0.5991    1.5219 C.3     1  UNL1        0.1179
     16 C          -2.7389   -0.3453    1.3370 C.3     1  UNL1        0.1195
     17 C          -3.0571    1.1178    1.2271 C.3     1  UNL1        0.0808
     18 O          -4.0612    1.2119    0.2520 O.3     1  UNL1       -0.3406
     19 C          -4.1859   -0.0951   -0.2432 C.3     1  UNL1        0.2169
     20 C          -4.5032   -0.0363   -1.7384 C.3     1  UNL1        0.0828
     21 N          -5.7431    0.6748   -1.9197 N.ar    1  UNL1       -0.3313
     22 C          -6.9946    0.1791   -1.9480 C.ar    1  UNL1        0.0242
     23 C          -7.9282    1.1783   -2.1435 C.ar    1  UNL1        0.0454
     24 N          -7.2263    2.3209   -2.2377 N.ar    1  UNL1       -0.2441
     25 C          -5.9221    2.0093   -2.1028 C.ar    1  UNL1        0.0961
     26 O          -3.0272   -0.7718    0.0265 O.3     1  UNL1       -0.3343
     27 C          -5.3066   -0.7449    0.4805 C.ar    1  UNL1        0.0313
     28 C          -6.0327   -0.0351    1.4203 C.ar    1  UNL1       -0.0507
     29 C          -7.1010   -0.4846    2.1588 C.ar    1  UNL1       -0.0429
     30 C          -7.5008   -1.7838    1.9474 C.ar    1  UNL1        0.0424
     31 CL         -8.8465   -2.4815    2.8207 Cl      1  UNL1       -0.0835
     32 C          -6.8293   -2.5555    1.0291 C.ar    1  UNL1       -0.0246
     33 C          -5.7704   -2.0329    0.3307 C.ar    1  UNL1        0.0507
     34 CL         -4.9577   -3.0767   -0.7932 Cl      1  UNL1       -0.0830
     35 C           1.5815   -0.5627    1.2427 C.ar    1  UNL1       -0.0182
     36 C           2.9597   -0.5219    1.0789 C.ar    1  UNL1       -0.0372
     37 H          11.0286    0.3306   -1.0736 H       1  UNL1        0.0323
     38 H           9.8137    1.5624   -1.5500 H       1  UNL1        0.0323
     39 H          10.0781    0.1297   -2.6583 H       1  UNL1        0.0323
     40 H           6.9587   -1.7044   -0.5621 H       1  UNL1        0.0480
     41 H           7.7861   -1.3982    1.0216 H       1  UNL1        0.0480
     42 H           5.3016   -1.5742    0.9709 H       1  UNL1        0.0479
     43 H           5.9313   -0.0694    1.8208 H       1  UNL1        0.0479
     44 H           5.9035    0.4863   -1.8803 H       1  UNL1        0.0479
     45 H           5.1238    1.9684   -1.2923 H       1  UNL1        0.0479
     46 H           7.5260    2.2590   -0.9359 H       1  UNL1        0.0480
     47 H           6.8196    1.7040    0.6727 H       1  UNL1        0.0480
     48 H           3.1434    1.5659   -1.4687 H       1  UNL1        0.0637
     49 H           0.7433    1.5372   -1.2342 H       1  UNL1        0.0655
     50 H          -1.0454   -1.6598    1.2662 H       1  UNL1        0.0723
     51 H          -0.8956   -0.3505    2.5428 H       1  UNL1        0.0723
     52 H          -3.3497   -0.8528    2.1006 H       1  UNL1        0.0654
     53 H          -2.2080    1.7268    0.8742 H       1  UNL1        0.0588
     54 H          -3.4782    1.5101    2.1902 H       1  UNL1        0.0588
     55 H          -4.5075   -1.0510   -2.1236 H       1  UNL1        0.0549
     56 H          -3.6490    0.4853   -2.2431 H       1  UNL1        0.0549
     57 H          -7.2905   -0.8523   -1.8382 H       1  UNL1        0.0825
     58 H          -9.0033    1.0578   -2.2067 H       1  UNL1        0.0845
     59 H          -5.1095    2.7475   -2.1374 H       1  UNL1        0.1029
     60 H          -5.7534    1.0027    1.6238 H       1  UNL1        0.0623
     61 H          -7.6098    0.1353    2.8703 H       1  UNL1        0.0632
     62 H          -7.1463   -3.5783    0.8646 H       1  UNL1        0.0647
     63 H           1.0960   -1.1490    1.9938 H       1  UNL1        0.0655
     64 H           3.4928   -1.1297    1.7731 H       1  UNL1        0.0637
@<TRIPOS>BOND
     1     1     2    1
     2     2     3    2
     3     2     4   am
     4     4     5    1
     5     5     6    1
     6     6     7    1
     7     7     8    1
     8     8     9    1
     9     7    10    1
    10    10    11   ar
    11    11    12   ar
    12    12    13   ar
    13    13    14    1
    14    14    15    1
    15    15    16    1
    16    16    17    1
    17    17    18    1
    18    18    19    1
    19    19    20    1
    20    20    21    1
    21    21    22   ar
    22    22    23   ar
    23    23    24   ar
    24    24    25   ar
    25    19    26    1
    26    19    27    1
    27    27    28   ar
    28    28    29   ar
    29    29    30   ar
    30    30    31    1
    31    30    32   ar
    32    32    33   ar
    33    33    34    1
    34    13    35   ar
    35    35    36   ar
    36     9     4    1
    37    36    10   ar
    38    26    16    1
    39    33    27   ar
    40    25    21   ar
    41     1    37    1
    42     1    38    1
    43     1    39    1
    44     5    40    1
    45     5    41    1
    46     6    42    1
    47     6    43    1
    48     8    44    1
    49     8    45    1
    50     9    46    1
    51     9    47    1
    52    11    48    1
    53    12    49    1
    54    15    50    1
    55    15    51    1
    56    16    52    1
    57    17    53    1
    58    17    54    1
    59    20    55    1
    60    20    56    1
    61    22    57    1
    62    23    58    1
    63    25    59    1
    64    28    60    1
    65    29    61    1
    66    32    62    1
    67    35    63    1
    68    36    64    1
