
     RDKit          3D

 50 52  0  0  0  0  0  0  0  0999 V2000
   -5.3844    0.5594   -1.2500 C   0  0  0  0  0  0  0  0  0  0  0  0
   -5.1087   -0.7002   -0.7320 N   0  0  0  0  0  0  0  0  0  0  0  0
   -6.2176   -1.2109    0.0222 C   0  0  0  0  0  0  0  0  0  0  0  0
   -3.8398   -1.0552   -0.2461 C   0  0  1  0  0  0  0  0  0  0  0  0
   -2.6901   -1.0942   -1.1672 C   0  0  0  0  0  0  0  0  0  0  0  0
   -2.0296    0.2325   -1.3947 C   0  0  0  0  0  0  0  0  0  0  0  0
   -1.4357    0.6928   -0.0911 C   0  0  2  0  0  0  0  0  0  0  0  0
    0.0177    0.4307   -0.0460 N   0  0  0  0  0  0  0  0  0  0  0  0
    0.7453    0.5853    1.0693 C   0  0  0  0  0  0  0  0  0  0  0  0
    2.0873    0.2413    0.8066 C   0  0  0  0  0  0  0  0  0  0  0  0
    3.1059    0.2285    1.8404 C   0  0  0  0  0  0  0  0  0  0  0  0
    2.8381    0.8168    3.1154 N   0  0  0  0  0  0  0  0  0  0  0  0
    4.2156   -0.2725    1.6773 O   0  0  0  0  0  0  0  0  0  0  0  0
    2.1054   -0.1179   -0.5176 C   0  0  0  0  0  0  0  0  0  0  0  0
    3.2163   -0.4912   -1.2867 N   0  0  0  0  0  0  0  0  0  0  0  0
    4.5728   -0.2362   -1.1038 C   0  0  0  0  0  0  0  0  0  0  0  0
    5.0400    1.0524   -0.9530 C   0  0  0  0  0  0  0  0  0  0  0  0
    6.3828    1.2825   -0.7698 C   0  0  0  0  0  0  0  0  0  0  0  0
    7.2857    0.2532   -0.7324 C   0  0  0  0  0  0  0  0  0  0  0  0
    9.0027    0.6187   -0.4882 Cl  0  0  0  0  0  0  0  0  0  0  0  0
    6.8177   -1.0347   -0.8845 C   0  0  0  0  0  0  0  0  0  0  0  0
    5.4846   -1.2864   -1.0676 C   0  0  0  0  0  0  0  0  0  0  0  0
    0.8175    0.0190   -0.9755 N   0  0  0  0  0  0  0  0  0  0  0  0
   -2.1014    0.1563    1.1297 C   0  0  1  0  0  0  0  0  0  0  0  0
   -2.0627    1.1899    2.1906 C   0  0  0  0  0  0  0  0  0  0  0  0
   -2.0259    1.9892    3.0387 N   0  0  0  0  0  0  0  0  0  0  0  0
   -3.5344   -0.2417    0.9724 C   0  0  0  0  0  0  0  0  0  0  0  0
   -5.3038    0.6965   -2.3437 H   0  0  0  0  0  0  0  0  0  0  0  0
   -4.8378    1.4016   -0.7568 H   0  0  0  0  0  0  0  0  0  0  0  0
   -6.4707    0.8178   -1.0354 H   0  0  0  0  0  0  0  0  0  0  0  0
   -5.9559   -1.4534    1.0735 H   0  0  0  0  0  0  0  0  0  0  0  0
   -6.5838   -2.1740   -0.4301 H   0  0  0  0  0  0  0  0  0  0  0  0
   -7.0346   -0.4620    0.0755 H   0  0  0  0  0  0  0  0  0  0  0  0
   -3.9517   -2.1284    0.1354 H   0  0  0  0  0  0  0  0  0  0  0  0
   -2.8727   -1.6524   -2.1101 H   0  0  0  0  0  0  0  0  0  0  0  0
   -1.8917   -1.7261   -0.6615 H   0  0  0  0  0  0  0  0  0  0  0  0
   -2.7303    1.0341   -1.7455 H   0  0  0  0  0  0  0  0  0  0  0  0
   -1.2070    0.0968   -2.1508 H   0  0  0  0  0  0  0  0  0  0  0  0
   -1.5184    1.8175   -0.0461 H   0  0  0  0  0  0  0  0  0  0  0  0
    0.3820    0.9171    2.0188 H   0  0  0  0  0  0  0  0  0  0  0  0
    3.4874    0.7335    3.9125 H   0  0  0  0  0  0  0  0  0  0  0  0
    1.9555    1.3530    3.2655 H   0  0  0  0  0  0  0  0  0  0  0  0
    2.9741   -1.0736   -2.1589 H   0  0  0  0  0  0  0  0  0  0  0  0
    4.3425    1.9108   -0.9789 H   0  0  0  0  0  0  0  0  0  0  0  0
    6.7295    2.3176   -0.6533 H   0  0  0  0  0  0  0  0  0  0  0  0
    7.5516   -1.8566   -0.8535 H   0  0  0  0  0  0  0  0  0  0  0  0
    5.1371   -2.3105   -1.1845 H   0  0  0  0  0  0  0  0  0  0  0  0
   -1.5713   -0.7116    1.5792 H   0  0  0  0  0  0  0  0  0  0  0  0
   -3.7955   -0.8152    1.9134 H   0  0  0  0  0  0  0  0  0  0  0  0
   -4.1396    0.6903    0.9790 H   0  0  0  0  0  0  0  0  0  0  0  0
  1  2  1  0
  2  3  1  0
  2  4  1  0
  4  5  1  0
  5  6  1  0
  6  7  1  0
  7  8  1  0
  8  9  1  0
  9 10  2  0
 10 11  1  0
 11 12  1  0
 11 13  2  0
 10 14  1  0
 14 15  1  0
 15 16  1  0
 16 17  2  0
 17 18  1  0
 18 19  2  0
 19 20  1  0
 19 21  1  0
 21 22  2  0
 14 23  2  0
  7 24  1  0
 24 25  1  0
 25 26  3  0
 24 27  1  0
 27  4  1  0
 23  8  1  0
 22 16  1  0
  1 28  1  0
  1 29  1  0
  1 30  1  0
  3 31  1  0
  3 32  1  0
  3 33  1  0
  4 34  1  1
  5 35  1  0
  5 36  1  0
  6 37  1  0
  6 38  1  0
  7 39  1  1
  9 40  1  0
 12 41  1  0
 12 42  1  0
 15 43  1  0
 17 44  1  0
 18 45  1  0
 21 46  1  0
 22 47  1  0
 24 48  1  1
 27 49  1  0
 27 50  1  0
M  END
$$$$
