@<TRIPOS>MOLECULE
*****
 50 52 0 0 0
SMALL
GASTEIGER

@<TRIPOS>ATOM
      1 C          -5.3844    0.5594   -1.2500 C.3     1  UNL1       -0.0128
      2 N          -5.1087   -0.7002   -0.7320 N.3     1  UNL1       -0.3054
      3 C          -6.2176   -1.2109    0.0222 C.3     1  UNL1       -0.0128
      4 C          -3.8398   -1.0552   -0.2461 C.3     1  UNL1        0.0111
      5 C          -2.6901   -1.0942   -1.1672 C.3     1  UNL1       -0.0354
      6 C          -2.0296    0.2325   -1.3947 C.3     1  UNL1       -0.0279
      7 C          -1.4357    0.6928   -0.0911 C.3     1  UNL1        0.0684
      8 N           0.0177    0.4307   -0.0460 N.ar    1  UNL1       -0.2646
      9 C           0.7453    0.5853    1.0693 C.ar    1  UNL1        0.0399
     10 C           2.0873    0.2413    0.8066 C.ar    1  UNL1        0.0957
     11 C           3.1059    0.2285    1.8404 C.2     1  UNL1        0.2464
     12 N           2.8381    0.8168    3.1154 N.am    1  UNL1       -0.3252
     13 O           4.2156   -0.2725    1.6773 O.2     1  UNL1       -0.2702
     14 C           2.1054   -0.1179   -0.5176 C.ar    1  UNL1        0.1570
     15 N           3.2163   -0.4912   -1.2867 N.pl3   1  UNL1       -0.2974
     16 C           4.5728   -0.2362   -1.1038 C.ar    1  UNL1        0.0325
     17 C           5.0400    1.0524   -0.9530 C.ar    1  UNL1       -0.0391
     18 C           6.3828    1.2825   -0.7698 C.ar    1  UNL1       -0.0416
     19 C           7.2857    0.2532   -0.7324 C.ar    1  UNL1        0.0411
     20 CL          9.0027    0.6187   -0.4882 Cl      1  UNL1       -0.0835
     21 C           6.8177   -1.0347   -0.8845 C.ar    1  UNL1       -0.0416
     22 C           5.4846   -1.2864   -1.0676 C.ar    1  UNL1       -0.0391
     23 N           0.8175    0.0190   -0.9755 N.ar    1  UNL1       -0.1549
     24 C          -2.1014    0.1563    1.1297 C.3     1  UNL1        0.0699
     25 C          -2.0627    1.1899    2.1906 C.1     1  UNL1        0.0680
     26 N          -2.0259    1.9892    3.0387 N.1     1  UNL1       -0.1962
     27 C          -3.5344   -0.2417    0.9724 C.3     1  UNL1       -0.0197
     28 H          -5.3038    0.6965   -2.3437 H       1  UNL1        0.0391
     29 H          -4.8378    1.4016   -0.7568 H       1  UNL1        0.0391
     30 H          -6.4707    0.8178   -1.0354 H       1  UNL1        0.0391
     31 H          -5.9559   -1.4534    1.0735 H       1  UNL1        0.0391
     32 H          -6.5838   -2.1740   -0.4301 H       1  UNL1        0.0391
     33 H          -7.0346   -0.4620    0.0755 H       1  UNL1        0.0391
     34 H          -3.9517   -2.1284    0.1354 H       1  UNL1        0.0463
     35 H          -2.8727   -1.6524   -2.1101 H       1  UNL1        0.0281
     36 H          -1.8917   -1.7261   -0.6615 H       1  UNL1        0.0281
     37 H          -2.7303    1.0341   -1.7455 H       1  UNL1        0.0287
     38 H          -1.2070    0.0968   -2.1508 H       1  UNL1        0.0287
     39 H          -1.5184    1.8175   -0.0461 H       1  UNL1        0.0557
     40 H           0.3820    0.9171    2.0188 H       1  UNL1        0.0835
     41 H           3.4874    0.7335    3.9125 H       1  UNL1        0.1453
     42 H           1.9555    1.3530    3.2655 H       1  UNL1        0.1453
     43 H           2.9741   -1.0736   -2.1589 H       1  UNL1        0.1536
     44 H           4.3425    1.9108   -0.9789 H       1  UNL1        0.0636
     45 H           6.7295    2.3176   -0.6533 H       1  UNL1        0.0633
     46 H           7.5516   -1.8566   -0.8535 H       1  UNL1        0.0633
     47 H           5.1371   -2.3105   -1.1845 H       1  UNL1        0.0636
     48 H          -1.5713   -0.7116    1.5792 H       1  UNL1        0.0475
     49 H          -3.7955   -0.8152    1.9134 H       1  UNL1        0.0293
     50 H          -4.1396    0.6903    0.9790 H       1  UNL1        0.0293
@<TRIPOS>BOND
     1     1     2    1
     2     2     3    1
     3     2     4    1
     4     4     5    1
     5     5     6    1
     6     6     7    1
     7     7     8    1
     8     8     9   ar
     9     9    10   ar
    10    10    11    1
    11    11    12   am
    12    11    13    2
    13    10    14   ar
    14    14    15    1
    15    15    16    1
    16    16    17   ar
    17    17    18   ar
    18    18    19   ar
    19    19    20    1
    20    19    21   ar
    21    21    22   ar
    22    14    23   ar
    23     7    24    1
    24    24    25    1
    25    25    26    3
    26    24    27    1
    27    27     4    1
    28    23     8   ar
    29    22    16   ar
    30     1    28    1
    31     1    29    1
    32     1    30    1
    33     3    31    1
    34     3    32    1
    35     3    33    1
    36     4    34    1
    37     5    35    1
    38     5    36    1
    39     6    37    1
    40     6    38    1
    41     7    39    1
    42     9    40    1
    43    12    41    1
    44    12    42    1
    45    15    43    1
    46    17    44    1
    47    18    45    1
    48    21    46    1
    49    22    47    1
    50    24    48    1
    51    27    49    1
    52    27    50    1
