@<TRIPOS>MOLECULE
*****
 67 68 0 0 0
SMALL
GASTEIGER

@<TRIPOS>ATOM
      1 C           3.8627    0.0285    1.5975 C.3     1  UNL1       -0.0497
      2 C           2.7087   -0.8760    1.1848 C.3     1  UNL1        0.0050
      3 C           3.0855   -2.3042    1.3998 C.3     1  UNL1       -0.0497
      4 N           2.3284   -0.5148   -0.1690 N.3     1  UNL1       -0.2975
      5 C           1.2148   -1.2645   -0.6347 C.3     1  UNL1        0.0003
      6 C          -0.0786   -0.9035    0.0583 C.3     1  UNL1       -0.0292
      7 C          -0.4689    0.4881   -0.2073 C.3     1  UNL1        0.0139
      8 C           0.4886    1.5383    0.2325 C.ar    1  UNL1       -0.0398
      9 C           1.1537    2.3028   -0.7033 C.ar    1  UNL1       -0.0580
     10 C           2.0263    3.3202   -0.3957 C.ar    1  UNL1       -0.0615
     11 C           2.2824    3.6303    0.9203 C.ar    1  UNL1       -0.0617
     12 C           1.6435    2.8964    1.8938 C.ar    1  UNL1       -0.0615
     13 C           0.7834    1.8929    1.5134 C.ar    1  UNL1       -0.0580
     14 C          -1.8419    0.8940    0.2003 C.ar    1  UNL1        0.0027
     15 C          -2.9875    0.1920    0.4509 C.ar    1  UNL1        0.1354
     16 O          -2.9420   -1.1690    0.2656 O.3     1  UNL1       -0.4254
     17 C          -3.5760   -1.8003   -0.8028 C.2     1  UNL1        0.3149
     18 O          -4.1677   -0.9279   -1.5260 O.2     1  UNL1       -0.2501
     19 C          -3.6610   -3.2271   -1.1973 C.3     1  UNL1        0.0512
     20 C          -2.2981   -3.8184   -1.4854 C.3     1  UNL1       -0.0525
     21 C          -4.2722   -4.0945   -0.1135 C.3     1  UNL1       -0.0525
     22 C          -4.1778    0.7366    0.8668 C.ar    1  UNL1       -0.0186
     23 C          -4.2623    2.0759    1.0534 C.ar    1  UNL1       -0.0529
     24 C          -3.1690    2.8725    0.8281 C.ar    1  UNL1       -0.0217
     25 C          -3.2672    4.3391    1.0356 C.3     1  UNL1        0.0692
     26 O          -3.6591    4.9828   -0.1134 O.3     1  UNL1       -0.3904
     27 C          -2.0186    2.2722    0.4177 C.ar    1  UNL1       -0.0491
     28 C           3.4441   -0.4298   -1.0613 C.3     1  UNL1        0.0050
     29 C           3.1785    0.2203   -2.3920 C.3     1  UNL1       -0.0497
     30 C           4.0328   -1.8154   -1.3693 C.3     1  UNL1       -0.0497
     31 H           3.7609    1.0516    1.1825 H       1  UNL1        0.0245
     32 H           3.8146    0.1330    2.7074 H       1  UNL1        0.0245
     33 H           4.8368   -0.3787    1.2760 H       1  UNL1        0.0245
     34 H           1.8785   -0.6386    1.8539 H       1  UNL1        0.0457
     35 H           2.3664   -3.0400    0.9879 H       1  UNL1        0.0245
     36 H           3.0784   -2.4562    2.5374 H       1  UNL1        0.0245
     37 H           4.1075   -2.5842    1.1218 H       1  UNL1        0.0245
     38 H           1.3767   -2.3701   -0.5989 H       1  UNL1        0.0427
     39 H           1.0339   -0.9941   -1.7160 H       1  UNL1        0.0427
     40 H          -0.8157   -1.6382   -0.3017 H       1  UNL1        0.0287
     41 H           0.0742   -1.1609    1.1271 H       1  UNL1        0.0287
     42 H          -0.4980    0.5770   -1.3461 H       1  UNL1        0.0399
     43 H           1.0058    2.1192   -1.7804 H       1  UNL1        0.0620
     44 H           2.5176    3.8831   -1.1860 H       1  UNL1        0.0618
     45 H           2.9628    4.4247    1.1908 H       1  UNL1        0.0618
     46 H           1.8176    3.1101    2.9396 H       1  UNL1        0.0618
     47 H           0.2958    1.3328    2.3031 H       1  UNL1        0.0620
     48 H          -4.3002   -3.3438   -2.0744 H       1  UNL1        0.0408
     49 H          -1.7017   -4.0249   -0.5741 H       1  UNL1        0.0237
     50 H          -1.6841   -3.1399   -2.1289 H       1  UNL1        0.0237
     51 H          -2.4024   -4.7747   -2.0357 H       1  UNL1        0.0237
     52 H          -4.3791   -5.1135   -0.5411 H       1  UNL1        0.0237
     53 H          -5.2453   -3.6434    0.1553 H       1  UNL1        0.0237
     54 H          -3.6204   -4.0731    0.7784 H       1  UNL1        0.0237
     55 H          -5.0171    0.0959    1.0363 H       1  UNL1        0.0654
     56 H          -5.2016    2.4897    1.3795 H       1  UNL1        0.0622
     57 H          -3.9020    4.6067    1.9115 H       1  UNL1        0.0607
     58 H          -2.2339    4.7025    1.2672 H       1  UNL1        0.0607
     59 H          -4.5590    5.3781   -0.0944 H       1  UNL1        0.2098
     60 H          -1.1794    2.9646    0.2550 H       1  UNL1        0.0625
     61 H           4.2505    0.1959   -0.5811 H       1  UNL1        0.0457
     62 H           3.3532    1.3393   -2.3118 H       1  UNL1        0.0245
     63 H           2.2228   -0.0039   -2.8670 H       1  UNL1        0.0245
     64 H           4.0038   -0.1321   -3.0793 H       1  UNL1        0.0245
     65 H           3.3565   -2.6347   -1.1262 H       1  UNL1        0.0245
     66 H           5.0414   -1.8922   -0.9254 H       1  UNL1        0.0245
     67 H           4.1988   -1.9047   -2.4899 H       1  UNL1        0.0245
@<TRIPOS>BOND
     1     1     2    1
     2     2     3    1
     3     2     4    1
     4     4     5    1
     5     5     6    1
     6     6     7    1
     7     7     8    1
     8     8     9   ar
     9     9    10   ar
    10    10    11   ar
    11    11    12   ar
    12    12    13   ar
    13     7    14    1
    14    14    15   ar
    15    15    16    1
    16    16    17    1
    17    17    18    2
    18    17    19    1
    19    19    20    1
    20    19    21    1
    21    15    22   ar
    22    22    23   ar
    23    23    24   ar
    24    24    25    1
    25    25    26    1
    26    24    27   ar
    27     4    28    1
    28    28    29    1
    29    28    30    1
    30    13     8   ar
    31    27    14   ar
    32     1    31    1
    33     1    32    1
    34     1    33    1
    35     2    34    1
    36     3    35    1
    37     3    36    1
    38     3    37    1
    39     5    38    1
    40     5    39    1
    41     6    40    1
    42     6    41    1
    43     7    42    1
    44     9    43    1
    45    10    44    1
    46    11    45    1
    47    12    46    1
    48    13    47    1
    49    19    48    1
    50    20    49    1
    51    20    50    1
    52    20    51    1
    53    21    52    1
    54    21    53    1
    55    21    54    1
    56    22    55    1
    57    23    56    1
    58    25    57    1
    59    25    58    1
    60    26    59    1
    61    27    60    1
    62    28    61    1
    63    29    62    1
    64    29    63    1
    65    29    64    1
    66    30    65    1
    67    30    66    1
    68    30    67    1
