@<TRIPOS>MOLECULE
*****
 40 43 0 0 0
SMALL
GASTEIGER

@<TRIPOS>ATOM
      1 O          -0.8914    4.3145    0.3778 O.2     1  UNL1       -0.2677
      2 C          -0.9107    3.0526    0.5455 C.ar    1  UNL1        0.2533
      3 C          -1.9252    2.3133   -0.0557 C.ar    1  UNL1        0.0427
      4 C          -1.9600    0.9448    0.1166 C.ar    1  UNL1        0.1285
      5 N          -2.9810    0.1370   -0.4794 N.pl3   1  UNL1       -0.3106
      6 C          -2.9670   -1.2963   -0.2620 C.3     1  UNL1        0.0370
      7 C          -3.6181   -1.9148   -1.5057 C.3     1  UNL1        0.0634
      8 O          -4.9265   -1.5294   -1.6598 O.3     1  UNL1       -0.3767
      9 C          -5.2207   -0.2785   -1.1630 C.3     1  UNL1        0.0634
     10 C          -4.0318    0.6839   -1.2924 C.3     1  UNL1        0.0370
     11 N          -0.9924    0.3969    0.8699 N.ar    1  UNL1       -0.2186
     12 C          -0.0101    1.1099    1.4524 C.ar    1  UNL1        0.1191
     13 C           0.9829    0.3522    2.2534 C.3     1  UNL1        0.0637
     14 C           2.1324   -0.0880    1.4258 C.ar    1  UNL1        0.1155
     15 N           2.2158   -1.2529    0.7572 N.ar    1  UNL1       -0.2321
     16 C           3.3946   -1.3200    0.1148 C.ar    1  UNL1        0.0893
     17 C           3.9823   -2.2665   -0.6959 C.ar    1  UNL1       -0.0315
     18 C           5.2357   -2.0494   -1.2240 C.ar    1  UNL1       -0.0243
     19 C           5.9216   -0.8867   -0.9522 C.ar    1  UNL1        0.1255
     20 F           7.1599   -0.6411   -1.4571 F       1  UNL1       -0.2054
     21 C           5.3300    0.0552   -0.1419 C.ar    1  UNL1       -0.0010
     22 C           4.0694   -0.1650    0.3882 C.ar    1  UNL1        0.0690
     23 N           3.2762    0.5721    1.1922 N.ar    1  UNL1       -0.3414
     24 N           0.0252    2.4327    1.2871 N.ar    1  UNL1       -0.3104
     25 H          -2.6765    2.8092   -0.6508 H       1  UNL1        0.0706
     26 H          -3.5370   -1.5845    0.6444 H       1  UNL1        0.0487
     27 H          -1.9591   -1.7154   -0.1640 H       1  UNL1        0.0487
     28 H          -3.0411   -1.4820   -2.3676 H       1  UNL1        0.0575
     29 H          -3.4748   -2.9987   -1.5075 H       1  UNL1        0.0575
     30 H          -6.0918    0.1325   -1.7112 H       1  UNL1        0.0575
     31 H          -5.5307   -0.3058   -0.0872 H       1  UNL1        0.0575
     32 H          -4.3873    1.6707   -0.9079 H       1  UNL1        0.0487
     33 H          -3.7400    0.7276   -2.3639 H       1  UNL1        0.0487
     34 H           1.3674    1.0599    3.0236 H       1  UNL1        0.0422
     35 H           0.4659   -0.4658    2.7654 H       1  UNL1        0.0422
     36 H           3.4301   -3.1724   -0.8986 H       1  UNL1        0.0640
     37 H           5.6982   -2.7950   -1.8624 H       1  UNL1        0.0647
     38 H           5.8645    0.9687    0.0739 H       1  UNL1        0.0667
     39 H           3.5253    1.5155    1.5708 H       1  UNL1        0.1671
     40 H           0.7957    2.9589    1.7487 H       1  UNL1        0.1700
@<TRIPOS>BOND
     1     1     2    2
     2     2     3   ar
     3     3     4   ar
     4     4     5    1
     5     5     6    1
     6     6     7    1
     7     7     8    1
     8     8     9    1
     9     9    10    1
    10     4    11   ar
    11    11    12   ar
    12    12    13    1
    13    13    14    1
    14    14    15   ar
    15    15    16   ar
    16    16    17   ar
    17    17    18   ar
    18    18    19   ar
    19    19    20    1
    20    19    21   ar
    21    21    22   ar
    22    22    23   ar
    23    12    24   ar
    24    24     2   ar
    25    10     5    1
    26    23    14   ar
    27    22    16   ar
    28     3    25    1
    29     6    26    1
    30     6    27    1
    31     7    28    1
    32     7    29    1
    33     9    30    1
    34     9    31    1
    35    10    32    1
    36    10    33    1
    37    13    34    1
    38    13    35    1
    39    17    36    1
    40    18    37    1
    41    21    38    1
    42    23    39    1
    43    24    40    1
