
     RDKit          3D

 40 43  0  0  0  0  0  0  0  0999 V2000
   -0.8914    4.3145    0.3778 O   0  0  0  0  0  0  0  0  0  0  0  0
   -0.9107    3.0526    0.5455 C   0  0  0  0  0  0  0  0  0  0  0  0
   -1.9252    2.3133   -0.0557 C   0  0  0  0  0  0  0  0  0  0  0  0
   -1.9600    0.9448    0.1166 C   0  0  0  0  0  0  0  0  0  0  0  0
   -2.9810    0.1370   -0.4794 N   0  0  0  0  0  0  0  0  0  0  0  0
   -2.9670   -1.2963   -0.2620 C   0  0  0  0  0  0  0  0  0  0  0  0
   -3.6181   -1.9148   -1.5057 C   0  0  0  0  0  0  0  0  0  0  0  0
   -4.9265   -1.5294   -1.6598 O   0  0  0  0  0  0  0  0  0  0  0  0
   -5.2207   -0.2785   -1.1630 C   0  0  0  0  0  0  0  0  0  0  0  0
   -4.0318    0.6839   -1.2924 C   0  0  0  0  0  0  0  0  0  0  0  0
   -0.9924    0.3969    0.8699 N   0  0  0  0  0  0  0  0  0  0  0  0
   -0.0101    1.1099    1.4524 C   0  0  0  0  0  0  0  0  0  0  0  0
    0.9829    0.3522    2.2534 C   0  0  0  0  0  0  0  0  0  0  0  0
    2.1324   -0.0880    1.4258 C   0  0  0  0  0  0  0  0  0  0  0  0
    2.2158   -1.2529    0.7572 N   0  0  0  0  0  0  0  0  0  0  0  0
    3.3946   -1.3200    0.1148 C   0  0  0  0  0  0  0  0  0  0  0  0
    3.9823   -2.2665   -0.6959 C   0  0  0  0  0  0  0  0  0  0  0  0
    5.2357   -2.0494   -1.2240 C   0  0  0  0  0  0  0  0  0  0  0  0
    5.9216   -0.8867   -0.9522 C   0  0  0  0  0  0  0  0  0  0  0  0
    7.1599   -0.6411   -1.4571 F   0  0  0  0  0  0  0  0  0  0  0  0
    5.3300    0.0552   -0.1419 C   0  0  0  0  0  0  0  0  0  0  0  0
    4.0694   -0.1650    0.3882 C   0  0  0  0  0  0  0  0  0  0  0  0
    3.2762    0.5721    1.1922 N   0  0  0  0  0  0  0  0  0  0  0  0
    0.0252    2.4327    1.2871 N   0  0  0  0  0  0  0  0  0  0  0  0
   -2.6765    2.8092   -0.6508 H   0  0  0  0  0  0  0  0  0  0  0  0
   -3.5370   -1.5845    0.6444 H   0  0  0  0  0  0  0  0  0  0  0  0
   -1.9591   -1.7154   -0.1640 H   0  0  0  0  0  0  0  0  0  0  0  0
   -3.0411   -1.4820   -2.3676 H   0  0  0  0  0  0  0  0  0  0  0  0
   -3.4748   -2.9987   -1.5075 H   0  0  0  0  0  0  0  0  0  0  0  0
   -6.0918    0.1325   -1.7112 H   0  0  0  0  0  0  0  0  0  0  0  0
   -5.5307   -0.3058   -0.0872 H   0  0  0  0  0  0  0  0  0  0  0  0
   -4.3873    1.6707   -0.9079 H   0  0  0  0  0  0  0  0  0  0  0  0
   -3.7400    0.7276   -2.3639 H   0  0  0  0  0  0  0  0  0  0  0  0
    1.3674    1.0599    3.0236 H   0  0  0  0  0  0  0  0  0  0  0  0
    0.4659   -0.4658    2.7654 H   0  0  0  0  0  0  0  0  0  0  0  0
    3.4301   -3.1724   -0.8986 H   0  0  0  0  0  0  0  0  0  0  0  0
    5.6982   -2.7950   -1.8624 H   0  0  0  0  0  0  0  0  0  0  0  0
    5.8645    0.9687    0.0739 H   0  0  0  0  0  0  0  0  0  0  0  0
    3.5253    1.5155    1.5708 H   0  0  0  0  0  0  0  0  0  0  0  0
    0.7957    2.9589    1.7487 H   0  0  0  0  0  0  0  0  0  0  0  0
  1  2  2  0
  2  3  1  0
  3  4  2  0
  4  5  1  0
  5  6  1  0
  6  7  1  0
  7  8  1  0
  8  9  1  0
  9 10  1  0
  4 11  1  0
 11 12  2  0
 12 13  1  0
 13 14  1  0
 14 15  2  0
 15 16  1  0
 16 17  2  0
 17 18  1  0
 18 19  2  0
 19 20  1  0
 19 21  1  0
 21 22  2  0
 22 23  1  0
 12 24  1  0
 24  2  1  0
 10  5  1  0
 23 14  1  0
 22 16  1  0
  3 25  1  0
  6 26  1  0
  6 27  1  0
  7 28  1  0
  7 29  1  0
  9 30  1  0
  9 31  1  0
 10 32  1  0
 10 33  1  0
 13 34  1  0
 13 35  1  0
 17 36  1  0
 18 37  1  0
 21 38  1  0
 23 39  1  0
 24 40  1  0
M  END
$$$$
