
     RDKit          3D

 49 52  0  0  0  0  0  0  0  0999 V2000
    4.7945    0.5628   -2.7612 C   0  0  0  0  0  0  0  0  0  0  0  0
    5.2600   -0.0210   -1.5709 O   0  0  0  0  0  0  0  0  0  0  0  0
    4.3554   -0.1734   -0.5140 C   0  0  0  0  0  0  0  0  0  0  0  0
    3.0813    0.2189   -0.6149 N   0  0  0  0  0  0  0  0  0  0  0  0
    2.1745    0.0887    0.3853 C   0  0  0  0  0  0  0  0  0  0  0  0
    0.8367    0.5178    0.2342 N   0  0  0  0  0  0  0  0  0  0  0  0
    0.2617    1.1221   -0.9299 C   0  0  0  0  0  0  0  0  0  0  0  0
   -1.1736    1.4089   -0.5373 C   0  0  1  0  0  0  0  0  0  0  0  0
   -1.9632    1.2742   -1.7723 C   0  0  0  0  0  0  0  0  0  0  0  0
   -2.5465    2.2162   -2.2880 O   0  0  0  0  0  0  0  0  0  0  0  0
   -2.0122   -0.0267   -2.3415 N   0  0  0  0  0  0  0  0  0  0  0  0
   -2.2992   -0.2729   -3.7346 C   0  0  0  0  0  0  0  0  0  0  0  0
   -1.7698   -1.1621   -1.4797 C   0  0  0  0  0  0  0  0  0  0  0  0
   -1.8169   -2.4708   -2.0508 N   0  0  0  0  0  0  0  0  0  0  0  0
   -1.5272   -0.9385   -0.2583 N   0  0  0  0  0  0  0  0  0  0  0  0
   -1.4507    0.3033    0.4418 C   0  0  2  0  0  0  0  0  0  0  0  0
   -2.6054    0.5164    1.3254 C   0  0  0  0  0  0  0  0  0  0  0  0
   -2.3634    0.6370    2.6861 C   0  0  0  0  0  0  0  0  0  0  0  0
   -3.3699    0.8247    3.6128 C   0  0  0  0  0  0  0  0  0  0  0  0
   -4.6699    0.8996    3.2119 C   0  0  0  0  0  0  0  0  0  0  0  0
   -4.9428    0.7833    1.8687 C   0  0  0  0  0  0  0  0  0  0  0  0
   -3.9174    0.5945    0.9468 C   0  0  0  0  0  0  0  0  0  0  0  0
   -4.2232    0.4871   -0.3480 F   0  0  0  0  0  0  0  0  0  0  0  0
   -0.1710    0.3972    1.2825 C   0  0  0  0  0  0  0  0  0  0  0  0
    2.6301   -0.4714    1.5206 N   0  0  0  0  0  0  0  0  0  0  0  0
    3.8805   -0.8793    1.6796 C   0  0  0  0  0  0  0  0  0  0  0  0
    4.3446   -1.4951    2.9545 C   0  0  0  0  0  0  0  0  0  0  0  0
    4.7947   -0.7454    0.6643 C   0  0  0  0  0  0  0  0  0  0  0  0
    6.0938   -1.1469    0.7710 F   0  0  0  0  0  0  0  0  0  0  0  0
    5.6197    1.1109   -3.2968 H   0  0  0  0  0  0  0  0  0  0  0  0
    3.9873    1.2598   -2.5186 H   0  0  0  0  0  0  0  0  0  0  0  0
    4.4094   -0.2044   -3.4728 H   0  0  0  0  0  0  0  0  0  0  0  0
    0.7925    2.0461   -1.2422 H   0  0  0  0  0  0  0  0  0  0  0  0
    0.2361    0.3753   -1.7648 H   0  0  0  0  0  0  0  0  0  0  0  0
   -1.1866    2.4076   -0.0926 H   0  0  0  0  0  0  0  0  0  0  0  0
   -1.8241   -1.2085   -4.0952 H   0  0  0  0  0  0  0  0  0  0  0  0
   -3.4043   -0.3085   -3.8630 H   0  0  0  0  0  0  0  0  0  0  0  0
   -1.9195    0.5794   -4.3527 H   0  0  0  0  0  0  0  0  0  0  0  0
   -1.1481   -2.7512   -2.7798 H   0  0  0  0  0  0  0  0  0  0  0  0
   -2.5302   -3.1458   -1.7298 H   0  0  0  0  0  0  0  0  0  0  0  0
   -1.3633    0.5828    3.1071 H   0  0  0  0  0  0  0  0  0  0  0  0
   -3.1241    0.9141    4.6753 H   0  0  0  0  0  0  0  0  0  0  0  0
   -5.4389    1.0471    3.9593 H   0  0  0  0  0  0  0  0  0  0  0  0
   -5.9757    0.8437    1.5611 H   0  0  0  0  0  0  0  0  0  0  0  0
   -0.0268   -0.4376    1.9577 H   0  0  0  0  0  0  0  0  0  0  0  0
   -0.1990    1.4070    1.7537 H   0  0  0  0  0  0  0  0  0  0  0  0
    4.9540   -2.3830    2.7491 H   0  0  0  0  0  0  0  0  0  0  0  0
    4.9608   -0.7069    3.4722 H   0  0  0  0  0  0  0  0  0  0  0  0
    3.4955   -1.7852    3.5887 H   0  0  0  0  0  0  0  0  0  0  0  0
  1  2  1  0
  2  3  1  0
  3  4  2  0
  4  5  1  0
  5  6  1  0
  6  7  1  0
  7  8  1  0
  8  9  1  0
  9 10  2  0
  9 11  1  0
 11 12  1  0
 11 13  1  0
 13 14  1  0
 13 15  2  0
 15 16  1  0
 16 17  1  1
 17 18  2  0
 18 19  1  0
 19 20  2  0
 20 21  1  0
 21 22  2  0
 22 23  1  0
 16 24  1  0
  5 25  2  0
 25 26  1  0
 26 27  1  0
 26 28  2  0
 28 29  1  0
 28  3  1  0
 24  6  1  0
 16  8  1  0
 22 17  1  0
  1 30  1  0
  1 31  1  0
  1 32  1  0
  7 33  1  0
  7 34  1  0
  8 35  1  1
 12 36  1  0
 12 37  1  0
 12 38  1  0
 14 39  1  0
 14 40  1  0
 18 41  1  0
 19 42  1  0
 20 43  1  0
 21 44  1  0
 24 45  1  0
 24 46  1  0
 27 47  1  0
 27 48  1  0
 27 49  1  0
M  END
$$$$
