@<TRIPOS>MOLECULE
*****
 49 52 0 0 0
SMALL
GASTEIGER

@<TRIPOS>ATOM
      1 C           4.7945    0.5628   -2.7612 C.3     1  UNL1        0.0805
      2 O           5.2600   -0.0210   -1.5709 O.3     1  UNL1       -0.4776
      3 C           4.3554   -0.1734   -0.5140 C.ar    1  UNL1        0.2557
      4 N           3.0813    0.2189   -0.6149 N.ar    1  UNL1       -0.1768
      5 C           2.1745    0.0887    0.3853 C.ar    1  UNL1        0.2214
      6 N           0.8367    0.5178    0.2342 N.pl3   1  UNL1       -0.2946
      7 C           0.2617    1.1221   -0.9299 C.3     1  UNL1        0.0316
      8 C          -1.1736    1.4089   -0.5373 C.3     1  UNL1        0.1119
      9 C          -1.9632    1.2742   -1.7723 C.2     1  UNL1        0.2861
     10 O          -2.5465    2.2162   -2.2880 O.2     1  UNL1       -0.2567
     11 N          -2.0122   -0.0267   -2.3415 N.am    1  UNL1       -0.1649
     12 C          -2.2992   -0.2729   -3.7346 C.3     1  UNL1        0.0571
     13 C          -1.7698   -1.1621   -1.4797 C.2     1  UNL1        0.3722
     14 N          -1.8169   -2.4708   -2.0508 N.pl3   1  UNL1       -0.2512
     15 N          -1.5272   -0.9385   -0.2583 N.2     1  UNL1       -0.1028
     16 C          -1.4507    0.3033    0.4418 C.3     1  UNL1        0.1820
     17 C          -2.6054    0.5164    1.3254 C.ar    1  UNL1        0.0331
     18 C          -2.3634    0.6370    2.6861 C.ar    1  UNL1       -0.0521
     19 C          -3.3699    0.8247    3.6128 C.ar    1  UNL1       -0.0612
     20 C          -4.6699    0.8996    3.2119 C.ar    1  UNL1       -0.0590
     21 C          -4.9428    0.7833    1.8687 C.ar    1  UNL1       -0.0261
     22 C          -3.9174    0.5945    0.9468 C.ar    1  UNL1        0.1303
     23 F          -4.2232    0.4871   -0.3480 F       1  UNL1       -0.2051
     24 C          -0.1710    0.3972    1.2825 C.3     1  UNL1        0.0599
     25 N           2.6301   -0.4714    1.5206 N.ar    1  UNL1       -0.2165
     26 C           3.8805   -0.8793    1.6796 C.ar    1  UNL1        0.0822
     27 C           4.3446   -1.4951    2.9545 C.3     1  UNL1       -0.0193
     28 C           4.7947   -0.7454    0.6643 C.ar    1  UNL1        0.2055
     29 F           6.0938   -1.1469    0.7710 F       1  UNL1       -0.1980
     30 H           5.6197    1.1109   -3.2968 H       1  UNL1        0.0660
     31 H           3.9873    1.2598   -2.5186 H       1  UNL1        0.0660
     32 H           4.4094   -0.2044   -3.4728 H       1  UNL1        0.0660
     33 H           0.7925    2.0461   -1.2422 H       1  UNL1        0.0474
     34 H           0.2361    0.3753   -1.7648 H       1  UNL1        0.0474
     35 H          -1.1866    2.4076   -0.0926 H       1  UNL1        0.0467
     36 H          -1.8241   -1.2085   -4.0952 H       1  UNL1        0.0602
     37 H          -3.4043   -0.3085   -3.8630 H       1  UNL1        0.0602
     38 H          -1.9195    0.5794   -4.3527 H       1  UNL1        0.0602
     39 H          -1.1481   -2.7512   -2.7798 H       1  UNL1        0.2412
     40 H          -2.5302   -3.1458   -1.7298 H       1  UNL1        0.2412
     41 H          -1.3633    0.5828    3.1071 H       1  UNL1        0.0622
     42 H          -3.1241    0.9141    4.6753 H       1  UNL1        0.0618
     43 H          -5.4389    1.0471    3.9593 H       1  UNL1        0.0618
     44 H          -5.9757    0.8437    1.5611 H       1  UNL1        0.0646
     45 H          -0.0268   -0.4376    1.9577 H       1  UNL1        0.0507
     46 H          -0.1990    1.4070    1.7537 H       1  UNL1        0.0507
     47 H           4.9540   -2.3830    2.7491 H       1  UNL1        0.0293
     48 H           4.9608   -0.7069    3.4722 H       1  UNL1        0.0293
     49 H           3.4955   -1.7852    3.5887 H       1  UNL1        0.0293
@<TRIPOS>BOND
     1     1     2    1
     2     2     3    1
     3     3     4   ar
     4     4     5   ar
     5     5     6    1
     6     6     7    1
     7     7     8    1
     8     8     9    1
     9     9    10    2
    10     9    11   am
    11    11    12    1
    12    11    13    1
    13    13    14    1
    14    13    15    2
    15    15    16    1
    16    16    17    1
    17    17    18   ar
    18    18    19   ar
    19    19    20   ar
    20    20    21   ar
    21    21    22   ar
    22    22    23    1
    23    16    24    1
    24     5    25   ar
    25    25    26   ar
    26    26    27    1
    27    26    28   ar
    28    28    29    1
    29    28     3   ar
    30    24     6    1
    31    16     8    1
    32    22    17   ar
    33     1    30    1
    34     1    31    1
    35     1    32    1
    36     7    33    1
    37     7    34    1
    38     8    35    1
    39    12    36    1
    40    12    37    1
    41    12    38    1
    42    14    39    1
    43    14    40    1
    44    18    41    1
    45    19    42    1
    46    20    43    1
    47    21    44    1
    48    24    45    1
    49    24    46    1
    50    27    47    1
    51    27    48    1
    52    27    49    1
