@<TRIPOS>MOLECULE
*****
 41 44 0 0 0
SMALL
GASTEIGER

@<TRIPOS>ATOM
      1 C          -7.4251    0.4032   -0.0544 C.3     1  UNL1        0.0596
      2 S          -6.5668   -0.2516    1.3517 S.O2    1  UNL1       -0.0059
      3 O          -6.9788   -1.6957    1.4879 O.2     1  UNL1       -0.1696
      4 O          -6.8734    0.5316    2.5827 O.2     1  UNL1       -0.1696
      5 C          -4.8389   -0.2008    1.0319 C.ar    1  UNL1        0.0879
      6 C          -4.0799    0.8980    1.3701 C.ar    1  UNL1       -0.0363
      7 C          -2.7215    0.9560    1.1267 C.ar    1  UNL1       -0.0521
      8 C          -2.0755   -0.1138    0.5230 C.ar    1  UNL1       -0.0128
      9 C          -0.6464   -0.0435    0.2711 C.ar    1  UNL1        0.0449
     10 C           0.1635   -1.1195    0.5703 C.ar    1  UNL1        0.0424
     11 N           1.4843   -1.0382    0.3310 N.ar    1  UNL1       -0.2233
     12 C           2.0846    0.0473   -0.1931 C.ar    1  UNL1        0.2028
     13 N           3.4747    0.1199   -0.4397 N.pl3   1  UNL1       -0.3074
     14 C           4.3004   -1.0149   -0.1197 C.3     1  UNL1        0.0699
     15 C           5.7288   -0.7103   -0.4641 C.ar    1  UNL1        0.1218
     16 C           6.3657   -0.9343   -1.6476 C.ar    1  UNL1       -0.0192
     17 C           7.6765   -0.4974   -1.5133 C.ar    1  UNL1       -0.0236
     18 C           7.7633   -0.0215   -0.2248 C.ar    1  UNL1        0.0921
     19 O           6.5985   -0.1633    0.3610 O.2     1  UNL1       -0.4662
     20 N           1.2967    1.0966   -0.4852 N.ar    1  UNL1       -0.2530
     21 C           1.5927    2.3098   -1.0122 C.ar    1  UNL1        0.1267
     22 N           0.4550    3.0194   -1.1149 N.ar    1  UNL1       -0.1371
     23 N          -0.5151    2.2574   -0.6610 N.ar    1  UNL1       -0.1289
     24 C          -0.0285    1.0671   -0.2658 C.ar    1  UNL1        0.1726
     25 C          -2.8453   -1.2094    0.1883 C.ar    1  UNL1       -0.0521
     26 C          -4.2029   -1.2801    0.4259 C.ar    1  UNL1       -0.0363
     27 H          -7.6128   -0.3768   -0.8072 H       1  UNL1        0.0468
     28 H          -6.7670    1.1643   -0.5539 H       1  UNL1        0.0468
     29 H          -8.3453    0.9361    0.2517 H       1  UNL1        0.0468
     30 H          -4.6167    1.7289    1.8460 H       1  UNL1        0.0637
     31 H          -2.1587    1.8146    1.3970 H       1  UNL1        0.0624
     32 H          -0.2742   -2.0339    1.0011 H       1  UNL1        0.0838
     33 H           3.8837    0.9649   -0.8385 H       1  UNL1        0.1493
     34 H           4.2882   -1.2573    0.9689 H       1  UNL1        0.0543
     35 H           3.9410   -1.9203   -0.6545 H       1  UNL1        0.0543
     36 H           5.9215   -1.3747   -2.5300 H       1  UNL1        0.0652
     37 H           8.4594   -0.5287   -2.2695 H       1  UNL1        0.0649
     38 H           8.6743    0.3921    0.1830 H       1  UNL1        0.1029
     39 H           2.5969    2.6100   -1.2885 H       1  UNL1        0.1052
     40 H          -2.3887   -2.0686   -0.2842 H       1  UNL1        0.0624
     41 H          -4.7883   -2.1558    0.1525 H       1  UNL1        0.0637
@<TRIPOS>BOND
     1     1     2    1
     2     2     3    2
     3     2     4    2
     4     2     5    1
     5     5     6   ar
     6     6     7   ar
     7     7     8   ar
     8     8     9    1
     9     9    10   ar
    10    10    11   ar
    11    11    12   ar
    12    12    13    1
    13    13    14    1
    14    14    15    1
    15    15    16   ar
    16    16    17   ar
    17    17    18   ar
    18    18    19   ar
    19    12    20   ar
    20    20    21   ar
    21    21    22   ar
    22    22    23   ar
    23    23    24   ar
    24     8    25   ar
    25    25    26   ar
    26    26     5   ar
    27    24     9   ar
    28    19    15   ar
    29    24    20   ar
    30     1    27    1
    31     1    28    1
    32     1    29    1
    33     6    30    1
    34     7    31    1
    35    10    32    1
    36    13    33    1
    37    14    34    1
    38    14    35    1
    39    16    36    1
    40    17    37    1
    41    18    38    1
    42    21    39    1
    43    25    40    1
    44    26    41    1
