@<TRIPOS>MOLECULE
*****
 56 60 0 0 0
SMALL
GASTEIGER

@<TRIPOS>ATOM
      1 O           3.5377    0.3508   -0.9434 O.2     1  UNL1       -0.2695
      2 C           2.6881   -0.3714   -0.3798 C.2     1  UNL1        0.2548
      3 N           1.2773   -0.2250   -0.5252 N.am    1  UNL1       -0.2968
      4 C           0.4963   -0.6167    0.6315 C.3     1  UNL1        0.0925
      5 C          -0.9272   -0.3542    0.3477 C.ar    1  UNL1       -0.0192
      6 C          -1.9199   -1.1522    0.8177 C.ar    1  UNL1       -0.0545
      7 C          -3.2678   -0.8862    0.5428 C.ar    1  UNL1       -0.0403
      8 C          -3.6328    0.2008   -0.2183 C.ar    1  UNL1        0.0298
      9 N          -4.9917    0.4984   -0.5108 N.pl3   1  UNL1       -0.3255
     10 C          -6.1266   -0.2272   -0.0016 C.3     1  UNL1        0.0357
     11 C          -6.8705   -0.7937   -1.2155 C.3     1  UNL1        0.0634
     12 O          -6.9269    0.1117   -2.2458 O.3     1  UNL1       -0.3767
     13 C          -6.7194    1.4274   -1.8413 C.3     1  UNL1        0.0634
     14 C          -5.2624    1.6166   -1.3919 C.3     1  UNL1        0.0357
     15 C          -2.6126    1.0149   -0.6972 C.ar    1  UNL1       -0.0403
     16 C          -1.2833    0.7300   -0.4108 C.ar    1  UNL1       -0.0545
     17 C           0.9407    0.1614    1.8537 C.ar    1  UNL1       -0.0123
     18 C           1.6429    1.2765    1.7972 C.ar    1  UNL1       -0.0492
     19 C           2.0272    1.9583    2.9260 C.ar    1  UNL1       -0.0240
     20 S           1.2926    0.8693    4.2369 S.2     1  UNL1       -0.1047
     21 C           0.5957   -0.3101    3.1105 C.ar    1  UNL1       -0.0188
     22 C           0.7882   -2.0514    0.9165 C.3     1  UNL1        0.0356
     23 C           2.2364   -2.2442    1.1090 C.2     1  UNL1        0.1154
     24 O           2.7339   -3.2540    1.9331 O.2     1  UNL1       -0.5097
     25 C           3.1136   -1.4675    0.5079 C.2     1  UNL1        0.1117
     26 S           4.8752   -1.7019    0.7372 S.3     1  UNL1       -0.0796
     27 C           5.8141   -0.5228   -0.1849 C.ar    1  UNL1        0.0313
     28 C           6.1554    0.6905    0.3992 C.ar    1  UNL1       -0.0466
     29 C           6.8872    1.6206   -0.3064 C.ar    1  UNL1       -0.0606
     30 C           7.2954    1.3612   -1.6116 C.ar    1  UNL1       -0.0603
     31 C           6.9515    0.1549   -2.1808 C.ar    1  UNL1       -0.0423
     32 C           6.2124   -0.7932   -1.4786 C.ar    1  UNL1        0.0547
     33 CL          5.7624   -2.3322   -2.1773 Cl      1  UNL1       -0.0824
     34 H           0.8790    0.1379   -1.4062 H       1  UNL1        0.1502
     35 H          -1.6779   -2.0057    1.4122 H       1  UNL1        0.0622
     36 H          -4.0014   -1.5615    0.9469 H       1  UNL1        0.0636
     37 H          -6.8179    0.5582    0.4325 H       1  UNL1        0.0486
     38 H          -5.9120   -0.9943    0.7369 H       1  UNL1        0.0486
     39 H          -7.8683   -1.1313   -0.8662 H       1  UNL1        0.0575
     40 H          -6.3351   -1.6970   -1.5713 H       1  UNL1        0.0575
     41 H          -7.4253    1.7783   -1.0836 H       1  UNL1        0.0575
     42 H          -6.8462    2.0726   -2.7344 H       1  UNL1        0.0575
     43 H          -5.1471    2.5822   -0.8817 H       1  UNL1        0.0486
     44 H          -4.6328    1.6064   -2.3058 H       1  UNL1        0.0486
     45 H          -2.8882    1.8719   -1.2959 H       1  UNL1        0.0636
     46 H          -0.5587    1.4311   -0.8305 H       1  UNL1        0.0622
     47 H           1.9768    1.7517    0.8157 H       1  UNL1        0.0626
     48 H           2.5756    2.8452    3.1442 H       1  UNL1        0.0693
     49 H          -0.0037   -1.2422    3.4068 H       1  UNL1        0.0697
     50 H           0.2643   -2.4413    1.8150 H       1  UNL1        0.0371
     51 H           0.4128   -2.7216    0.0859 H       1  UNL1        0.0371
     52 H           3.0766   -3.0971    2.8537 H       1  UNL1        0.2917
     53 H           5.8480    0.9258    1.4284 H       1  UNL1        0.0629
     54 H           7.1687    2.5769    0.1228 H       1  UNL1        0.0618
     55 H           7.8631    2.0766   -2.1661 H       1  UNL1        0.0618
     56 H           7.2664   -0.0621   -3.2072 H       1  UNL1        0.0632
@<TRIPOS>BOND
     1     1     2    2
     2     2     3   am
     3     3     4    1
     4     4     5    1
     5     5     6   ar
     6     6     7   ar
     7     7     8   ar
     8     8     9    1
     9     9    10    1
    10    10    11    1
    11    11    12    1
    12    12    13    1
    13    13    14    1
    14     8    15   ar
    15    15    16   ar
    16     4    17    1
    17    17    18   ar
    18    18    19   ar
    19    19    20   ar
    20    20    21   ar
    21     4    22    1
    22    22    23    1
    23    23    24    1
    24    23    25    2
    25    25    26    1
    26    26    27    1
    27    27    28   ar
    28    28    29   ar
    29    29    30   ar
    30    30    31   ar
    31    31    32   ar
    32    32    33    1
    33    25     2    1
    34    32    27   ar
    35    16     5   ar
    36    21    17   ar
    37    14     9    1
    38     3    34    1
    39     6    35    1
    40     7    36    1
    41    10    37    1
    42    10    38    1
    43    11    39    1
    44    11    40    1
    45    13    41    1
    46    13    42    1
    47    14    43    1
    48    14    44    1
    49    15    45    1
    50    16    46    1
    51    18    47    1
    52    19    48    1
    53    21    49    1
    54    22    50    1
    55    22    51    1
    56    24    52    1
    57    28    53    1
    58    29    54    1
    59    30    55    1
    60    31    56    1
