
     RDKit          3D

 56 60  0  0  0  0  0  0  0  0999 V2000
    3.5377    0.3508   -0.9434 O   0  0  0  0  0  0  0  0  0  0  0  0
    2.6881   -0.3714   -0.3798 C   0  0  0  0  0  0  0  0  0  0  0  0
    1.2773   -0.2250   -0.5252 N   0  0  0  0  0  0  0  0  0  0  0  0
    0.4963   -0.6167    0.6315 C   0  0  2  0  0  0  0  0  0  0  0  0
   -0.9272   -0.3542    0.3477 C   0  0  0  0  0  0  0  0  0  0  0  0
   -1.9199   -1.1522    0.8177 C   0  0  0  0  0  0  0  0  0  0  0  0
   -3.2678   -0.8862    0.5428 C   0  0  0  0  0  0  0  0  0  0  0  0
   -3.6328    0.2008   -0.2183 C   0  0  0  0  0  0  0  0  0  0  0  0
   -4.9917    0.4984   -0.5108 N   0  0  0  0  0  0  0  0  0  0  0  0
   -6.1266   -0.2272   -0.0016 C   0  0  0  0  0  0  0  0  0  0  0  0
   -6.8705   -0.7937   -1.2155 C   0  0  0  0  0  0  0  0  0  0  0  0
   -6.9269    0.1117   -2.2458 O   0  0  0  0  0  0  0  0  0  0  0  0
   -6.7194    1.4274   -1.8413 C   0  0  0  0  0  0  0  0  0  0  0  0
   -5.2624    1.6166   -1.3919 C   0  0  0  0  0  0  0  0  0  0  0  0
   -2.6126    1.0149   -0.6972 C   0  0  0  0  0  0  0  0  0  0  0  0
   -1.2833    0.7300   -0.4108 C   0  0  0  0  0  0  0  0  0  0  0  0
    0.9407    0.1614    1.8537 C   0  0  0  0  0  0  0  0  0  0  0  0
    1.6429    1.2765    1.7972 C   0  0  0  0  0  0  0  0  0  0  0  0
    2.0272    1.9583    2.9260 C   0  0  0  0  0  0  0  0  0  0  0  0
    1.2926    0.8693    4.2369 S   0  0  0  0  0  0  0  0  0  0  0  0
    0.5957   -0.3101    3.1105 C   0  0  0  0  0  0  0  0  0  0  0  0
    0.7882   -2.0514    0.9165 C   0  0  0  0  0  0  0  0  0  0  0  0
    2.2364   -2.2442    1.1090 C   0  0  0  0  0  0  0  0  0  0  0  0
    2.7339   -3.2540    1.9331 O   0  0  0  0  0  0  0  0  0  0  0  0
    3.1136   -1.4675    0.5079 C   0  0  0  0  0  0  0  0  0  0  0  0
    4.8752   -1.7019    0.7372 S   0  0  0  0  0  0  0  0  0  0  0  0
    5.8141   -0.5228   -0.1849 C   0  0  0  0  0  0  0  0  0  0  0  0
    6.1554    0.6905    0.3992 C   0  0  0  0  0  0  0  0  0  0  0  0
    6.8872    1.6206   -0.3064 C   0  0  0  0  0  0  0  0  0  0  0  0
    7.2954    1.3612   -1.6116 C   0  0  0  0  0  0  0  0  0  0  0  0
    6.9515    0.1549   -2.1808 C   0  0  0  0  0  0  0  0  0  0  0  0
    6.2124   -0.7932   -1.4786 C   0  0  0  0  0  0  0  0  0  0  0  0
    5.7624   -2.3322   -2.1773 Cl  0  0  0  0  0  0  0  0  0  0  0  0
    0.8790    0.1379   -1.4062 H   0  0  0  0  0  0  0  0  0  0  0  0
   -1.6779   -2.0057    1.4122 H   0  0  0  0  0  0  0  0  0  0  0  0
   -4.0014   -1.5615    0.9469 H   0  0  0  0  0  0  0  0  0  0  0  0
   -6.8179    0.5582    0.4325 H   0  0  0  0  0  0  0  0  0  0  0  0
   -5.9120   -0.9943    0.7369 H   0  0  0  0  0  0  0  0  0  0  0  0
   -7.8683   -1.1313   -0.8662 H   0  0  0  0  0  0  0  0  0  0  0  0
   -6.3351   -1.6970   -1.5713 H   0  0  0  0  0  0  0  0  0  0  0  0
   -7.4253    1.7783   -1.0836 H   0  0  0  0  0  0  0  0  0  0  0  0
   -6.8462    2.0726   -2.7344 H   0  0  0  0  0  0  0  0  0  0  0  0
   -5.1471    2.5822   -0.8817 H   0  0  0  0  0  0  0  0  0  0  0  0
   -4.6328    1.6064   -2.3058 H   0  0  0  0  0  0  0  0  0  0  0  0
   -2.8882    1.8719   -1.2959 H   0  0  0  0  0  0  0  0  0  0  0  0
   -0.5587    1.4311   -0.8305 H   0  0  0  0  0  0  0  0  0  0  0  0
    1.9768    1.7517    0.8157 H   0  0  0  0  0  0  0  0  0  0  0  0
    2.5756    2.8452    3.1442 H   0  0  0  0  0  0  0  0  0  0  0  0
   -0.0037   -1.2422    3.4068 H   0  0  0  0  0  0  0  0  0  0  0  0
    0.2643   -2.4413    1.8150 H   0  0  0  0  0  0  0  0  0  0  0  0
    0.4128   -2.7216    0.0859 H   0  0  0  0  0  0  0  0  0  0  0  0
    3.0766   -3.0971    2.8537 H   0  0  0  0  0  0  0  0  0  0  0  0
    5.8480    0.9258    1.4284 H   0  0  0  0  0  0  0  0  0  0  0  0
    7.1687    2.5769    0.1228 H   0  0  0  0  0  0  0  0  0  0  0  0
    7.8631    2.0766   -2.1661 H   0  0  0  0  0  0  0  0  0  0  0  0
    7.2664   -0.0621   -3.2072 H   0  0  0  0  0  0  0  0  0  0  0  0
  1  2  2  0
  2  3  1  0
  3  4  1  0
  4  5  1  6
  5  6  2  0
  6  7  1  0
  7  8  2  0
  8  9  1  0
  9 10  1  0
 10 11  1  0
 11 12  1  0
 12 13  1  0
 13 14  1  0
  8 15  1  0
 15 16  2  0
  4 17  1  0
 17 18  1  0
 18 19  2  0
 19 20  1  0
 20 21  1  0
  4 22  1  0
 22 23  1  0
 23 24  1  0
 23 25  2  0
 25 26  1  0
 26 27  1  0
 27 28  2  0
 28 29  1  0
 29 30  2  0
 30 31  1  0
 31 32  2  0
 32 33  1  0
 25  2  1  0
 32 27  1  0
 16  5  1  0
 21 17  2  0
 14  9  1  0
  3 34  1  0
  6 35  1  0
  7 36  1  0
 10 37  1  0
 10 38  1  0
 11 39  1  0
 11 40  1  0
 13 41  1  0
 13 42  1  0
 14 43  1  0
 14 44  1  0
 15 45  1  0
 16 46  1  0
 18 47  1  0
 19 48  1  0
 21 49  1  0
 22 50  1  0
 22 51  1  0
 24 52  1  0
 28 53  1  0
 29 54  1  0
 30 55  1  0
 31 56  1  0
M  END
$$$$
