
     RDKit          3D

 56 60  0  0  0  0  0  0  0  0999 V2000
   -4.0094   -3.4921   -1.2236 C   0  0  0  0  0  0  0  0  0  0  0  0
   -3.5720   -2.1825   -0.6851 C   0  0  0  0  0  0  0  0  0  0  0  0
   -2.1987   -1.9334   -0.6066 C   0  0  0  0  0  0  0  0  0  0  0  0
   -1.7409   -0.7386   -0.1163 C   0  0  0  0  0  0  0  0  0  0  0  0
   -0.3605   -0.3997    0.0035 N   0  0  0  0  0  0  0  0  0  0  0  0
    0.7138   -1.2553   -0.3464 C   0  0  0  0  0  0  0  0  0  0  0  0
    0.7233   -2.4239   -0.8243 O   0  0  0  0  0  0  0  0  0  0  0  0
    1.9782   -0.5700   -0.0662 C   0  0  0  0  0  0  0  0  0  0  0  0
    3.3714   -0.6985   -0.1091 C   0  0  0  0  0  0  0  0  0  0  0  0
    4.0877   -1.8838   -0.5897 C   0  0  0  0  0  0  0  0  0  0  0  0
    4.4247   -2.0366   -1.7718 O   0  0  0  0  0  0  0  0  0  0  0  0
    4.3995   -2.8895    0.3578 N   0  0  0  0  0  0  0  0  0  0  0  0
    4.0364   -2.7799    1.7612 C   0  0  0  0  0  0  0  0  0  0  0  0
    5.1091   -4.0709   -0.1019 C   0  0  0  0  0  0  0  0  0  0  0  0
    3.8993    0.4763    0.3760 C   0  0  0  0  0  0  0  0  0  0  0  0
    2.8755    1.2813    0.6984 N   0  0  0  0  0  0  0  0  0  0  0  0
    2.9553    2.6085    1.2429 C   0  0  0  0  0  0  0  0  0  0  0  0
    1.6876    0.6576    0.4341 C   0  0  0  0  0  0  0  0  0  0  0  0
    0.2211    0.8116    0.4774 C   0  0  0  0  0  0  0  0  0  0  0  0
   -0.1102    2.0167   -0.2986 C   0  0  0  0  0  0  0  0  0  0  0  0
   -0.1242    2.0462   -1.6643 C   0  0  0  0  0  0  0  0  0  0  0  0
   -0.4403    3.2270   -2.3340 C   0  0  0  0  0  0  0  0  0  0  0  0
   -0.7429    4.3799   -1.6297 C   0  0  0  0  0  0  0  0  0  0  0  0
   -1.1445    5.8812   -2.4162 Cl  0  0  0  0  0  0  0  0  0  0  0  0
   -0.7298    4.3538   -0.2489 C   0  0  0  0  0  0  0  0  0  0  0  0
   -0.4154    3.1790    0.3775 C   0  0  0  0  0  0  0  0  0  0  0  0
   -2.7137    0.1731    0.2824 C   0  0  0  0  0  0  0  0  0  0  0  0
   -4.0356   -0.0667    0.2068 N   0  0  0  0  0  0  0  0  0  0  0  0
   -5.1141    0.6793    0.5382 C   0  0  0  0  0  0  0  0  0  0  0  0
   -5.0833    2.0659    1.1165 C   0  0  0  0  0  0  0  0  0  0  0  0
   -6.2013   -0.0492    0.2543 N   0  0  0  0  0  0  0  0  0  0  0  0
   -5.8257   -1.2162   -0.2399 N   0  0  0  0  0  0  0  0  0  0  0  0
   -4.4663   -1.2489   -0.2787 C   0  0  0  0  0  0  0  0  0  0  0  0
   -3.1790   -4.1427   -1.4906 H   0  0  0  0  0  0  0  0  0  0  0  0
   -4.6726   -3.9954   -0.4767 H   0  0  0  0  0  0  0  0  0  0  0  0
   -4.6439   -3.2991   -2.1175 H   0  0  0  0  0  0  0  0  0  0  0  0
   -1.5030   -2.6985   -0.9392 H   0  0  0  0  0  0  0  0  0  0  0  0
    3.7071   -3.7788    2.0997 H   0  0  0  0  0  0  0  0  0  0  0  0
    4.9610   -2.5316    2.3228 H   0  0  0  0  0  0  0  0  0  0  0  0
    3.3044   -1.9958    1.9512 H   0  0  0  0  0  0  0  0  0  0  0  0
    5.2265   -4.7972    0.7267 H   0  0  0  0  0  0  0  0  0  0  0  0
    6.1433   -3.7676   -0.4205 H   0  0  0  0  0  0  0  0  0  0  0  0
    4.5457   -4.5468   -0.9174 H   0  0  0  0  0  0  0  0  0  0  0  0
    4.9691    0.6629    0.4602 H   0  0  0  0  0  0  0  0  0  0  0  0
    2.3882    2.7268    2.1869 H   0  0  0  0  0  0  0  0  0  0  0  0
    4.0126    2.8661    1.4599 H   0  0  0  0  0  0  0  0  0  0  0  0
    2.6183    3.3490    0.4640 H   0  0  0  0  0  0  0  0  0  0  0  0
   -0.0729    0.9411    1.5386 H   0  0  0  0  0  0  0  0  0  0  0  0
    0.1054    1.1708   -2.2397 H   0  0  0  0  0  0  0  0  0  0  0  0
   -0.4592    3.2801   -3.4180 H   0  0  0  0  0  0  0  0  0  0  0  0
   -0.9680    5.2619    0.3169 H   0  0  0  0  0  0  0  0  0  0  0  0
   -0.4055    3.1600    1.4761 H   0  0  0  0  0  0  0  0  0  0  0  0
   -2.4028    1.1254    0.6764 H   0  0  0  0  0  0  0  0  0  0  0  0
   -4.1512    2.5287    0.7409 H   0  0  0  0  0  0  0  0  0  0  0  0
   -4.9853    1.9794    2.2190 H   0  0  0  0  0  0  0  0  0  0  0  0
   -5.9923    2.5994    0.8045 H   0  0  0  0  0  0  0  0  0  0  0  0
  1  2  1  0
  2  3  2  0
  3  4  1  0
  4  5  1  0
  5  6  1  0
  6  7  2  0
  6  8  1  0
  8  9  1  0
  9 10  1  0
 10 11  2  0
 10 12  1  0
 12 13  1  0
 12 14  1  0
  9 15  2  0
 15 16  1  0
 16 17  1  0
 16 18  1  0
 18 19  1  0
 19 20  1  0
 20 21  2  0
 21 22  1  0
 22 23  2  0
 23 24  1  0
 23 25  1  0
 25 26  2  0
  4 27  2  0
 27 28  1  0
 28 29  1  0
 29 30  1  0
 29 31  2  0
 31 32  1  0
 32 33  2  0
 33  2  1  0
 19  5  1  0
 26 20  1  0
 33 28  1  0
 18  8  2  0
  1 34  1  0
  1 35  1  0
  1 36  1  0
  3 37  1  0
 13 38  1  0
 13 39  1  0
 13 40  1  0
 14 41  1  0
 14 42  1  0
 14 43  1  0
 15 44  1  0
 17 45  1  0
 17 46  1  0
 17 47  1  0
 19 48  1  0
 21 49  1  0
 22 50  1  0
 25 51  1  0
 26 52  1  0
 27 53  1  0
 30 54  1  0
 30 55  1  0
 30 56  1  0
M  END
$$$$
