@<TRIPOS>MOLECULE
*****
 56 60 0 0 0
SMALL
GASTEIGER

@<TRIPOS>ATOM
      1 C          -4.0094   -3.4921   -1.2236 C.3     1  UNL1       -0.0361
      2 C          -3.5720   -2.1825   -0.6851 C.ar    1  UNL1       -0.0041
      3 C          -2.1987   -1.9334   -0.6066 C.ar    1  UNL1       -0.0324
      4 C          -1.7409   -0.7386   -0.1163 C.ar    1  UNL1        0.0545
      5 N          -0.3605   -0.3997    0.0035 N.am    1  UNL1       -0.2530
      6 C           0.7138   -1.2553   -0.3464 C.2     1  UNL1        0.2542
      7 O           0.7233   -2.4239   -0.8243 O.2     1  UNL1       -0.2695
      8 C           1.9782   -0.5700   -0.0662 C.ar    1  UNL1        0.0722
      9 C           3.3714   -0.6985   -0.1091 C.ar    1  UNL1        0.0668
     10 C           4.0877   -1.8838   -0.5897 C.2     1  UNL1        0.2483
     11 O           4.4247   -2.0366   -1.7718 O.2     1  UNL1       -0.2699
     12 N           4.3995   -2.8895    0.3578 N.am    1  UNL1       -0.3036
     13 C           4.0364   -2.7799    1.7612 C.3     1  UNL1        0.0031
     14 C           5.1091   -4.0709   -0.1019 C.3     1  UNL1        0.0031
     15 C           3.8993    0.4763    0.3760 C.ar    1  UNL1        0.0175
     16 N           2.8755    1.2813    0.6984 N.ar    1  UNL1       -0.3503
     17 C           2.9553    2.6085    1.2429 C.3     1  UNL1        0.0117
     18 C           1.6876    0.6576    0.4341 C.ar    1  UNL1        0.0569
     19 C           0.2211    0.8116    0.4774 C.3     1  UNL1        0.0973
     20 C          -0.1102    2.0167   -0.2986 C.ar    1  UNL1       -0.0208
     21 C          -0.1242    2.0462   -1.6643 C.ar    1  UNL1       -0.0550
     22 C          -0.4403    3.2270   -2.3340 C.ar    1  UNL1       -0.0431
     23 C          -0.7429    4.3799   -1.6297 C.ar    1  UNL1        0.0410
     24 CL         -1.1445    5.8812   -2.4162 Cl      1  UNL1       -0.0835
     25 C          -0.7298    4.3538   -0.2489 C.ar    1  UNL1       -0.0431
     26 C          -0.4154    3.1790    0.3775 C.ar    1  UNL1       -0.0550
     27 C          -2.7137    0.1731    0.2824 C.ar    1  UNL1        0.0344
     28 N          -4.0356   -0.0667    0.2068 N.ar    1  UNL1       -0.2846
     29 C          -5.1141    0.6793    0.5382 C.ar    1  UNL1        0.1347
     30 C          -5.0833    2.0659    1.1165 C.3     1  UNL1       -0.0041
     31 N          -6.2013   -0.0492    0.2543 N.ar    1  UNL1       -0.1340
     32 N          -5.8257   -1.2162   -0.2399 N.ar    1  UNL1       -0.1292
     33 C          -4.4663   -1.2489   -0.2787 C.ar    1  UNL1        0.1641
     34 H          -3.1790   -4.1427   -1.4906 H       1  UNL1        0.0279
     35 H          -4.6726   -3.9954   -0.4767 H       1  UNL1        0.0279
     36 H          -4.6439   -3.2991   -2.1175 H       1  UNL1        0.0279
     37 H          -1.5030   -2.6985   -0.9392 H       1  UNL1        0.0640
     38 H           3.7071   -3.7788    2.0997 H       1  UNL1        0.0428
     39 H           4.9610   -2.5316    2.3228 H       1  UNL1        0.0428
     40 H           3.3044   -1.9958    1.9512 H       1  UNL1        0.0428
     41 H           5.2265   -4.7972    0.7267 H       1  UNL1        0.0428
     42 H           6.1433   -3.7676   -0.4205 H       1  UNL1        0.0428
     43 H           4.5457   -4.5468   -0.9174 H       1  UNL1        0.0428
     44 H           4.9691    0.6629    0.4602 H       1  UNL1        0.0817
     45 H           2.3882    2.7268    2.1869 H       1  UNL1        0.0456
     46 H           4.0126    2.8661    1.4599 H       1  UNL1        0.0456
     47 H           2.6183    3.3490    0.4640 H       1  UNL1        0.0456
     48 H          -0.0729    0.9411    1.5386 H       1  UNL1        0.0619
     49 H           0.1054    1.1708   -2.2397 H       1  UNL1        0.0621
     50 H          -0.4592    3.2801   -3.4180 H       1  UNL1        0.0632
     51 H          -0.9680    5.2619    0.3169 H       1  UNL1        0.0632
     52 H          -0.4055    3.1600    1.4761 H       1  UNL1        0.0621
     53 H          -2.4028    1.1254    0.6764 H       1  UNL1        0.0833
     54 H          -4.1512    2.5287    0.7409 H       1  UNL1        0.0308
     55 H          -4.9853    1.9794    2.2190 H       1  UNL1        0.0308
     56 H          -5.9923    2.5994    0.8045 H       1  UNL1        0.0308
@<TRIPOS>BOND
     1     1     2    1
     2     2     3   ar
     3     3     4   ar
     4     4     5    1
     5     5     6   am
     6     6     7    2
     7     6     8    1
     8     8     9   ar
     9     9    10    1
    10    10    11    2
    11    10    12   am
    12    12    13    1
    13    12    14    1
    14     9    15   ar
    15    15    16   ar
    16    16    17    1
    17    16    18   ar
    18    18    19    1
    19    19    20    1
    20    20    21   ar
    21    21    22   ar
    22    22    23   ar
    23    23    24    1
    24    23    25   ar
    25    25    26   ar
    26     4    27   ar
    27    27    28   ar
    28    28    29   ar
    29    29    30    1
    30    29    31   ar
    31    31    32   ar
    32    32    33   ar
    33    33     2   ar
    34    19     5    1
    35    26    20   ar
    36    33    28   ar
    37    18     8   ar
    38     1    34    1
    39     1    35    1
    40     1    36    1
    41     3    37    1
    42    13    38    1
    43    13    39    1
    44    13    40    1
    45    14    41    1
    46    14    42    1
    47    14    43    1
    48    15    44    1
    49    17    45    1
    50    17    46    1
    51    17    47    1
    52    19    48    1
    53    21    49    1
    54    22    50    1
    55    25    51    1
    56    26    52    1
    57    27    53    1
    58    30    54    1
    59    30    55    1
    60    30    56    1
