@<TRIPOS>MOLECULE
*****
 45 48 0 0 0
SMALL
GASTEIGER

@<TRIPOS>ATOM
      1 O           3.8416    0.4299    1.2593 O.2     1  UNL1       -0.2701
      2 C           4.4455    0.1138    0.2004 C.2     1  UNL1        0.2471
      3 N           5.8361    0.2369    0.1666 N.am    1  UNL1       -0.3084
      4 C           6.5378    0.7197    1.3581 C.3     1  UNL1        0.0235
      5 C           7.9117    0.2890    1.6091 C.3     1  UNL1       -0.0328
      6 C           7.6164    1.7304    1.1792 C.3     1  UNL1       -0.0328
      7 C           3.6713   -0.3596   -0.9300 C.ar    1  UNL1        0.0737
      8 C           2.2702   -0.2212   -0.9021 C.ar    1  UNL1       -0.0231
      9 C           1.4354   -0.6141   -1.9101 C.ar    1  UNL1        0.0640
     10 N           0.0420   -0.4474   -1.8144 N.pl3   1  UNL1       -0.3369
     11 C          -0.5847    0.1514   -0.6556 C.3     1  UNL1        0.0422
     12 C          -2.0742    0.1606   -0.8393 C.ar    1  UNL1        0.0280
     13 C          -2.9390    1.0083   -1.3833 C.ar    1  UNL1        0.0415
     14 N          -4.2237    0.6435   -1.3399 N.ar    1  UNL1       -0.2327
     15 C          -4.6762   -0.2719   -0.9119 C.ar    1  UNL1        0.1637
     16 N          -5.9847   -0.9317   -0.7164 N.pl3   1  UNL1       -0.2787
     17 C          -6.6730   -0.5854    0.4844 C.ar    1  UNL1        0.1243
     18 C          -7.5696    0.4632    0.3952 C.ar    1  UNL1       -0.0215
     19 C          -8.2793    0.8731    1.4979 C.ar    1  UNL1       -0.0571
     20 C          -8.0464    0.1871    2.6776 C.ar    1  UNL1       -0.0435
     21 C          -7.1464   -0.8527    2.7311 C.ar    1  UNL1        0.0297
     22 N          -6.4638   -1.2362    1.6388 N.ar    1  UNL1       -0.2401
     23 S          -3.1513   -1.1923   -0.2536 S.2     1  UNL1       -0.0555
     24 C           2.0219   -1.1840   -3.0252 C.ar    1  UNL1        0.1469
     25 F           1.2286   -1.5863   -4.0474 F       1  UNL1       -0.2035
     26 C           3.3886   -1.3498   -3.1181 C.ar    1  UNL1        0.0114
     27 C           4.1877   -0.9333   -2.0656 C.ar    1  UNL1        0.1383
     28 F           5.5078   -1.1335   -2.2114 F       1  UNL1       -0.2046
     29 H           6.4343    0.0093   -0.6745 H       1  UNL1        0.1493
     30 H           5.8909    0.8979    2.2340 H       1  UNL1        0.0498
     31 H           8.4991   -0.3370    0.9056 H       1  UNL1        0.0284
     32 H           8.2949    0.1872    2.6580 H       1  UNL1        0.0284
     33 H           7.8056    2.0421    0.1474 H       1  UNL1        0.0284
     34 H           7.7395    2.5323    1.9403 H       1  UNL1        0.0284
     35 H           1.8408    0.2266   -0.0205 H       1  UNL1        0.0645
     36 H          -0.5495   -0.7702   -2.6128 H       1  UNL1        0.1465
     37 H          -0.3427   -0.3958    0.2793 H       1  UNL1        0.0516
     38 H          -0.2858    1.2076   -0.6087 H       1  UNL1        0.0516
     39 H          -2.6406    1.9585   -1.8477 H       1  UNL1        0.0839
     40 H          -6.3492   -1.5898   -1.4136 H       1  UNL1        0.1555
     41 H          -7.7221    0.9705   -0.5408 H       1  UNL1        0.0652
     42 H          -8.9841    1.6898    1.4457 H       1  UNL1        0.0619
     43 H          -8.5610    0.4433    3.5936 H       1  UNL1        0.0633
     44 H          -6.9670   -1.3828    3.6480 H       1  UNL1        0.0830
     45 H           3.7665   -1.7971   -4.0091 H       1  UNL1        0.0676
@<TRIPOS>BOND
     1     1     2    2
     2     2     3   am
     3     3     4    1
     4     4     5    1
     5     5     6    1
     6     2     7    1
     7     7     8   ar
     8     8     9   ar
     9     9    10    1
    10    10    11    1
    11    11    12    1
    12    12    13   ar
    13    13    14   ar
    14    14    15   ar
    15    15    16    1
    16    16    17    1
    17    17    18   ar
    18    18    19   ar
    19    19    20   ar
    20    20    21   ar
    21    21    22   ar
    22    15    23   ar
    23     9    24   ar
    24    24    25    1
    25    24    26   ar
    26    26    27   ar
    27    27    28    1
    28     6     4    1
    29    27     7   ar
    30    23    12   ar
    31    22    17   ar
    32     3    29    1
    33     4    30    1
    34     5    31    1
    35     5    32    1
    36     6    33    1
    37     6    34    1
    38     8    35    1
    39    10    36    1
    40    11    37    1
    41    11    38    1
    42    13    39    1
    43    16    40    1
    44    18    41    1
    45    19    42    1
    46    20    43    1
    47    21    44    1
    48    26    45    1
