@<TRIPOS>MOLECULE
*****
 35 36 0 0 0
SMALL
GASTEIGER

@<TRIPOS>ATOM
      1 C          -3.8349    0.9268   -1.7570 C.3     1  UNL1        0.0120
      2 N          -3.9723    0.7941   -0.3107 N.ar    1  UNL1       -0.3462
      3 C          -4.9216    1.3688    0.4443 C.ar    1  UNL1        0.0050
      4 C          -4.7152    1.0021    1.7616 C.ar    1  UNL1       -0.0435
      5 C          -3.6027    0.1872    1.7430 C.ar    1  UNL1       -0.0317
      6 C          -3.1436    0.0608    0.4501 C.ar    1  UNL1        0.1041
      7 C          -1.9734   -0.7170   -0.0175 C.2     1  UNL1        0.2608
      8 O          -1.6818   -0.6876   -1.2325 O.2     1  UNL1       -0.2686
      9 N          -1.2096   -1.4710    0.8829 N.am    1  UNL1       -0.3060
     10 C          -0.0735   -2.2302    0.4792 C.3     1  UNL1        0.0372
     11 C           1.1649   -1.4535    0.2629 C.ar    1  UNL1       -0.0303
     12 C           2.0401   -1.1825    1.3242 C.ar    1  UNL1       -0.0564
     13 C           3.2006   -0.4692    1.1371 C.ar    1  UNL1       -0.0493
     14 C           3.5754    0.0258   -0.1156 C.ar    1  UNL1        0.0387
     15 C           4.8193    0.7705   -0.2435 C.2     1  UNL1        0.2665
     16 O           5.5977    0.9551    0.7271 O.2     1  UNL1       -0.2681
     17 N           5.2100    1.3269   -1.4860 N.am    1  UNL1       -0.1935
     18 O           6.3940    2.0278   -1.5834 O.3     1  UNL1       -0.2949
     19 C           2.7176   -0.2409   -1.1527 C.ar    1  UNL1       -0.0493
     20 C           1.5320   -0.9691   -0.9653 C.ar    1  UNL1       -0.0564
     21 H          -2.9551    1.5688   -1.9544 H       1  UNL1        0.0456
     22 H          -3.7562   -0.0826   -2.2109 H       1  UNL1        0.0456
     23 H          -4.7365    1.3948   -2.2006 H       1  UNL1        0.0456
     24 H          -5.7396    2.0197    0.1371 H       1  UNL1        0.0809
     25 H          -5.3114    1.2989    2.6308 H       1  UNL1        0.0633
     26 H          -3.1658   -0.2767    2.6197 H       1  UNL1        0.0640
     27 H          -1.5465   -1.4311    1.8939 H       1  UNL1        0.1494
     28 H          -0.3046   -2.8016   -0.4704 H       1  UNL1        0.0512
     29 H           0.1892   -3.0456    1.2125 H       1  UNL1        0.0512
     30 H           1.7458   -1.5688    2.2958 H       1  UNL1        0.0621
     31 H           3.8789   -0.2619    1.9738 H       1  UNL1        0.0625
     32 H           4.6166    1.2175   -2.3333 H       1  UNL1        0.1825
     33 H           6.1099    2.9867   -1.6739 H       1  UNL1        0.2414
     34 H           2.9583    0.1160   -2.1349 H       1  UNL1        0.0625
     35 H           0.8938   -1.1587   -1.8262 H       1  UNL1        0.0621
@<TRIPOS>BOND
     1     1     2    1
     2     2     3   ar
     3     3     4   ar
     4     4     5   ar
     5     5     6   ar
     6     6     7    1
     7     7     8    2
     8     7     9   am
     9     9    10    1
    10    10    11    1
    11    11    12   ar
    12    12    13   ar
    13    13    14   ar
    14    14    15    1
    15    15    16    2
    16    15    17   am
    17    17    18    1
    18    14    19   ar
    19    19    20   ar
    20     6     2   ar
    21    20    11   ar
    22     1    21    1
    23     1    22    1
    24     1    23    1
    25     3    24    1
    26     4    25    1
    27     5    26    1
    28     9    27    1
    29    10    28    1
    30    10    29    1
    31    12    30    1
    32    13    31    1
    33    17    32    1
    34    18    33    1
    35    19    34    1
    36    20    35    1
