@<TRIPOS>MOLECULE
*****
 35 37 0 0 0
SMALL
GASTEIGER

@<TRIPOS>ATOM
      1 C           4.8722    1.3490   -0.4607 C.3     1  UNL1        0.0790
      2 O           4.8480   -0.0534   -0.3149 O.3     1  UNL1       -0.4914
      3 C           3.6608   -0.7301   -0.1585 C.ar    1  UNL1        0.1619
      4 C           2.4508   -0.0272   -0.1421 C.ar    1  UNL1       -0.0055
      5 C           1.2349   -0.6236    0.0081 C.ar    1  UNL1        0.0247
      6 C          -0.0648    0.0416    0.0349 C.ar    1  UNL1        0.1807
      7 O          -1.1552   -0.7285    0.1936 O.2     1  UNL1       -0.4507
      8 C          -2.3667   -0.2818    0.2363 C.ar    1  UNL1        0.1465
      9 C          -3.4607   -1.1187    0.4021 C.ar    1  UNL1        0.0231
     10 C          -4.7509   -0.6409    0.4475 C.ar    1  UNL1        0.1239
     11 O          -5.8475   -1.4900    0.6147 O.3     1  UNL1       -0.5065
     12 C          -4.9754    0.7124    0.3251 C.ar    1  UNL1        0.0223
     13 C          -3.8896    1.5498    0.1599 C.ar    1  UNL1        0.1348
     14 O          -4.0459    2.9341    0.0294 O.3     1  UNL1       -0.5058
     15 C          -2.5918    1.0729    0.1139 C.ar    1  UNL1        0.1092
     16 C          -1.5069    1.9053   -0.0508 C.ar    1  UNL1        0.2379
     17 O          -1.6507    3.1391   -0.1668 O.2     1  UNL1       -0.2830
     18 C          -0.1942    1.3886   -0.0937 C.ar    1  UNL1        0.2082
     19 O           0.8674    2.2483   -0.2595 O.3     1  UNL1       -0.5007
     20 C           1.2630   -2.0268    0.1502 C.ar    1  UNL1       -0.0473
     21 C           2.4184   -2.7462    0.1396 C.ar    1  UNL1       -0.0159
     22 C           3.6175   -2.0992   -0.0146 C.ar    1  UNL1        0.1585
     23 O           4.7867   -2.8318   -0.0249 O.3     1  UNL1       -0.5033
     24 H           4.3634    1.5981   -1.4179 H       1  UNL1        0.0660
     25 H           5.8957    1.7560   -0.4190 H       1  UNL1        0.0660
     26 H           4.2766    1.8448    0.3481 H       1  UNL1        0.0660
     27 H           2.5121    1.0174   -0.2540 H       1  UNL1        0.0662
     28 H          -3.2987   -2.1750    0.4986 H       1  UNL1        0.0691
     29 H          -5.7472   -2.4445    0.9478 H       1  UNL1        0.2921
     30 H          -5.9821    1.1077    0.3582 H       1  UNL1        0.0691
     31 H          -4.2541    3.4886    0.8611 H       1  UNL1        0.2922
     32 H           1.0270    2.8208   -1.0812 H       1  UNL1        0.2924
     33 H           0.3352   -2.5590    0.2728 H       1  UNL1        0.0626
     34 H           2.4201   -3.8243    0.2502 H       1  UNL1        0.0655
     35 H           4.9324   -3.5736    0.6532 H       1  UNL1        0.2923
@<TRIPOS>BOND
     1     1     2    1
     2     2     3    1
     3     3     4   ar
     4     4     5   ar
     5     5     6    1
     6     6     7   ar
     7     7     8   ar
     8     8     9   ar
     9     9    10   ar
    10    10    11    1
    11    10    12   ar
    12    12    13   ar
    13    13    14    1
    14    13    15   ar
    15    15    16   ar
    16    16    17    2
    17    16    18   ar
    18    18    19    1
    19     5    20   ar
    20    20    21   ar
    21    21    22   ar
    22    22    23    1
    23    22     3   ar
    24    18     6   ar
    25    15     8   ar
    26     1    24    1
    27     1    25    1
    28     1    26    1
    29     4    27    1
    30     9    28    1
    31    11    29    1
    32    12    30    1
    33    14    31    1
    34    19    32    1
    35    20    33    1
    36    21    34    1
    37    23    35    1
