@<TRIPOS>MOLECULE
*****
 63 65 0 0 0
SMALL
GASTEIGER

@<TRIPOS>ATOM
      1 C          -4.1952    0.7580    1.6309 C.3     1  UNL1       -0.0123
      2 N          -4.0741    1.1427    0.2517 N.3     1  UNL1       -0.2982
      3 C          -4.3532    0.0675   -0.6660 C.3     1  UNL1        0.0297
      4 C          -5.7991   -0.3540   -0.6448 C.3     1  UNL1        0.0796
      5 N          -6.6991    0.7175   -0.9968 N.pl3   1  UNL1       -0.2641
      6 C          -6.7411    1.2492   -2.3312 C.3     1  UNL1        0.0561
      7 C          -7.5507    1.2442    0.0128 C.cat   1  UNL1        0.3784
      8 N          -7.4082    2.4652    0.3624 N.pl3   1  UNL1       -0.1296
      9 N          -8.5302    0.4435    0.6193 N.pl3   1  UNL1       -0.2891
     10 C          -2.8324    1.8177   -0.0394 C.3     1  UNL1        0.0239
     11 C          -1.6472    1.0023    0.2322 C.ar    1  UNL1       -0.0333
     12 C          -1.0187    0.9614    1.4567 C.ar    1  UNL1       -0.0566
     13 C           0.0907    0.1844    1.6655 C.ar    1  UNL1       -0.0493
     14 C           0.6407   -0.6035    0.6516 C.ar    1  UNL1        0.0370
     15 C           1.8177   -1.4236    0.9171 C.2     1  UNL1        0.2483
     16 O           2.2380   -1.4812    2.0957 O.2     1  UNL1       -0.2699
     17 N           2.4945   -2.1448   -0.0876 N.am    1  UNL1       -0.2808
     18 C           3.6383   -2.9488    0.1586 C.ar    1  UNL1        0.0459
     19 C           3.5010   -4.2805    0.4337 C.ar    1  UNL1       -0.0384
     20 C           4.5774   -5.1131    0.6851 C.ar    1  UNL1       -0.0416
     21 C           5.8442   -4.5870    0.6594 C.ar    1  UNL1        0.0418
     22 CL          7.2237   -5.5998    0.9695 Cl      1  UNL1       -0.0835
     23 C           5.9782   -3.2253    0.3779 C.ar    1  UNL1       -0.0295
     24 C           4.9074   -2.3954    0.1276 C.ar    1  UNL1        0.0596
     25 C           5.1003   -0.9843   -0.1539 C.2     1  UNL1        0.2511
     26 O           4.0788   -0.2760   -0.3769 O.2     1  UNL1       -0.2697
     27 N           6.3501   -0.3489   -0.1946 N.am    1  UNL1       -0.2663
     28 C           6.4783    1.0659   -0.4760 C.ar    1  UNL1        0.1252
     29 C           6.6251    1.5537   -1.7373 C.ar    1  UNL1       -0.0201
     30 C           6.7469    2.8958   -1.9548 C.ar    1  UNL1       -0.0387
     31 C           6.7201    3.7762   -0.8717 C.ar    1  UNL1        0.0592
     32 CL          6.8731    5.5102   -1.0726 Cl      1  UNL1       -0.0820
     33 C           6.5689    3.2613    0.4137 C.ar    1  UNL1        0.0480
     34 N           6.4554    1.9447    0.5590 N.ar    1  UNL1       -0.2387
     35 C           0.0217   -0.5698   -0.5731 C.ar    1  UNL1       -0.0493
     36 C          -1.0932    0.2179   -0.7629 C.ar    1  UNL1       -0.0566
     37 H          -5.3016    0.7346    1.8562 H       1  UNL1        0.0391
     38 H          -3.8003    1.5883    2.2476 H       1  UNL1        0.0391
     39 H          -3.6932   -0.1599    1.9225 H       1  UNL1        0.0391
     40 H          -4.1231    0.4290   -1.6907 H       1  UNL1        0.0458
     41 H          -3.7275   -0.8332   -0.5028 H       1  UNL1        0.0458
     42 H          -6.1229   -0.8062    0.2878 H       1  UNL1        0.0669
     43 H          -5.9560   -1.1412   -1.4392 H       1  UNL1        0.0669
     44 H          -7.2428    0.4869   -2.9633 H       1  UNL1        0.0620
     45 H          -7.2715    2.2327   -2.3694 H       1  UNL1        0.0620
     46 H          -5.7221    1.4192   -2.7702 H       1  UNL1        0.0620
     47 H          -8.0113    2.8654    1.0883 H       1  UNL1        0.3062
     48 H          -8.3620    0.0272    1.5519 H       1  UNL1        0.2547
     49 H          -9.4295    0.2606    0.1429 H       1  UNL1        0.2547
     50 H          -2.7996    2.7556    0.5447 H       1  UNL1        0.0476
     51 H          -2.8969    2.1301   -1.1223 H       1  UNL1        0.0476
     52 H          -1.4029    1.5615    2.2954 H       1  UNL1        0.0621
     53 H           0.5537    0.1776    2.6323 H       1  UNL1        0.0625
     54 H           2.1713   -2.1129   -1.0780 H       1  UNL1        0.1552
     55 H           2.5159   -4.7535    0.4671 H       1  UNL1        0.0637
     56 H           4.4250   -6.1794    0.9029 H       1  UNL1        0.0633
     57 H           6.9883   -2.8242    0.3608 H       1  UNL1        0.0640
     58 H           7.2123   -0.9126   -0.0164 H       1  UNL1        0.1566
     59 H           6.6425    0.8382   -2.5610 H       1  UNL1        0.0652
     60 H           6.8636    3.2977   -2.9420 H       1  UNL1        0.0634
     61 H           6.5513    3.9720    1.2359 H       1  UNL1        0.0845
     62 H           0.4345   -1.1798   -1.3813 H       1  UNL1        0.0625
     63 H          -1.5233    0.1833   -1.7716 H       1  UNL1        0.0621
@<TRIPOS>BOND
     1     1     2    1
     2     2     3    1
     3     3     4    1
     4     4     5    1
     5     5     6    1
     6     5     7    1
     7     7     8    2
     8     7     9    1
     9     2    10    1
    10    10    11    1
    11    11    12   ar
    12    12    13   ar
    13    13    14   ar
    14    14    15    1
    15    15    16    2
    16    15    17   am
    17    17    18    1
    18    18    19   ar
    19    19    20   ar
    20    20    21   ar
    21    21    22    1
    22    21    23   ar
    23    23    24   ar
    24    24    25    1
    25    25    26    2
    26    25    27   am
    27    27    28    1
    28    28    29   ar
    29    29    30   ar
    30    30    31   ar
    31    31    32    1
    32    31    33   ar
    33    33    34   ar
    34    14    35   ar
    35    35    36   ar
    36    36    11   ar
    37    24    18   ar
    38    34    28   ar
    39     1    37    1
    40     1    38    1
    41     1    39    1
    42     3    40    1
    43     3    41    1
    44     4    42    1
    45     4    43    1
    46     6    44    1
    47     6    45    1
    48     6    46    1
    49     8    47    1
    50     9    48    1
    51     9    49    1
    52    10    50    1
    53    10    51    1
    54    12    52    1
    55    13    53    1
    56    17    54    1
    57    19    55    1
    58    20    56    1
    59    23    57    1
    60    27    58    1
    61    29    59    1
    62    30    60    1
    63    33    61    1
    64    35    62    1
    65    36    63    1
