
     RDKit          3D

 63 65  0  0  0  0  0  0  0  0999 V2000
   -4.1952    0.7580    1.6309 C   0  0  0  0  0  0  0  0  0  0  0  0
   -4.0741    1.1427    0.2517 N   0  0  0  0  0  0  0  0  0  0  0  0
   -4.3532    0.0675   -0.6660 C   0  0  0  0  0  0  0  0  0  0  0  0
   -5.7991   -0.3540   -0.6448 C   0  0  0  0  0  0  0  0  0  0  0  0
   -6.6991    0.7175   -0.9968 N   0  0  0  0  0  0  0  0  0  0  0  0
   -6.7411    1.2492   -2.3312 C   0  0  0  0  0  0  0  0  0  0  0  0
   -7.5507    1.2442    0.0128 C   0  0  0  0  0  0  0  0  0  0  0  0
   -7.4082    2.4652    0.3624 N   0  0  0  0  0  0  0  0  0  0  0  0
   -8.5302    0.4435    0.6193 N   0  0  0  0  0  0  0  0  0  0  0  0
   -2.8324    1.8177   -0.0394 C   0  0  0  0  0  0  0  0  0  0  0  0
   -1.6472    1.0023    0.2322 C   0  0  0  0  0  0  0  0  0  0  0  0
   -1.0187    0.9614    1.4567 C   0  0  0  0  0  0  0  0  0  0  0  0
    0.0907    0.1844    1.6655 C   0  0  0  0  0  0  0  0  0  0  0  0
    0.6407   -0.6035    0.6516 C   0  0  0  0  0  0  0  0  0  0  0  0
    1.8177   -1.4236    0.9171 C   0  0  0  0  0  0  0  0  0  0  0  0
    2.2380   -1.4812    2.0957 O   0  0  0  0  0  0  0  0  0  0  0  0
    2.4945   -2.1448   -0.0876 N   0  0  0  0  0  0  0  0  0  0  0  0
    3.6383   -2.9488    0.1586 C   0  0  0  0  0  0  0  0  0  0  0  0
    3.5010   -4.2805    0.4337 C   0  0  0  0  0  0  0  0  0  0  0  0
    4.5774   -5.1131    0.6851 C   0  0  0  0  0  0  0  0  0  0  0  0
    5.8442   -4.5870    0.6594 C   0  0  0  0  0  0  0  0  0  0  0  0
    7.2237   -5.5998    0.9695 Cl  0  0  0  0  0  0  0  0  0  0  0  0
    5.9782   -3.2253    0.3779 C   0  0  0  0  0  0  0  0  0  0  0  0
    4.9074   -2.3954    0.1276 C   0  0  0  0  0  0  0  0  0  0  0  0
    5.1003   -0.9843   -0.1539 C   0  0  0  0  0  0  0  0  0  0  0  0
    4.0788   -0.2760   -0.3769 O   0  0  0  0  0  0  0  0  0  0  0  0
    6.3501   -0.3489   -0.1946 N   0  0  0  0  0  0  0  0  0  0  0  0
    6.4783    1.0659   -0.4760 C   0  0  0  0  0  0  0  0  0  0  0  0
    6.6251    1.5537   -1.7373 C   0  0  0  0  0  0  0  0  0  0  0  0
    6.7469    2.8958   -1.9548 C   0  0  0  0  0  0  0  0  0  0  0  0
    6.7201    3.7762   -0.8717 C   0  0  0  0  0  0  0  0  0  0  0  0
    6.8731    5.5102   -1.0726 Cl  0  0  0  0  0  0  0  0  0  0  0  0
    6.5689    3.2613    0.4137 C   0  0  0  0  0  0  0  0  0  0  0  0
    6.4554    1.9447    0.5590 N   0  0  0  0  0  0  0  0  0  0  0  0
    0.0217   -0.5698   -0.5731 C   0  0  0  0  0  0  0  0  0  0  0  0
   -1.0932    0.2179   -0.7629 C   0  0  0  0  0  0  0  0  0  0  0  0
   -5.3016    0.7346    1.8562 H   0  0  0  0  0  0  0  0  0  0  0  0
   -3.8003    1.5883    2.2476 H   0  0  0  0  0  0  0  0  0  0  0  0
   -3.6932   -0.1599    1.9225 H   0  0  0  0  0  0  0  0  0  0  0  0
   -4.1231    0.4290   -1.6907 H   0  0  0  0  0  0  0  0  0  0  0  0
   -3.7275   -0.8332   -0.5028 H   0  0  0  0  0  0  0  0  0  0  0  0
   -6.1229   -0.8062    0.2878 H   0  0  0  0  0  0  0  0  0  0  0  0
   -5.9560   -1.1412   -1.4392 H   0  0  0  0  0  0  0  0  0  0  0  0
   -7.2428    0.4869   -2.9633 H   0  0  0  0  0  0  0  0  0  0  0  0
   -7.2715    2.2327   -2.3694 H   0  0  0  0  0  0  0  0  0  0  0  0
   -5.7221    1.4192   -2.7702 H   0  0  0  0  0  0  0  0  0  0  0  0
   -8.0113    2.8654    1.0883 H   0  0  0  0  0  0  0  0  0  0  0  0
   -8.3620    0.0272    1.5519 H   0  0  0  0  0  0  0  0  0  0  0  0
   -9.4295    0.2606    0.1429 H   0  0  0  0  0  0  0  0  0  0  0  0
   -2.7996    2.7556    0.5447 H   0  0  0  0  0  0  0  0  0  0  0  0
   -2.8969    2.1301   -1.1223 H   0  0  0  0  0  0  0  0  0  0  0  0
   -1.4029    1.5615    2.2954 H   0  0  0  0  0  0  0  0  0  0  0  0
    0.5537    0.1776    2.6323 H   0  0  0  0  0  0  0  0  0  0  0  0
    2.1713   -2.1129   -1.0780 H   0  0  0  0  0  0  0  0  0  0  0  0
    2.5159   -4.7535    0.4671 H   0  0  0  0  0  0  0  0  0  0  0  0
    4.4250   -6.1794    0.9029 H   0  0  0  0  0  0  0  0  0  0  0  0
    6.9883   -2.8242    0.3608 H   0  0  0  0  0  0  0  0  0  0  0  0
    7.2123   -0.9126   -0.0164 H   0  0  0  0  0  0  0  0  0  0  0  0
    6.6425    0.8382   -2.5610 H   0  0  0  0  0  0  0  0  0  0  0  0
    6.8636    3.2977   -2.9420 H   0  0  0  0  0  0  0  0  0  0  0  0
    6.5513    3.9720    1.2359 H   0  0  0  0  0  0  0  0  0  0  0  0
    0.4345   -1.1798   -1.3813 H   0  0  0  0  0  0  0  0  0  0  0  0
   -1.5233    0.1833   -1.7716 H   0  0  0  0  0  0  0  0  0  0  0  0
  1  2  1  0
  2  3  1  0
  3  4  1  0
  4  5  1  0
  5  6  1  0
  5  7  1  0
  7  8  2  3
  7  9  1  0
  2 10  1  0
 10 11  1  0
 11 12  2  0
 12 13  1  0
 13 14  2  0
 14 15  1  0
 15 16  2  0
 15 17  1  0
 17 18  1  0
 18 19  2  0
 19 20  1  0
 20 21  2  0
 21 22  1  0
 21 23  1  0
 23 24  2  0
 24 25  1  0
 25 26  2  0
 25 27  1  0
 27 28  1  0
 28 29  2  0
 29 30  1  0
 30 31  2  0
 31 32  1  0
 31 33  1  0
 33 34  2  0
 14 35  1  0
 35 36  2  0
 36 11  1  0
 24 18  1  0
 34 28  1  0
  1 37  1  0
  1 38  1  0
  1 39  1  0
  3 40  1  0
  3 41  1  0
  4 42  1  0
  4 43  1  0
  6 44  1  0
  6 45  1  0
  6 46  1  0
  8 47  1  0
  9 48  1  0
  9 49  1  0
 10 50  1  0
 10 51  1  0
 12 52  1  0
 13 53  1  0
 17 54  1  0
 19 55  1  0
 20 56  1  0
 23 57  1  0
 27 58  1  0
 29 59  1  0
 30 60  1  0
 33 61  1  0
 35 62  1  0
 36 63  1  0
M  END
$$$$
