@<TRIPOS>MOLECULE
*****
 28 30 0 0 0
SMALL
GASTEIGER

@<TRIPOS>ATOM
      1 O          -4.8635   -2.5503   -1.2265 O.2     1  UNL1       -0.2451
      2 C          -4.6642   -1.6970   -0.3344 C.2     1  UNL1        0.3368
      3 O          -5.7320   -1.4867    0.5724 O.3     1  UNL1       -0.4771
      4 C          -3.4311   -0.9383   -0.1943 C.ar    1  UNL1        0.0599
      5 C          -3.2083   -0.0184    0.8010 C.ar    1  UNL1       -0.0471
      6 C          -2.0557    0.7048    0.9353 C.ar    1  UNL1       -0.0513
      7 C          -0.9983    0.5255    0.0126 C.ar    1  UNL1        0.0079
      8 C           0.1867    1.1812    0.0308 C.ar    1  UNL1        0.0606
      9 CL          0.6727    2.4274    1.2386 Cl      1  UNL1       -0.0820
     10 C           1.0803    0.8753   -0.9536 C.ar    1  UNL1        0.0289
     11 C           2.4591    1.3925   -1.2245 C.3     1  UNL1        0.0567
     12 N           3.3892    0.7342   -0.3624 N.ar    1  UNL1       -0.3319
     13 C           4.0116   -0.4176   -0.6496 C.ar    1  UNL1        0.0244
     14 C           4.8413   -0.7350    0.3876 C.ar    1  UNL1        0.0454
     15 N           4.7136    0.2343    1.3018 N.ar    1  UNL1       -0.2441
     16 C           3.8183    1.1325    0.8306 C.ar    1  UNL1        0.0962
     17 S           0.2531   -0.3379   -1.9077 S.2     1  UNL1       -0.0899
     18 C          -1.2384   -0.3757   -0.9484 C.ar    1  UNL1        0.0219
     19 C          -2.3990   -1.1212   -1.1066 C.ar    1  UNL1       -0.0334
     20 H          -6.2818   -2.2902    0.8768 H       1  UNL1        0.2954
     21 H          -4.0500    0.1019    1.5072 H       1  UNL1        0.0626
     22 H          -2.0087    1.3928    1.7556 H       1  UNL1        0.0624
     23 H           2.6405    1.1919   -2.3228 H       1  UNL1        0.0547
     24 H           2.3922    2.4822   -1.0252 H       1  UNL1        0.0547
     25 H           3.8608   -0.9857   -1.5656 H       1  UNL1        0.0825
     26 H           5.4911   -1.6287    0.4463 H       1  UNL1        0.0845
     27 H           3.5777    2.0103    1.4278 H       1  UNL1        0.1029
     28 H          -2.4573   -1.8042   -1.9105 H       1  UNL1        0.0637
@<TRIPOS>BOND
     1     1     2    2
     2     2     3    1
     3     2     4    1
     4     4     5   ar
     5     5     6   ar
     6     6     7   ar
     7     7     8   ar
     8     8     9    1
     9     8    10   ar
    10    10    11    1
    11    11    12    1
    12    12    13   ar
    13    13    14   ar
    14    14    15   ar
    15    15    16   ar
    16    10    17   ar
    17    17    18   ar
    18    18    19   ar
    19    19     4   ar
    20    18     7   ar
    21    16    12   ar
    22     3    20    1
    23     5    21    1
    24     6    22    1
    25    11    23    1
    26    11    24    1
    27    13    25    1
    28    14    26    1
    29    16    27    1
    30    19    28    1
