
     RDKit          3D

 28 30  0  0  0  0  0  0  0  0999 V2000
   -4.8635   -2.5503   -1.2265 O   0  0  0  0  0  0  0  0  0  0  0  0
   -4.6642   -1.6970   -0.3344 C   0  0  0  0  0  0  0  0  0  0  0  0
   -5.7320   -1.4867    0.5724 O   0  0  0  0  0  0  0  0  0  0  0  0
   -3.4311   -0.9383   -0.1943 C   0  0  0  0  0  0  0  0  0  0  0  0
   -3.2083   -0.0184    0.8010 C   0  0  0  0  0  0  0  0  0  0  0  0
   -2.0557    0.7048    0.9353 C   0  0  0  0  0  0  0  0  0  0  0  0
   -0.9983    0.5255    0.0126 C   0  0  0  0  0  0  0  0  0  0  0  0
    0.1867    1.1812    0.0308 C   0  0  0  0  0  0  0  0  0  0  0  0
    0.6727    2.4274    1.2386 Cl  0  0  0  0  0  0  0  0  0  0  0  0
    1.0803    0.8753   -0.9536 C   0  0  0  0  0  0  0  0  0  0  0  0
    2.4591    1.3925   -1.2245 C   0  0  0  0  0  0  0  0  0  0  0  0
    3.3892    0.7342   -0.3624 N   0  0  0  0  0  0  0  0  0  0  0  0
    4.0116   -0.4176   -0.6496 C   0  0  0  0  0  0  0  0  0  0  0  0
    4.8413   -0.7350    0.3876 C   0  0  0  0  0  0  0  0  0  0  0  0
    4.7136    0.2343    1.3018 N   0  0  0  0  0  0  0  0  0  0  0  0
    3.8183    1.1325    0.8306 C   0  0  0  0  0  0  0  0  0  0  0  0
    0.2531   -0.3379   -1.9077 S   0  0  0  0  0  0  0  0  0  0  0  0
   -1.2384   -0.3757   -0.9484 C   0  0  0  0  0  0  0  0  0  0  0  0
   -2.3990   -1.1212   -1.1066 C   0  0  0  0  0  0  0  0  0  0  0  0
   -6.2818   -2.2902    0.8768 H   0  0  0  0  0  0  0  0  0  0  0  0
   -4.0500    0.1019    1.5072 H   0  0  0  0  0  0  0  0  0  0  0  0
   -2.0087    1.3928    1.7556 H   0  0  0  0  0  0  0  0  0  0  0  0
    2.6405    1.1919   -2.3228 H   0  0  0  0  0  0  0  0  0  0  0  0
    2.3922    2.4822   -1.0252 H   0  0  0  0  0  0  0  0  0  0  0  0
    3.8608   -0.9857   -1.5656 H   0  0  0  0  0  0  0  0  0  0  0  0
    5.4911   -1.6287    0.4463 H   0  0  0  0  0  0  0  0  0  0  0  0
    3.5777    2.0103    1.4278 H   0  0  0  0  0  0  0  0  0  0  0  0
   -2.4573   -1.8042   -1.9105 H   0  0  0  0  0  0  0  0  0  0  0  0
  1  2  2  0
  2  3  1  0
  2  4  1  0
  4  5  2  0
  5  6  1  0
  6  7  2  0
  7  8  1  0
  8  9  1  0
  8 10  2  0
 10 11  1  0
 11 12  1  0
 12 13  1  0
 13 14  2  0
 14 15  1  0
 15 16  2  0
 10 17  1  0
 17 18  1  0
 18 19  2  0
 19  4  1  0
 18  7  1  0
 16 12  1  0
  3 20  1  0
  5 21  1  0
  6 22  1  0
 11 23  1  0
 11 24  1  0
 13 25  1  0
 14 26  1  0
 16 27  1  0
 19 28  1  0
M  END
$$$$
