@<TRIPOS>MOLECULE
*****
 61 68 0 0 0
SMALL
GASTEIGER

@<TRIPOS>ATOM
      1 C          -4.5758    2.1157   -1.0858 C.3     1  UNL1       -0.0155
      2 N          -4.0773    0.7425   -1.0700 N.3     1  UNL1       -0.3136
      3 C          -3.1298    0.6407    0.0151 C.3     1  UNL1        0.0423
      4 C          -1.9637    1.5755   -0.1225 C.3     1  UNL1        0.0107
      5 C          -1.1865    1.4831    1.1740 C.3     1  UNL1        0.1402
      6 O          -1.2832    0.3210    1.8227 O.3     1  UNL1       -0.3282
      7 C          -1.4597   -0.8576    1.0866 C.3     1  UNL1        0.1741
      8 C          -1.9408   -1.8534    2.1576 C.3     1  UNL1       -0.0136
      9 C          -2.5295   -0.7709    0.0511 C.3     1  UNL1        0.1214
     10 O          -2.1113   -1.0493   -1.2242 O.3     1  UNL1       -0.3735
     11 C          -2.9025   -2.0441   -1.8240 C.3     1  UNL1        0.0371
     12 N          -0.1688   -1.2930    0.5848 N.ar    1  UNL1       -0.3070
     13 C           0.1900   -2.5708    0.3038 C.ar    1  UNL1        0.0527
     14 C          -0.5267   -3.7480    0.3447 C.ar    1  UNL1       -0.0375
     15 C           0.1102   -4.9197   -0.0137 C.ar    1  UNL1       -0.0598
     16 C           1.4305   -4.9533   -0.4096 C.ar    1  UNL1       -0.0611
     17 C           2.1513   -3.7770   -0.4531 C.ar    1  UNL1       -0.0520
     18 C           1.5131   -2.6151   -0.0957 C.ar    1  UNL1        0.0081
     19 C           1.9880   -1.3245   -0.0657 C.ar    1  UNL1        0.0151
     20 C           3.2125   -0.7510   -0.3572 C.ar    1  UNL1       -0.0078
     21 C           3.3924    0.6226   -0.2337 C.ar    1  UNL1        0.0518
     22 C           2.3293    1.3938    0.1813 C.ar    1  UNL1        0.0221
     23 C           2.1346    2.7590    0.3928 C.ar    1  UNL1        0.0085
     24 C           2.9963    3.8188    0.2642 C.ar    1  UNL1       -0.0520
     25 C           2.4927    5.0993    0.5548 C.ar    1  UNL1       -0.0611
     26 C           1.1855    5.2543    0.9499 C.ar    1  UNL1       -0.0598
     27 C           0.3323    4.1830    1.0749 C.ar    1  UNL1       -0.0375
     28 C           0.8285    2.9115    0.7874 C.ar    1  UNL1        0.0524
     29 N           0.1961    1.7324    0.8367 N.ar    1  UNL1       -0.3115
     30 C           1.0912    0.8057    0.4753 C.ar    1  UNL1        0.0774
     31 C           0.9513   -0.5605    0.3446 C.ar    1  UNL1        0.0772
     32 C           4.7649    0.9188   -0.6002 C.2     1  UNL1        0.2453
     33 O           5.3914    1.9842   -0.6480 O.2     1  UNL1       -0.2702
     34 N           5.3944   -0.3269   -0.9457 N.am    1  UNL1       -0.3072
     35 C           4.4699   -1.4070   -0.8198 C.3     1  UNL1        0.0385
     36 H          -4.2552    2.6810   -0.1853 H       1  UNL1        0.0388
     37 H          -5.6800    2.1620   -1.1024 H       1  UNL1        0.0388
     38 H          -4.1295    2.6630   -1.9616 H       1  UNL1        0.0388
     39 H          -4.9139    0.1583   -0.7737 H       1  UNL1        0.1220
     40 H          -3.5836    0.8048    1.0110 H       1  UNL1        0.0489
     41 H          -1.3286    1.1947   -0.9731 H       1  UNL1        0.0325
     42 H          -2.2221    2.6044   -0.3546 H       1  UNL1        0.0325
     43 H          -1.5496    2.3133    1.8348 H       1  UNL1        0.0839
     44 H          -2.8814   -2.3564    1.8743 H       1  UNL1        0.0277
     45 H          -2.2524   -1.2928    3.1059 H       1  UNL1        0.0277
     46 H          -1.1329   -2.5031    2.5221 H       1  UNL1        0.0277
     47 H          -3.4138   -1.4352    0.2711 H       1  UNL1        0.0660
     48 H          -3.9690   -1.7423   -1.8903 H       1  UNL1        0.0524
     49 H          -2.8188   -2.9973   -1.2627 H       1  UNL1        0.0524
     50 H          -2.5483   -2.2633   -2.8519 H       1  UNL1        0.0524
     51 H          -1.5544   -3.7580    0.6285 H       1  UNL1        0.0638
     52 H          -0.4203   -5.8720    0.0056 H       1  UNL1        0.0618
     53 H           1.9439   -5.8556   -0.6921 H       1  UNL1        0.0618
     54 H           3.2076   -3.7856   -0.7672 H       1  UNL1        0.0624
     55 H           4.0230    3.7580   -0.0390 H       1  UNL1        0.0624
     56 H           3.1519    5.9513    0.4611 H       1  UNL1        0.0618
     57 H           0.7696    6.2416    1.1820 H       1  UNL1        0.0618
     58 H          -0.6968    4.2788    1.3830 H       1  UNL1        0.0638
     59 H           6.3913   -0.4620   -1.2519 H       1  UNL1        0.1493
     60 H           4.8554   -2.1003   -0.0434 H       1  UNL1        0.0512
     61 H           4.3172   -1.9276   -1.7922 H       1  UNL1        0.0512
@<TRIPOS>BOND
     1     1     2    1
     2     2     3    1
     3     3     4    1
     4     4     5    1
     5     5     6    1
     6     6     7    1
     7     7     8    1
     8     7     9    1
     9     9    10    1
    10    10    11    1
    11     7    12    1
    12    12    13   ar
    13    13    14   ar
    14    14    15   ar
    15    15    16   ar
    16    16    17   ar
    17    17    18   ar
    18    18    19   ar
    19    19    20   ar
    20    20    21   ar
    21    21    22   ar
    22    22    23   ar
    23    23    24   ar
    24    24    25   ar
    25    25    26   ar
    26    26    27   ar
    27    27    28   ar
    28    28    29   ar
    29    29    30   ar
    30    30    31   ar
    31    21    32    1
    32    32    33    2
    33    32    34   am
    34    34    35    1
    35     9     3    1
    36    31    12   ar
    37    29     5    1
    38    18    13   ar
    39    31    19   ar
    40    35    20    1
    41    30    22   ar
    42    28    23   ar
    43     1    36    1
    44     1    37    1
    45     1    38    1
    46     2    39    1
    47     3    40    1
    48     4    41    1
    49     4    42    1
    50     5    43    1
    51     8    44    1
    52     8    45    1
    53     8    46    1
    54     9    47    1
    55    11    48    1
    56    11    49    1
    57    11    50    1
    58    14    51    1
    59    15    52    1
    60    16    53    1
    61    17    54    1
    62    24    55    1
    63    25    56    1
    64    26    57    1
    65    27    58    1
    66    34    59    1
    67    35    60    1
    68    35    61    1
