
     RDKit          3D

 61 68  0  0  0  0  0  0  0  0999 V2000
   -4.5758    2.1157   -1.0858 C   0  0  0  0  0  0  0  0  0  0  0  0
   -4.0773    0.7425   -1.0700 N   0  0  0  0  0  0  0  0  0  0  0  0
   -3.1298    0.6407    0.0151 C   0  0  2  0  0  0  0  0  0  0  0  0
   -1.9637    1.5755   -0.1225 C   0  0  0  0  0  0  0  0  0  0  0  0
   -1.1865    1.4831    1.1740 C   0  0  1  0  0  0  0  0  0  0  0  0
   -1.2832    0.3210    1.8227 O   0  0  0  0  0  0  0  0  0  0  0  0
   -1.4597   -0.8576    1.0866 C   0  0  1  0  0  0  0  0  0  0  0  0
   -1.9408   -1.8534    2.1576 C   0  0  0  0  0  0  0  0  0  0  0  0
   -2.5295   -0.7709    0.0511 C   0  0  2  0  0  0  0  0  0  0  0  0
   -2.1113   -1.0493   -1.2242 O   0  0  0  0  0  0  0  0  0  0  0  0
   -2.9025   -2.0441   -1.8240 C   0  0  0  0  0  0  0  0  0  0  0  0
   -0.1688   -1.2930    0.5848 N   0  0  0  0  0  0  0  0  0  0  0  0
    0.1900   -2.5708    0.3038 C   0  0  0  0  0  0  0  0  0  0  0  0
   -0.5267   -3.7480    0.3447 C   0  0  0  0  0  0  0  0  0  0  0  0
    0.1102   -4.9197   -0.0137 C   0  0  0  0  0  0  0  0  0  0  0  0
    1.4305   -4.9533   -0.4096 C   0  0  0  0  0  0  0  0  0  0  0  0
    2.1513   -3.7770   -0.4531 C   0  0  0  0  0  0  0  0  0  0  0  0
    1.5131   -2.6151   -0.0957 C   0  0  0  0  0  0  0  0  0  0  0  0
    1.9880   -1.3245   -0.0657 C   0  0  0  0  0  0  0  0  0  0  0  0
    3.2125   -0.7510   -0.3572 C   0  0  0  0  0  0  0  0  0  0  0  0
    3.3924    0.6226   -0.2337 C   0  0  0  0  0  0  0  0  0  0  0  0
    2.3293    1.3938    0.1813 C   0  0  0  0  0  0  0  0  0  0  0  0
    2.1346    2.7590    0.3928 C   0  0  0  0  0  0  0  0  0  0  0  0
    2.9963    3.8188    0.2642 C   0  0  0  0  0  0  0  0  0  0  0  0
    2.4927    5.0993    0.5548 C   0  0  0  0  0  0  0  0  0  0  0  0
    1.1855    5.2543    0.9499 C   0  0  0  0  0  0  0  0  0  0  0  0
    0.3323    4.1830    1.0749 C   0  0  0  0  0  0  0  0  0  0  0  0
    0.8285    2.9115    0.7874 C   0  0  0  0  0  0  0  0  0  0  0  0
    0.1961    1.7324    0.8367 N   0  0  0  0  0  0  0  0  0  0  0  0
    1.0912    0.8057    0.4753 C   0  0  0  0  0  0  0  0  0  0  0  0
    0.9513   -0.5605    0.3446 C   0  0  0  0  0  0  0  0  0  0  0  0
    4.7649    0.9188   -0.6002 C   0  0  0  0  0  0  0  0  0  0  0  0
    5.3914    1.9842   -0.6480 O   0  0  0  0  0  0  0  0  0  0  0  0
    5.3944   -0.3269   -0.9457 N   0  0  0  0  0  0  0  0  0  0  0  0
    4.4699   -1.4070   -0.8198 C   0  0  0  0  0  0  0  0  0  0  0  0
   -4.2552    2.6810   -0.1853 H   0  0  0  0  0  0  0  0  0  0  0  0
   -5.6800    2.1620   -1.1024 H   0  0  0  0  0  0  0  0  0  0  0  0
   -4.1295    2.6630   -1.9616 H   0  0  0  0  0  0  0  0  0  0  0  0
   -4.9139    0.1583   -0.7737 H   0  0  0  0  0  0  0  0  0  0  0  0
   -3.5836    0.8048    1.0110 H   0  0  0  0  0  0  0  0  0  0  0  0
   -1.3286    1.1947   -0.9731 H   0  0  0  0  0  0  0  0  0  0  0  0
   -2.2221    2.6044   -0.3546 H   0  0  0  0  0  0  0  0  0  0  0  0
   -1.5496    2.3133    1.8348 H   0  0  0  0  0  0  0  0  0  0  0  0
   -2.8814   -2.3564    1.8743 H   0  0  0  0  0  0  0  0  0  0  0  0
   -2.2524   -1.2928    3.1059 H   0  0  0  0  0  0  0  0  0  0  0  0
   -1.1329   -2.5031    2.5221 H   0  0  0  0  0  0  0  0  0  0  0  0
   -3.4138   -1.4352    0.2711 H   0  0  0  0  0  0  0  0  0  0  0  0
   -3.9690   -1.7423   -1.8903 H   0  0  0  0  0  0  0  0  0  0  0  0
   -2.8188   -2.9973   -1.2627 H   0  0  0  0  0  0  0  0  0  0  0  0
   -2.5483   -2.2633   -2.8519 H   0  0  0  0  0  0  0  0  0  0  0  0
   -1.5544   -3.7580    0.6285 H   0  0  0  0  0  0  0  0  0  0  0  0
   -0.4203   -5.8720    0.0056 H   0  0  0  0  0  0  0  0  0  0  0  0
    1.9439   -5.8556   -0.6921 H   0  0  0  0  0  0  0  0  0  0  0  0
    3.2076   -3.7856   -0.7672 H   0  0  0  0  0  0  0  0  0  0  0  0
    4.0230    3.7580   -0.0390 H   0  0  0  0  0  0  0  0  0  0  0  0
    3.1519    5.9513    0.4611 H   0  0  0  0  0  0  0  0  0  0  0  0
    0.7696    6.2416    1.1820 H   0  0  0  0  0  0  0  0  0  0  0  0
   -0.6968    4.2788    1.3830 H   0  0  0  0  0  0  0  0  0  0  0  0
    6.3913   -0.4620   -1.2519 H   0  0  0  0  0  0  0  0  0  0  0  0
    4.8554   -2.1003   -0.0434 H   0  0  0  0  0  0  0  0  0  0  0  0
    4.3172   -1.9276   -1.7922 H   0  0  0  0  0  0  0  0  0  0  0  0
  1  2  1  0
  2  3  1  0
  3  4  1  0
  4  5  1  0
  5  6  1  0
  6  7  1  0
  7  8  1  1
  7  9  1  0
  9 10  1  0
 10 11  1  0
  7 12  1  0
 12 13  1  0
 13 14  2  0
 14 15  1  0
 15 16  2  0
 16 17  1  0
 17 18  2  0
 18 19  1  0
 19 20  2  0
 20 21  1  0
 21 22  2  0
 22 23  1  0
 23 24  2  0
 24 25  1  0
 25 26  2  0
 26 27  1  0
 27 28  2  0
 28 29  1  0
 29 30  1  0
 30 31  2  0
 21 32  1  0
 32 33  2  0
 32 34  1  0
 34 35  1  0
  9  3  1  0
 31 12  1  0
 29  5  1  0
 18 13  1  0
 31 19  1  0
 35 20  1  0
 30 22  1  0
 28 23  1  0
  1 36  1  0
  1 37  1  0
  1 38  1  0
  2 39  1  0
  3 40  1  1
  4 41  1  0
  4 42  1  0
  5 43  1  1
  8 44  1  0
  8 45  1  0
  8 46  1  0
  9 47  1  1
 11 48  1  0
 11 49  1  0
 11 50  1  0
 14 51  1  0
 15 52  1  0
 16 53  1  0
 17 54  1  0
 24 55  1  0
 25 56  1  0
 26 57  1  0
 27 58  1  0
 34 59  1  0
 35 60  1  0
 35 61  1  0
M  END
$$$$
