@<TRIPOS>MOLECULE
*****
 48 49 0 0 0
SMALL
GASTEIGER

@<TRIPOS>ATOM
      1 O           2.3224    2.2673   -2.3447 O.2     1  UNL1       -0.2489
      2 C           3.0943    1.4650   -1.8047 C.2     1  UNL1        0.3253
      3 OXT         4.4095    1.3185   -2.1395 O.3     1  UNL1       -0.4793
      4 CA          2.5277    0.5862   -0.6922 C.3     1  UNL1        0.1202
      5 C           2.7998   -0.8212   -1.0299 C.3     1  UNL1       -0.0241
      6 C           2.5468   -1.9363   -0.1307 C.3     1  UNL1       -0.0509
      7 C           1.2411   -2.5459    0.0982 C.3     1  UNL1       -0.0530
      8 C           0.0947   -1.7600    0.5655 C.3     1  UNL1       -0.0528
      9 C          -1.0947   -2.7346    0.8486 C.3     1  UNL1       -0.0491
     10 C          -2.2903   -1.8289    1.1894 C.3     1  UNL1       -0.0274
     11 C          -2.4869   -0.8734    0.0703 C.ar    1  UNL1       -0.0442
     12 C          -2.9807   -1.3982   -1.1213 C.ar    1  UNL1       -0.0583
     13 C          -3.1820   -0.6340   -2.2474 C.ar    1  UNL1       -0.0615
     14 C          -2.8727    0.7017   -2.1606 C.ar    1  UNL1       -0.0615
     15 C          -2.3790    1.2411   -0.9768 C.ar    1  UNL1       -0.0583
     16 C          -2.1783    0.4534    0.1647 C.ar    1  UNL1       -0.0434
     17 C          -1.6888    1.1047    1.3819 C.3     1  UNL1       -0.0156
     18 C          -0.6334    2.1290    1.1282 C.3     1  UNL1        0.0482
     19 C          -0.3685    2.7626    2.5266 C.3     1  UNL1        0.0021
     20 S           0.9040    4.0392    2.3826 S.3     1  UNL1       -0.1775
     21 C           0.6018    1.5853    0.5990 C.2     1  UNL1        0.2178
     22 O           1.6568    1.7273    1.4019 O.2     1  UNL1       -0.2755
     23 N           1.1248    0.9240   -0.5214 N.am    1  UNL1       -0.3021
     24 HXT         4.8860    2.0964   -2.6169 H       1  UNL1        0.2951
     25 HA          3.1743    0.8623    0.1656 H       1  UNL1        0.0614
     26 H           3.9208   -0.8371   -1.3349 H       1  UNL1        0.0288
     27 H           2.3314   -1.0941   -2.0460 H       1  UNL1        0.0288
     28 H           3.0601   -1.7636    0.8984 H       1  UNL1        0.0266
     29 H           3.2230   -2.8060   -0.5029 H       1  UNL1        0.0266
     30 H           1.4075   -3.3682    0.8874 H       1  UNL1        0.0265
     31 H           0.9495   -3.1562   -0.8150 H       1  UNL1        0.0265
     32 H          -0.3660   -1.1333   -0.2398 H       1  UNL1        0.0265
     33 H           0.2877   -1.1738    1.4553 H       1  UNL1        0.0265
     34 H          -0.7998   -3.3326    1.6976 H       1  UNL1        0.0268
     35 H          -1.2377   -3.3174   -0.0539 H       1  UNL1        0.0268
     36 H          -3.1785   -2.5245    1.1703 H       1  UNL1        0.0313
     37 H          -2.2387   -1.4013    2.1803 H       1  UNL1        0.0313
     38 H          -3.2216   -2.4491   -1.1820 H       1  UNL1        0.0620
     39 H          -3.5675   -1.0454   -3.1765 H       1  UNL1        0.0618
     40 H          -3.0107    1.3591   -3.0215 H       1  UNL1        0.0618
     41 H          -2.1597    2.2825   -0.9715 H       1  UNL1        0.0620
     42 H          -2.6081    1.5947    1.8513 H       1  UNL1        0.0321
     43 H          -1.3253    0.3402    2.1276 H       1  UNL1        0.0321
     44 H          -1.0915    2.9736    0.5701 H       1  UNL1        0.0405
     45 H          -0.1138    1.9680    3.2293 H       1  UNL1        0.0381
     46 H          -1.3160    3.2511    2.8312 H       1  UNL1        0.0381
     47 H           1.2588    4.2590    1.0300 H       1  UNL1        0.1017
     48 H           0.5672    0.6430   -1.3212 H       1  UNL1        0.1495
@<TRIPOS>BOND
     1     1     2    2
     2     2     3    1
     3     2     4    1
     4     4     5    1
     5     5     6    1
     6     6     7    1
     7     7     8    1
     8     8     9    1
     9     9    10    1
    10    10    11    1
    11    11    12   ar
    12    12    13   ar
    13    13    14   ar
    14    14    15   ar
    15    15    16   ar
    16    16    17    1
    17    17    18    1
    18    18    19    1
    19    19    20    1
    20    18    21    1
    21    21    22    2
    22    21    23   am
    23    23     4    1
    24    16    11   ar
    25     3    24    1
    26     4    25    1
    27     5    26    1
    28     5    27    1
    29     6    28    1
    30     6    29    1
    31     7    30    1
    32     7    31    1
    33     8    32    1
    34     8    33    1
    35     9    34    1
    36     9    35    1
    37    10    36    1
    38    10    37    1
    39    12    38    1
    40    13    39    1
    41    14    40    1
    42    15    41    1
    43    17    42    1
    44    17    43    1
    45    18    44    1
    46    19    45    1
    47    19    46    1
    48    20    47    1
    49    23    48    1
