
     RDKit          3D

 41 44  0  0  0  0  0  0  0  0999 V2000
    3.0889    2.4216    0.4725 C   0  0  0  0  0  0  0  0  0  0  0  0
    2.6558    1.0301    0.3065 N   0  0  0  0  0  0  0  0  0  0  0  0
    1.3663    0.6780    0.3161 C   0  0  0  0  0  0  0  0  0  0  0  0
    1.2539   -0.7012    0.1377 C   0  0  0  0  0  0  0  0  0  0  0  0
    2.5719   -1.1382    0.0221 C   0  0  0  0  0  0  0  0  0  0  0  0
    3.1002   -2.3840   -0.1666 C   0  0  0  0  0  0  0  0  0  0  0  0
    4.4770   -2.5308   -0.2462 C   0  0  0  0  0  0  0  0  0  0  0  0
    5.3074   -1.4291   -0.1361 C   0  0  0  0  0  0  0  0  0  0  0  0
    4.7921   -0.1602    0.0550 C   0  0  0  0  0  0  0  0  0  0  0  0
    3.4173   -0.0651    0.1277 C   0  0  0  0  0  0  0  0  0  0  0  0
   -0.0604   -1.3539    0.1084 C   0  0  0  0  0  0  0  0  0  0  0  0
   -0.0058   -2.5626   -0.2450 O   0  0  0  0  0  0  0  0  0  0  0  0
   -1.3072   -0.6384    0.4637 C   0  0  0  0  0  0  0  0  0  0  0  0
   -2.0656   -0.3593   -0.8109 C   0  0  0  0  0  0  0  0  0  0  0  0
   -3.3129    0.3482   -0.5342 N   0  0  0  0  0  0  0  0  0  0  0  0
   -3.3719    1.7051   -0.5050 C   0  0  0  0  0  0  0  0  0  0  0  0
   -4.6740    2.0776   -0.2206 C   0  0  0  0  0  0  0  0  0  0  0  0
   -5.3832    0.9364   -0.0821 N   0  0  0  0  0  0  0  0  0  0  0  0
   -4.5567   -0.0832   -0.2721 C   0  0  0  0  0  0  0  0  0  0  0  0
   -4.8807   -1.5351   -0.2201 C   0  0  0  0  0  0  0  0  0  0  0  0
   -0.9499    0.6239    1.2049 C   0  0  0  0  0  0  0  0  0  0  0  0
    0.0976    1.4327    0.4718 C   0  0  0  0  0  0  0  0  0  0  0  0
    2.5326    3.1221   -0.1485 H   0  0  0  0  0  0  0  0  0  0  0  0
    4.1601    2.4709    0.1432 H   0  0  0  0  0  0  0  0  0  0  0  0
    3.1190    2.6771    1.5528 H   0  0  0  0  0  0  0  0  0  0  0  0
    2.4686   -3.2458   -0.2535 H   0  0  0  0  0  0  0  0  0  0  0  0
    4.9725   -3.4908   -0.3954 H   0  0  0  0  0  0  0  0  0  0  0  0
    6.3880   -1.4880   -0.1912 H   0  0  0  0  0  0  0  0  0  0  0  0
    5.4160    0.7198    0.1446 H   0  0  0  0  0  0  0  0  0  0  0  0
   -1.8973   -1.2862    1.1459 H   0  0  0  0  0  0  0  0  0  0  0  0
   -1.4345    0.2004   -1.5055 H   0  0  0  0  0  0  0  0  0  0  0  0
   -2.2906   -1.3432   -1.2728 H   0  0  0  0  0  0  0  0  0  0  0  0
   -2.5842    2.4578   -0.6652 H   0  0  0  0  0  0  0  0  0  0  0  0
   -5.1241    3.0739   -0.1117 H   0  0  0  0  0  0  0  0  0  0  0  0
   -4.4553   -2.0406    0.6638 H   0  0  0  0  0  0  0  0  0  0  0  0
   -5.9838   -1.6839   -0.1805 H   0  0  0  0  0  0  0  0  0  0  0  0
   -4.5105   -2.0861   -1.1229 H   0  0  0  0  0  0  0  0  0  0  0  0
   -1.7985    1.2733    1.4233 H   0  0  0  0  0  0  0  0  0  0  0  0
   -0.4970    0.3139    2.1731 H   0  0  0  0  0  0  0  0  0  0  0  0
   -0.3090    1.6795   -0.5400 H   0  0  0  0  0  0  0  0  0  0  0  0
    0.2677    2.3631    1.0236 H   0  0  0  0  0  0  0  0  0  0  0  0
  1  2  1  0
  2  3  1  0
  3  4  2  0
  4  5  1  0
  5  6  2  0
  6  7  1  0
  7  8  2  0
  8  9  1  0
  9 10  2  0
  4 11  1  0
 11 12  2  0
 11 13  1  0
 13 14  1  0
 14 15  1  0
 15 16  1  0
 16 17  2  0
 17 18  1  0
 18 19  2  0
 19 20  1  0
 13 21  1  0
 21 22  1  0
 10  2  1  0
 19 15  1  0
 22  3  1  0
 10  5  1  0
  1 23  1  0
  1 24  1  0
  1 25  1  0
  6 26  1  0
  7 27  1  0
  8 28  1  0
  9 29  1  0
 13 30  1  0
 14 31  1  0
 14 32  1  0
 16 33  1  0
 17 34  1  0
 20 35  1  0
 20 36  1  0
 20 37  1  0
 21 38  1  0
 21 39  1  0
 22 40  1  0
 22 41  1  0
M  END
$$$$
