@<TRIPOS>MOLECULE
*****
 41 44 0 0 0
SMALL
GASTEIGER

@<TRIPOS>ATOM
      1 C           3.0889    2.4216    0.4725 C.3     1  UNL1        0.0121
      2 N           2.6558    1.0301    0.3065 N.ar    1  UNL1       -0.3462
      3 C           1.3663    0.6780    0.3161 C.ar    1  UNL1        0.0300
      4 C           1.2539   -0.7012    0.1377 C.ar    1  UNL1        0.0461
      5 C           2.5719   -1.1382    0.0221 C.ar    1  UNL1        0.0106
      6 C           3.1002   -2.3840   -0.1666 C.ar    1  UNL1       -0.0519
      7 C           4.4770   -2.5308   -0.2462 C.ar    1  UNL1       -0.0611
      8 C           5.3074   -1.4291   -0.1361 C.ar    1  UNL1       -0.0598
      9 C           4.7921   -0.1602    0.0550 C.ar    1  UNL1       -0.0376
     10 C           3.4173   -0.0651    0.1277 C.ar    1  UNL1        0.0497
     11 C          -0.0604   -1.3539    0.1084 C.2     1  UNL1        0.1702
     12 O          -0.0058   -2.5626   -0.2450 O.2     1  UNL1       -0.2916
     13 C          -1.3072   -0.6384    0.4637 C.3     1  UNL1        0.0405
     14 C          -2.0656   -0.3593   -0.8109 C.3     1  UNL1        0.0342
     15 N          -3.3129    0.3482   -0.5342 N.ar    1  UNL1       -0.3338
     16 C          -3.3719    1.7051   -0.5050 C.ar    1  UNL1        0.0243
     17 C          -4.6740    2.0776   -0.2206 C.ar    1  UNL1        0.0457
     18 N          -5.3832    0.9364   -0.0821 N.ar    1  UNL1       -0.2409
     19 C          -4.5567   -0.0832   -0.2721 C.ar    1  UNL1        0.1065
     20 C          -4.8807   -1.5351   -0.2201 C.3     1  UNL1       -0.0063
     21 C          -0.9499    0.6239    1.2049 C.3     1  UNL1       -0.0362
     22 C           0.0976    1.4327    0.4718 C.3     1  UNL1       -0.0109
     23 H           2.5326    3.1221   -0.1485 H       1  UNL1        0.0456
     24 H           4.1601    2.4709    0.1432 H       1  UNL1        0.0456
     25 H           3.1190    2.6771    1.5528 H       1  UNL1        0.0456
     26 H           2.4686   -3.2458   -0.2535 H       1  UNL1        0.0624
     27 H           4.9725   -3.4908   -0.3954 H       1  UNL1        0.0618
     28 H           6.3880   -1.4880   -0.1912 H       1  UNL1        0.0618
     29 H           5.4160    0.7198    0.1446 H       1  UNL1        0.0638
     30 H          -1.8973   -1.2862    1.1459 H       1  UNL1        0.0398
     31 H          -1.4345    0.2004   -1.5055 H       1  UNL1        0.0499
     32 H          -2.2906   -1.3432   -1.2728 H       1  UNL1        0.0499
     33 H          -2.5842    2.4578   -0.6652 H       1  UNL1        0.0825
     34 H          -5.1241    3.0739   -0.1117 H       1  UNL1        0.0845
     35 H          -4.4553   -2.0406    0.6638 H       1  UNL1        0.0307
     36 H          -5.9838   -1.6839   -0.1805 H       1  UNL1        0.0307
     37 H          -4.5105   -2.0861   -1.1229 H       1  UNL1        0.0307
     38 H          -1.7985    1.2733    1.4233 H       1  UNL1        0.0276
     39 H          -0.4970    0.3139    2.1731 H       1  UNL1        0.0276
     40 H          -0.3090    1.6795   -0.5400 H       1  UNL1        0.0328
     41 H           0.2677    2.3631    1.0236 H       1  UNL1        0.0328
@<TRIPOS>BOND
     1     1     2    1
     2     2     3   ar
     3     3     4   ar
     4     4     5   ar
     5     5     6   ar
     6     6     7   ar
     7     7     8   ar
     8     8     9   ar
     9     9    10   ar
    10     4    11    1
    11    11    12    2
    12    11    13    1
    13    13    14    1
    14    14    15    1
    15    15    16   ar
    16    16    17   ar
    17    17    18   ar
    18    18    19   ar
    19    19    20    1
    20    13    21    1
    21    21    22    1
    22    10     2   ar
    23    19    15   ar
    24    22     3    1
    25    10     5   ar
    26     1    23    1
    27     1    24    1
    28     1    25    1
    29     6    26    1
    30     7    27    1
    31     8    28    1
    32     9    29    1
    33    13    30    1
    34    14    31    1
    35    14    32    1
    36    16    33    1
    37    17    34    1
    38    20    35    1
    39    20    36    1
    40    20    37    1
    41    21    38    1
    42    21    39    1
    43    22    40    1
    44    22    41    1
