
     RDKit          3D

 47 50  0  0  0  0  0  0  0  0999 V2000
    9.3857    2.7239    0.6432 F   0  0  0  0  0  0  0  0  0  0  0  0
    8.4886    1.8118    0.2174 C   0  0  0  0  0  0  0  0  0  0  0  0
    7.7382    2.0022   -0.9523 C   0  0  0  0  0  0  0  0  0  0  0  0
    6.8431    1.0494   -1.3526 C   0  0  0  0  0  0  0  0  0  0  0  0
    6.5781   -0.1119   -0.7302 C   0  0  0  0  0  0  0  0  0  0  0  0
    5.7618   -1.3079   -0.9040 C   0  0  0  0  0  0  0  0  0  0  0  0
    4.3222   -1.1599   -0.6043 C   0  0  0  0  0  0  0  0  0  0  0  0
    4.4863    0.0973   -0.7405 O   0  0  0  0  0  0  0  0  0  0  0  0
    2.9595   -1.6289   -0.2699 N   0  0  0  0  0  0  0  0  0  0  0  0
    1.9662   -0.6485   -0.2479 C   0  0  0  0  0  0  0  0  0  0  0  0
    1.9895    0.5396   -0.5181 O   0  0  0  0  0  0  0  0  0  0  0  0
    0.8948   -1.5334    0.1789 N   0  0  0  0  0  0  0  0  0  0  0  0
   -0.4390   -1.0042    0.2590 C   0  0  0  0  0  0  0  0  0  0  0  0
   -0.8350    0.2910    0.0133 C   0  0  0  0  0  0  0  0  0  0  0  0
   -2.2068    0.5920    0.0480 C   0  0  0  0  0  0  0  0  0  0  0  0
   -2.4531    1.9100   -0.2182 F   0  0  0  0  0  0  0  0  0  0  0  0
   -3.1611   -0.3691    0.3250 C   0  0  0  0  0  0  0  0  0  0  0  0
   -4.3865    0.1878    0.2804 O   0  0  0  0  0  0  0  0  0  0  0  0
   -5.6443   -0.1873    0.4545 C   0  0  0  0  0  0  0  0  0  0  0  0
   -6.3666   -1.3063    0.8310 C   0  0  0  0  0  0  0  0  0  0  0  0
   -7.7092   -1.4630    0.9314 C   0  0  0  0  0  0  0  0  0  0  0  0
   -8.4260   -0.3765    0.6200 N   0  0  0  0  0  0  0  0  0  0  0  0
   -7.8731    0.7828    0.2336 C   0  0  0  0  0  0  0  0  0  0  0  0
   -6.4869    0.8697    0.1550 C   0  0  0  0  0  0  0  0  0  0  0  0
   -6.3694    2.1959   -0.2801 C   0  0  0  0  0  0  0  0  0  0  0  0
   -7.5934    2.8099   -0.4362 C   0  0  0  0  0  0  0  0  0  0  0  0
   -8.5246    1.9011   -0.1073 N   0  0  0  0  0  0  0  0  0  0  0  0
   -2.7647   -1.6436    0.5747 C   0  0  0  0  0  0  0  0  0  0  0  0
   -1.4186   -1.9159    0.5315 C   0  0  0  0  0  0  0  0  0  0  0  0
    7.3483   -0.2566    0.4383 C   0  0  0  0  0  0  0  0  0  0  0  0
    8.2854    0.6570    0.9294 C   0  0  0  0  0  0  0  0  0  0  0  0
    7.8606    2.8863   -1.5485 H   0  0  0  0  0  0  0  0  0  0  0  0
    6.2109    1.1050   -2.2352 H   0  0  0  0  0  0  0  0  0  0  0  0
    5.8249   -1.5359   -2.0237 H   0  0  0  0  0  0  0  0  0  0  0  0
    6.1762   -2.2306   -0.4385 H   0  0  0  0  0  0  0  0  0  0  0  0
    3.6284   -2.2764   -0.2875 H   0  0  0  0  0  0  0  0  0  0  0  0
    0.9793   -2.5541    0.4525 H   0  0  0  0  0  0  0  0  0  0  0  0
   -0.0864    1.0217   -0.1954 H   0  0  0  0  0  0  0  0  0  0  0  0
   -5.7269   -2.1252    1.0779 H   0  0  0  0  0  0  0  0  0  0  0  0
   -8.0796   -2.4374    1.2574 H   0  0  0  0  0  0  0  0  0  0  0  0
   -5.4059    2.6813   -0.4661 H   0  0  0  0  0  0  0  0  0  0  0  0
   -7.6928    3.8424   -0.7720 H   0  0  0  0  0  0  0  0  0  0  0  0
   -9.5485    2.0550   -0.1334 H   0  0  0  0  0  0  0  0  0  0  0  0
   -3.4773   -2.3800    0.7951 H   0  0  0  0  0  0  0  0  0  0  0  0
   -1.2374   -2.9801    0.7476 H   0  0  0  0  0  0  0  0  0  0  0  0
    7.3095   -1.1116    1.1333 H   0  0  0  0  0  0  0  0  0  0  0  0
    8.8758    0.5311    1.8210 H   0  0  0  0  0  0  0  0  0  0  0  0
  1  2  1  0
  2  3  2  0
  3  4  1  0
  4  5  2  0
  5  6  1  0
  6  7  1  0
  7  8  2  0
  7  9  1  0
  9 10  1  0
 10 11  2  0
 10 12  1  0
 12 13  1  0
 13 14  2  0
 14 15  1  0
 15 16  1  0
 15 17  2  0
 17 18  1  0
 18 19  1  0
 19 20  2  0
 20 21  1  0
 21 22  2  0
 22 23  1  0
 23 24  2  0
 24 25  1  0
 25 26  2  0
 26 27  1  0
 17 28  1  0
 28 29  2  0
  5 30  1  0
 30 31  2  0
 31  2  1  0
 29 13  1  0
 24 19  1  0
 27 23  1  0
  3 32  1  0
  4 33  1  0
  6 34  1  0
  6 35  1  0
  9 36  1  0
 12 37  1  0
 14 38  1  0
 20 39  1  0
 21 40  1  0
 25 41  1  0
 26 42  1  0
 27 43  1  0
 28 44  1  0
 29 45  1  0
 30 46  1  0
 31 47  1  0
M  END
$$$$
