@<TRIPOS>MOLECULE
*****
 57 61 0 0 0
SMALL
GASTEIGER

@<TRIPOS>ATOM
      1 N           6.4583   -0.9586   -1.9576 N.1     1  UNL1       -0.1908
      2 C           6.2132   -0.2241   -1.1075 C.1     1  UNL1        0.1026
      3 C           5.9328    0.6948   -0.0509 C.ar    1  UNL1        0.0914
      4 C           6.7732    1.8068    0.0535 C.ar    1  UNL1       -0.0396
      5 C           6.5687    2.6988    1.0714 C.ar    1  UNL1       -0.0422
      6 C           5.5547    2.5225    1.9911 C.ar    1  UNL1        0.0298
      7 N           4.7617    1.4578    1.8775 N.ar    1  UNL1       -0.2392
      8 C           4.9460    0.5448    0.8612 C.ar    1  UNL1        0.1364
      9 N           4.0276   -0.4973    0.8312 N.pl3   1  UNL1       -0.3236
     10 C           3.8846   -1.4999   -0.1645 C.3     1  UNL1        0.0392
     11 C           3.3391   -1.0002   -1.4624 C.3     1  UNL1       -0.0171
     12 C           1.8405   -1.3114   -1.4754 C.3     1  UNL1        0.0196
     13 N           1.6063   -1.8314   -0.1518 N.am    1  UNL1       -0.2656
     14 C           0.4288   -1.6889    0.6232 C.2     1  UNL1        0.4032
     15 O           0.3098   -2.1778    1.7754 O.2     1  UNL1       -0.2262
     16 O          -0.6276   -0.9942    0.1087 O.3     1  UNL1       -0.4464
     17 C          -1.8583   -0.7618    0.7410 C.3     1  UNL1        0.1103
     18 C          -2.0206    0.7417    0.8339 C.3     1  UNL1       -0.0023
     19 C          -2.0256    1.3044   -0.5877 C.3     1  UNL1       -0.0439
     20 C          -3.1807    0.7673   -1.3866 C.3     1  UNL1       -0.0394
     21 C          -3.0058   -0.7452   -1.4598 C.3     1  UNL1       -0.0439
     22 C          -3.0265   -1.2825   -0.0634 C.3     1  UNL1       -0.0023
     23 C          -4.3067   -0.8922    0.6379 C.3     1  UNL1       -0.0328
     24 C          -4.4462    0.6171    0.7169 C.3     1  UNL1        0.0477
     25 C          -5.7105    0.9268    1.3824 C.2     1  UNL1        0.2167
     26 N          -6.9518    0.4984    0.8578 N.am    1  UNL1       -0.3289
     27 O          -5.6982    1.5915    2.4499 O.2     1  UNL1       -0.2754
     28 C          -4.4591    1.1326   -0.7054 C.3     1  UNL1       -0.0362
     29 C          -3.3006    1.1409    1.5138 C.3     1  UNL1       -0.0328
     30 C           2.8097   -2.5360    0.2474 C.3     1  UNL1        0.0362
     31 H           7.5634    1.9526   -0.6559 H       1  UNL1        0.0632
     32 H           7.2136    3.5511    1.1506 H       1  UNL1        0.0633
     33 H           5.4604    3.2742    2.7668 H       1  UNL1        0.0830
     34 H           3.3304   -0.5936    1.6376 H       1  UNL1        0.1478
     35 H           4.7995   -2.1285   -0.2689 H       1  UNL1        0.0514
     36 H           3.7483   -1.4946   -2.3582 H       1  UNL1        0.0299
     37 H           3.4159    0.1119   -1.4962 H       1  UNL1        0.0299
     38 H           1.5920   -2.1192   -2.1900 H       1  UNL1        0.0466
     39 H           1.2323   -0.4075   -1.6752 H       1  UNL1        0.0466
     40 H          -1.9347   -1.1991    1.7458 H       1  UNL1        0.0740
     41 H          -1.1206    1.1331    1.3205 H       1  UNL1        0.0337
     42 H          -2.1809    2.4101   -0.4849 H       1  UNL1        0.0272
     43 H          -1.0530    1.1437   -1.0662 H       1  UNL1        0.0272
     44 H          -3.1221    1.1959   -2.3926 H       1  UNL1        0.0301
     45 H          -2.0188   -0.9309   -1.9150 H       1  UNL1        0.0272
     46 H          -3.8476   -1.1706   -2.0283 H       1  UNL1        0.0272
     47 H          -3.0270   -2.3913   -0.1282 H       1  UNL1        0.0337
     48 H          -5.1476   -1.3108    0.0623 H       1  UNL1        0.0279
     49 H          -4.2740   -1.3558    1.6435 H       1  UNL1        0.0279
     50 H          -7.5872   -0.0850    1.4397 H       1  UNL1        0.1449
     51 H          -7.2008    0.7822   -0.1114 H       1  UNL1        0.1449
     52 H          -5.2961    0.5822   -1.2193 H       1  UNL1        0.0278
     53 H          -4.6032    2.2119   -0.7718 H       1  UNL1        0.0278
     54 H          -3.2952    2.2337    1.6356 H       1  UNL1        0.0279
     55 H          -3.3416    0.6979    2.5182 H       1  UNL1        0.0279
     56 H           2.8896   -2.6637    1.3410 H       1  UNL1        0.0484
     57 H           2.9679   -3.4741   -0.2807 H       1  UNL1        0.0484
@<TRIPOS>BOND
     1     1     2    3
     2     2     3    1
     3     3     4   ar
     4     4     5   ar
     5     5     6   ar
     6     6     7   ar
     7     7     8   ar
     8     8     9    1
     9     9    10    1
    10    10    11    1
    11    11    12    1
    12    12    13    1
    13    13    14   am
    14    14    15    2
    15    14    16    1
    16    16    17    1
    17    17    18    1
    18    18    19    1
    19    19    20    1
    20    20    21    1
    21    21    22    1
    22    22    23    1
    23    23    24    1
    24    24    25    1
    25    25    26   am
    26    25    27    2
    27    24    28    1
    28    24    29    1
    29    13    30    1
    30     8     3   ar
    31    30    10    1
    32    22    17    1
    33    29    18    1
    34    28    20    1
    35     4    31    1
    36     5    32    1
    37     6    33    1
    38     9    34    1
    39    10    35    1
    40    11    36    1
    41    11    37    1
    42    12    38    1
    43    12    39    1
    44    17    40    1
    45    18    41    1
    46    19    42    1
    47    19    43    1
    48    20    44    1
    49    21    45    1
    50    21    46    1
    51    22    47    1
    52    23    48    1
    53    23    49    1
    54    26    50    1
    55    26    51    1
    56    28    52    1
    57    28    53    1
    58    29    54    1
    59    29    55    1
    60    30    56    1
    61    30    57    1
