@<TRIPOS>MOLECULE
*****
 56 59 0 0 0
SMALL
GASTEIGER

@<TRIPOS>ATOM
      1 O           7.2595    0.1346   -0.2161 O.3     1  UNL1       -0.3937
      2 C           6.1261    0.9508   -0.2559 C.3     1  UNL1        0.0569
      3 C           5.0362    0.2488    0.4803 C.3     1  UNL1        0.0222
      4 N           4.7239   -1.0222   -0.0980 N.3     1  UNL1       -0.2977
      5 C           3.6642   -1.7112    0.6291 C.3     1  UNL1        0.0118
      6 C           2.3501   -1.5197   -0.1108 C.3     1  UNL1        0.0117
      7 N           2.2290   -0.1383   -0.5076 N.3     1  UNL1       -0.2999
      8 C           0.9392    0.2277   -0.9985 C.3     1  UNL1        0.0004
      9 C          -0.1511    0.2170    0.0373 C.3     1  UNL1       -0.0240
     10 C          -1.4207    0.6351   -0.6992 C.3     1  UNL1        0.0185
     11 N          -2.5775    0.7035    0.1342 N.pl3   1  UNL1       -0.2983
     12 C          -2.6449    1.7855    1.0413 C.ar    1  UNL1        0.0479
     13 C          -1.6728    2.7605    1.0811 C.ar    1  UNL1       -0.0393
     14 C          -1.6629    3.8559    1.9188 C.ar    1  UNL1       -0.0599
     15 C          -2.6973    4.0293    2.8095 C.ar    1  UNL1       -0.0606
     16 C          -3.7142    3.0784    2.8197 C.ar    1  UNL1       -0.0462
     17 C          -3.6400    2.0256    1.9538 C.ar    1  UNL1        0.0341
     18 S          -5.0195    0.9086    2.0864 S.3     1  UNL1       -0.0857
     19 C          -4.7304   -0.3481    0.8558 C.ar    1  UNL1        0.0341
     20 C          -3.5951   -0.2813    0.0876 C.ar    1  UNL1        0.0484
     21 C          -3.5232   -1.3310   -0.8022 C.ar    1  UNL1       -0.0276
     22 C          -4.4518   -2.3384   -0.9348 C.ar    1  UNL1        0.0566
     23 C          -5.5629   -2.3248   -0.1202 C.ar    1  UNL1       -0.0490
     24 C          -5.6921   -1.2892    0.8002 C.ar    1  UNL1       -0.0457
     25 C          -4.3563   -3.4617   -1.9001 C.3     1  UNL1        0.4175
     26 F          -3.0269   -3.5976   -2.2364 F       1  UNL1       -0.1659
     27 F          -5.0297   -3.0738   -3.0421 F       1  UNL1       -0.1659
     28 F          -4.8672   -4.6432   -1.3741 F       1  UNL1       -0.1659
     29 C           3.1534    0.0355   -1.6435 C.3     1  UNL1        0.0117
     30 C           4.3626   -0.8475   -1.4884 C.3     1  UNL1        0.0118
     31 H           7.5843    0.0360    0.6976 H       1  UNL1        0.2095
     32 H           6.3743    1.8743    0.3281 H       1  UNL1        0.0570
     33 H           5.8519    1.3012   -1.2497 H       1  UNL1        0.0570
     34 H           4.1355    0.9017    0.4648 H       1  UNL1        0.0449
     35 H           5.3861    0.0577    1.5223 H       1  UNL1        0.0449
     36 H           3.8386   -2.7945    0.7408 H       1  UNL1        0.0439
     37 H           3.6059   -1.2417    1.6205 H       1  UNL1        0.0439
     38 H           1.5146   -1.8810    0.5198 H       1  UNL1        0.0439
     39 H           2.3449   -2.1263   -1.0372 H       1  UNL1        0.0439
     40 H           0.6287   -0.4839   -1.7888 H       1  UNL1        0.0427
     41 H           1.0112    1.2272   -1.4439 H       1  UNL1        0.0427
     42 H          -0.3489   -0.8881    0.2483 H       1  UNL1        0.0293
     43 H           0.0485    0.7055    0.9689 H       1  UNL1        0.0293
     44 H          -1.1658    1.6368   -1.1455 H       1  UNL1        0.0468
     45 H          -1.4362   -0.0558   -1.5340 H       1  UNL1        0.0468
     46 H          -0.8102    2.7705    0.4372 H       1  UNL1        0.0636
     47 H          -0.8990    4.6160    1.9459 H       1  UNL1        0.0618
     48 H          -2.7258    4.8698    3.4789 H       1  UNL1        0.0618
     49 H          -4.5068    3.2492    3.5308 H       1  UNL1        0.0629
     50 H          -2.7089   -1.4686   -1.4970 H       1  UNL1        0.0642
     51 H          -6.3148   -3.0943   -0.1914 H       1  UNL1        0.0623
     52 H          -6.5750   -1.3207    1.4147 H       1  UNL1        0.0629
     53 H           2.6007   -0.3434   -2.5351 H       1  UNL1        0.0439
     54 H           3.3780    1.0879   -1.8433 H       1  UNL1        0.0439
     55 H           4.1561   -1.8639   -1.9294 H       1  UNL1        0.0439
     56 H           5.2245   -0.4404   -2.0301 H       1  UNL1        0.0439
@<TRIPOS>BOND
     1     1     2    1
     2     2     3    1
     3     3     4    1
     4     4     5    1
     5     5     6    1
     6     6     7    1
     7     7     8    1
     8     8     9    1
     9     9    10    1
    10    10    11    1
    11    11    12    1
    12    12    13   ar
    13    13    14   ar
    14    14    15   ar
    15    15    16   ar
    16    16    17   ar
    17    17    18    1
    18    18    19    1
    19    19    20   ar
    20    20    21   ar
    21    21    22   ar
    22    22    23   ar
    23    23    24   ar
    24    22    25    1
    25    25    26    1
    26    25    27    1
    27    25    28    1
    28     7    29    1
    29    29    30    1
    30    30     4    1
    31    20    11    1
    32    17    12   ar
    33    24    19   ar
    34     1    31    1
    35     2    32    1
    36     2    33    1
    37     3    34    1
    38     3    35    1
    39     5    36    1
    40     5    37    1
    41     6    38    1
    42     6    39    1
    43     8    40    1
    44     8    41    1
    45     9    42    1
    46     9    43    1
    47    10    44    1
    48    10    45    1
    49    13    46    1
    50    14    47    1
    51    15    48    1
    52    16    49    1
    53    21    50    1
    54    23    51    1
    55    24    52    1
    56    29    53    1
    57    29    54    1
    58    30    55    1
    59    30    56    1
