@<TRIPOS>MOLECULE
*****
 76 80 0 0 0
SMALL
GASTEIGER

@<TRIPOS>ATOM
      1 C          -4.3643    5.4057    2.1762 C.3     1  UNL1       -0.0397
      2 C          -4.4655    4.0368    1.5864 C.ar    1  UNL1       -0.0503
      3 C          -4.6726    2.9509    2.4093 C.ar    1  UNL1       -0.0568
      4 C          -4.7679    1.6711    1.8739 C.ar    1  UNL1       -0.0359
      5 C          -4.6608    1.4372    0.5198 C.ar    1  UNL1        0.0674
      6 N          -4.7569    0.1269   -0.0271 N.ar    1  UNL1       -0.2181
      7 N          -5.6200   -0.1989   -0.9809 N.ar    1  UNL1       -0.1691
      8 C          -5.4933   -1.4978   -1.3090 C.ar    1  UNL1        0.0706
      9 C          -6.2702   -2.2768   -2.3335 C.3     1  UNL1        0.0063
     10 C          -7.4756   -2.8471   -1.5874 C.3     1  UNL1       -0.0546
     11 C          -5.4030   -3.3637   -2.9049 C.3     1  UNL1       -0.0546
     12 C          -6.7540   -1.3012   -3.3609 C.3     1  UNL1       -0.0546
     13 C          -4.4754   -1.9754   -0.4837 C.ar    1  UNL1        0.0021
     14 C          -4.0223   -0.9469    0.3151 C.ar    1  UNL1        0.1299
     15 N          -2.9955   -0.9984    1.2973 N.am    1  UNL1       -0.2538
     16 C          -1.6458   -0.7280    1.0000 C.2     1  UNL1        0.3092
     17 O          -1.3088   -0.4295   -0.1594 O.2     1  UNL1       -0.2521
     18 N          -0.6424   -0.7870    2.0031 N.am    1  UNL1       -0.2686
     19 C           0.7290   -0.5247    1.7758 C.ar    1  UNL1        0.0427
     20 C           1.2977    0.7251    1.8887 C.ar    1  UNL1       -0.0364
     21 C           2.6456    0.9471    1.6593 C.ar    1  UNL1       -0.0176
     22 C           3.4438   -0.1196    1.3065 C.ar    1  UNL1        0.1283
     23 O           4.8228    0.0226    1.0566 O.3     1  UNL1       -0.4901
     24 C           5.3511    1.3040    1.1836 C.3     1  UNL1        0.1023
     25 C           6.7967    1.4451    0.9193 C.3     1  UNL1        0.0333
     26 N           7.2790    1.0951   -0.3425 N.3     1  UNL1       -0.2948
     27 C           7.2753   -0.2473   -0.7538 C.3     1  UNL1        0.0225
     28 C           7.8196   -0.2956   -2.1882 C.3     1  UNL1        0.0604
     29 O           7.4601    0.8077   -2.9257 O.3     1  UNL1       -0.3772
     30 C           8.0037    2.0013   -2.4552 C.3     1  UNL1        0.0604
     31 C           8.2360    1.9489   -0.9563 C.3     1  UNL1        0.0225
     32 C           2.9071   -1.3933    1.1831 C.ar    1  UNL1        0.0256
     33 C           3.7163   -2.4651    0.8273 C.ar    1  UNL1       -0.0505
     34 C           3.1685   -3.7255    0.7085 C.ar    1  UNL1       -0.0611
     35 C           1.8261   -3.9168    0.9423 C.ar    1  UNL1       -0.0611
     36 C           1.0377   -2.8469    1.2936 C.ar    1  UNL1       -0.0521
     37 C           1.5656   -1.5587    1.4213 C.ar    1  UNL1        0.0069
     38 C          -4.4535    2.5363   -0.2904 C.ar    1  UNL1       -0.0359
     39 C          -4.3574    3.8146    0.2331 C.ar    1  UNL1       -0.0568
     40 H          -3.4207    5.4356    2.7508 H       1  UNL1        0.0278
     41 H          -4.3853    6.1348    1.3380 H       1  UNL1        0.0278
     42 H          -5.1885    5.6174    2.8889 H       1  UNL1        0.0278
     43 H          -4.7564    3.1377    3.4722 H       1  UNL1        0.0621
     44 H          -4.9305    0.8212    2.5199 H       1  UNL1        0.0639
     45 H          -7.7439   -3.8480   -1.9657 H       1  UNL1        0.0239
     46 H          -7.2243   -2.9616   -0.5233 H       1  UNL1        0.0239
     47 H          -8.3375   -2.1464   -1.6564 H       1  UNL1        0.0239
     48 H          -4.3545   -3.0864   -3.0094 H       1  UNL1        0.0239
     49 H          -5.8796   -3.7141   -3.8529 H       1  UNL1        0.0239
     50 H          -5.4601   -4.2397   -2.1992 H       1  UNL1        0.0239
     51 H          -6.3011   -1.4913   -4.3694 H       1  UNL1        0.0239
     52 H          -6.6008   -0.2429   -3.0543 H       1  UNL1        0.0239
     53 H          -7.8444   -1.4239   -3.4981 H       1  UNL1        0.0239
     54 H          -4.1264   -3.0064   -0.5029 H       1  UNL1        0.0671
     55 H          -3.2454   -1.2501    2.2994 H       1  UNL1        0.1578
     56 H          -0.9707   -1.0474    2.9733 H       1  UNL1        0.1564
     57 H           0.6455    1.5391    2.1666 H       1  UNL1        0.0637
     58 H           3.0971    1.9211    1.7452 H       1  UNL1        0.0655
     59 H           4.8047    1.9540    0.4360 H       1  UNL1        0.0709
     60 H           5.1296    1.7788    2.1662 H       1  UNL1        0.0709
     61 H           7.0741    2.5195    1.1184 H       1  UNL1        0.0460
     62 H           7.3620    0.8721    1.7060 H       1  UNL1        0.0460
     63 H           6.3328   -0.7847   -0.7566 H       1  UNL1        0.0449
     64 H           7.9963   -0.8424   -0.1529 H       1  UNL1        0.0449
     65 H           7.4633   -1.1921   -2.7271 H       1  UNL1        0.0572
     66 H           8.9344   -0.3041   -2.1294 H       1  UNL1        0.0572
     67 H           8.9819    2.2439   -2.9187 H       1  UNL1        0.0572
     68 H           7.3240    2.8494   -2.6728 H       1  UNL1        0.0572
     69 H           8.1223    2.9806   -0.5734 H       1  UNL1        0.0449
     70 H           9.2807    1.6477   -0.7140 H       1  UNL1        0.0449
     71 H           4.7691   -2.2993    0.6470 H       1  UNL1        0.0625
     72 H           3.8156   -4.5630    0.4281 H       1  UNL1        0.0618
     73 H           1.4380   -4.9185    0.8385 H       1  UNL1        0.0618
     74 H          -0.0209   -3.0031    1.4771 H       1  UNL1        0.0624
     75 H          -4.3632    2.3928   -1.3617 H       1  UNL1        0.0639
     76 H          -4.1939    4.6879   -0.3909 H       1  UNL1        0.0621
@<TRIPOS>BOND
     1     1     2    1
     2     2     3   ar
     3     3     4   ar
     4     4     5   ar
     5     5     6    1
     6     6     7   ar
     7     7     8   ar
     8     8     9    1
     9     9    10    1
    10     9    11    1
    11     9    12    1
    12     8    13   ar
    13    13    14   ar
    14    14    15    1
    15    15    16   am
    16    16    17    2
    17    16    18   am
    18    18    19    1
    19    19    20   ar
    20    20    21   ar
    21    21    22   ar
    22    22    23    1
    23    23    24    1
    24    24    25    1
    25    25    26    1
    26    26    27    1
    27    27    28    1
    28    28    29    1
    29    29    30    1
    30    30    31    1
    31    22    32   ar
    32    32    33   ar
    33    33    34   ar
    34    34    35   ar
    35    35    36   ar
    36    36    37   ar
    37     5    38   ar
    38    38    39   ar
    39    39     2   ar
    40    14     6   ar
    41    37    19   ar
    42    31    26    1
    43    37    32   ar
    44     1    40    1
    45     1    41    1
    46     1    42    1
    47     3    43    1
    48     4    44    1
    49    10    45    1
    50    10    46    1
    51    10    47    1
    52    11    48    1
    53    11    49    1
    54    11    50    1
    55    12    51    1
    56    12    52    1
    57    12    53    1
    58    13    54    1
    59    15    55    1
    60    18    56    1
    61    20    57    1
    62    21    58    1
    63    24    59    1
    64    24    60    1
    65    25    61    1
    66    25    62    1
    67    27    63    1
    68    27    64    1
    69    28    65    1
    70    28    66    1
    71    30    67    1
    72    30    68    1
    73    31    69    1
    74    31    70    1
    75    33    71    1
    76    34    72    1
    77    35    73    1
    78    36    74    1
    79    38    75    1
    80    39    76    1
