
     RDKit          3D

 76 80  0  0  0  0  0  0  0  0999 V2000
   -4.3643    5.4057    2.1762 C   0  0  0  0  0  0  0  0  0  0  0  0
   -4.4655    4.0368    1.5864 C   0  0  0  0  0  0  0  0  0  0  0  0
   -4.6726    2.9509    2.4093 C   0  0  0  0  0  0  0  0  0  0  0  0
   -4.7679    1.6711    1.8739 C   0  0  0  0  0  0  0  0  0  0  0  0
   -4.6608    1.4372    0.5198 C   0  0  0  0  0  0  0  0  0  0  0  0
   -4.7569    0.1269   -0.0271 N   0  0  0  0  0  0  0  0  0  0  0  0
   -5.6200   -0.1989   -0.9809 N   0  0  0  0  0  0  0  0  0  0  0  0
   -5.4933   -1.4978   -1.3090 C   0  0  0  0  0  0  0  0  0  0  0  0
   -6.2702   -2.2768   -2.3335 C   0  0  0  0  0  0  0  0  0  0  0  0
   -7.4756   -2.8471   -1.5874 C   0  0  0  0  0  0  0  0  0  0  0  0
   -5.4030   -3.3637   -2.9049 C   0  0  0  0  0  0  0  0  0  0  0  0
   -6.7540   -1.3012   -3.3609 C   0  0  0  0  0  0  0  0  0  0  0  0
   -4.4754   -1.9754   -0.4837 C   0  0  0  0  0  0  0  0  0  0  0  0
   -4.0223   -0.9469    0.3151 C   0  0  0  0  0  0  0  0  0  0  0  0
   -2.9955   -0.9984    1.2973 N   0  0  0  0  0  0  0  0  0  0  0  0
   -1.6458   -0.7280    1.0000 C   0  0  0  0  0  0  0  0  0  0  0  0
   -1.3088   -0.4295   -0.1594 O   0  0  0  0  0  0  0  0  0  0  0  0
   -0.6424   -0.7870    2.0031 N   0  0  0  0  0  0  0  0  0  0  0  0
    0.7290   -0.5247    1.7758 C   0  0  0  0  0  0  0  0  0  0  0  0
    1.2977    0.7251    1.8887 C   0  0  0  0  0  0  0  0  0  0  0  0
    2.6456    0.9471    1.6593 C   0  0  0  0  0  0  0  0  0  0  0  0
    3.4438   -0.1196    1.3065 C   0  0  0  0  0  0  0  0  0  0  0  0
    4.8228    0.0226    1.0566 O   0  0  0  0  0  0  0  0  0  0  0  0
    5.3511    1.3040    1.1836 C   0  0  0  0  0  0  0  0  0  0  0  0
    6.7967    1.4451    0.9193 C   0  0  0  0  0  0  0  0  0  0  0  0
    7.2790    1.0951   -0.3425 N   0  0  0  0  0  0  0  0  0  0  0  0
    7.2753   -0.2473   -0.7538 C   0  0  0  0  0  0  0  0  0  0  0  0
    7.8196   -0.2956   -2.1882 C   0  0  0  0  0  0  0  0  0  0  0  0
    7.4601    0.8077   -2.9257 O   0  0  0  0  0  0  0  0  0  0  0  0
    8.0037    2.0013   -2.4552 C   0  0  0  0  0  0  0  0  0  0  0  0
    8.2360    1.9489   -0.9563 C   0  0  0  0  0  0  0  0  0  0  0  0
    2.9071   -1.3933    1.1831 C   0  0  0  0  0  0  0  0  0  0  0  0
    3.7163   -2.4651    0.8273 C   0  0  0  0  0  0  0  0  0  0  0  0
    3.1685   -3.7255    0.7085 C   0  0  0  0  0  0  0  0  0  0  0  0
    1.8261   -3.9168    0.9423 C   0  0  0  0  0  0  0  0  0  0  0  0
    1.0377   -2.8469    1.2936 C   0  0  0  0  0  0  0  0  0  0  0  0
    1.5656   -1.5587    1.4213 C   0  0  0  0  0  0  0  0  0  0  0  0
   -4.4535    2.5363   -0.2904 C   0  0  0  0  0  0  0  0  0  0  0  0
   -4.3574    3.8146    0.2331 C   0  0  0  0  0  0  0  0  0  0  0  0
   -3.4207    5.4356    2.7508 H   0  0  0  0  0  0  0  0  0  0  0  0
   -4.3853    6.1348    1.3380 H   0  0  0  0  0  0  0  0  0  0  0  0
   -5.1885    5.6174    2.8889 H   0  0  0  0  0  0  0  0  0  0  0  0
   -4.7564    3.1377    3.4722 H   0  0  0  0  0  0  0  0  0  0  0  0
   -4.9305    0.8212    2.5199 H   0  0  0  0  0  0  0  0  0  0  0  0
   -7.7439   -3.8480   -1.9657 H   0  0  0  0  0  0  0  0  0  0  0  0
   -7.2243   -2.9616   -0.5233 H   0  0  0  0  0  0  0  0  0  0  0  0
   -8.3375   -2.1464   -1.6564 H   0  0  0  0  0  0  0  0  0  0  0  0
   -4.3545   -3.0864   -3.0094 H   0  0  0  0  0  0  0  0  0  0  0  0
   -5.8796   -3.7141   -3.8529 H   0  0  0  0  0  0  0  0  0  0  0  0
   -5.4601   -4.2397   -2.1992 H   0  0  0  0  0  0  0  0  0  0  0  0
   -6.3011   -1.4913   -4.3694 H   0  0  0  0  0  0  0  0  0  0  0  0
   -6.6008   -0.2429   -3.0543 H   0  0  0  0  0  0  0  0  0  0  0  0
   -7.8444   -1.4239   -3.4981 H   0  0  0  0  0  0  0  0  0  0  0  0
   -4.1264   -3.0064   -0.5029 H   0  0  0  0  0  0  0  0  0  0  0  0
   -3.2454   -1.2501    2.2994 H   0  0  0  0  0  0  0  0  0  0  0  0
   -0.9707   -1.0474    2.9733 H   0  0  0  0  0  0  0  0  0  0  0  0
    0.6455    1.5391    2.1666 H   0  0  0  0  0  0  0  0  0  0  0  0
    3.0971    1.9211    1.7452 H   0  0  0  0  0  0  0  0  0  0  0  0
    4.8047    1.9540    0.4360 H   0  0  0  0  0  0  0  0  0  0  0  0
    5.1296    1.7788    2.1662 H   0  0  0  0  0  0  0  0  0  0  0  0
    7.0741    2.5195    1.1184 H   0  0  0  0  0  0  0  0  0  0  0  0
    7.3620    0.8721    1.7060 H   0  0  0  0  0  0  0  0  0  0  0  0
    6.3328   -0.7847   -0.7566 H   0  0  0  0  0  0  0  0  0  0  0  0
    7.9963   -0.8424   -0.1529 H   0  0  0  0  0  0  0  0  0  0  0  0
    7.4633   -1.1921   -2.7271 H   0  0  0  0  0  0  0  0  0  0  0  0
    8.9344   -0.3041   -2.1294 H   0  0  0  0  0  0  0  0  0  0  0  0
    8.9819    2.2439   -2.9187 H   0  0  0  0  0  0  0  0  0  0  0  0
    7.3240    2.8494   -2.6728 H   0  0  0  0  0  0  0  0  0  0  0  0
    8.1223    2.9806   -0.5734 H   0  0  0  0  0  0  0  0  0  0  0  0
    9.2807    1.6477   -0.7140 H   0  0  0  0  0  0  0  0  0  0  0  0
    4.7691   -2.2993    0.6470 H   0  0  0  0  0  0  0  0  0  0  0  0
    3.8156   -4.5630    0.4281 H   0  0  0  0  0  0  0  0  0  0  0  0
    1.4380   -4.9185    0.8385 H   0  0  0  0  0  0  0  0  0  0  0  0
   -0.0209   -3.0031    1.4771 H   0  0  0  0  0  0  0  0  0  0  0  0
   -4.3632    2.3928   -1.3617 H   0  0  0  0  0  0  0  0  0  0  0  0
   -4.1939    4.6879   -0.3909 H   0  0  0  0  0  0  0  0  0  0  0  0
  1  2  1  0
  2  3  2  0
  3  4  1  0
  4  5  2  0
  5  6  1  0
  6  7  1  0
  7  8  2  0
  8  9  1  0
  9 10  1  0
  9 11  1  0
  9 12  1  0
  8 13  1  0
 13 14  2  0
 14 15  1  0
 15 16  1  0
 16 17  2  0
 16 18  1  0
 18 19  1  0
 19 20  2  0
 20 21  1  0
 21 22  2  0
 22 23  1  0
 23 24  1  0
 24 25  1  0
 25 26  1  0
 26 27  1  0
 27 28  1  0
 28 29  1  0
 29 30  1  0
 30 31  1  0
 22 32  1  0
 32 33  2  0
 33 34  1  0
 34 35  2  0
 35 36  1  0
 36 37  2  0
  5 38  1  0
 38 39  2  0
 39  2  1  0
 14  6  1  0
 37 19  1  0
 31 26  1  0
 37 32  1  0
  1 40  1  0
  1 41  1  0
  1 42  1  0
  3 43  1  0
  4 44  1  0
 10 45  1  0
 10 46  1  0
 10 47  1  0
 11 48  1  0
 11 49  1  0
 11 50  1  0
 12 51  1  0
 12 52  1  0
 12 53  1  0
 13 54  1  0
 15 55  1  0
 18 56  1  0
 20 57  1  0
 21 58  1  0
 24 59  1  0
 24 60  1  0
 25 61  1  0
 25 62  1  0
 27 63  1  0
 27 64  1  0
 28 65  1  0
 28 66  1  0
 30 67  1  0
 30 68  1  0
 31 69  1  0
 31 70  1  0
 33 71  1  0
 34 72  1  0
 35 73  1  0
 36 74  1  0
 38 75  1  0
 39 76  1  0
M  END
$$$$
