
     RDKit          3D

 89 93  0  0  0  0  0  0  0  0999 V2000
   -3.3767   -0.1162    1.5604 C   0  0  0  0  0  0  0  0  0  0  0  0
   -3.7320   -0.4875    0.2418 N   0  0  0  0  0  0  0  0  0  0  0  0
   -4.8424   -1.4229    0.1415 C   0  0  0  0  0  0  0  0  0  0  0  0
   -4.5163   -2.7585    0.6790 C   0  0  0  0  0  0  0  0  0  0  0  0
   -5.6447   -3.7369    0.5251 C   0  0  0  0  0  0  0  0  0  0  0  0
   -6.8223   -3.4869    1.0777 O   0  0  0  0  0  0  0  0  0  0  0  0
   -7.9283   -2.7915    1.1838 C   0  0  0  0  0  0  0  0  0  0  0  0
   -8.8868   -3.1254    2.1800 C   0  0  0  0  0  0  0  0  0  0  0  0
  -10.0480   -2.4244    2.3108 C   0  0  0  0  0  0  0  0  0  0  0  0
  -10.3614   -1.3622    1.4955 C   0  0  0  0  0  0  0  0  0  0  0  0
  -11.5274   -0.6531    1.6204 C   0  0  0  0  0  0  0  0  0  0  0  0
  -12.3732   -0.9416    2.4940 O   0  0  0  0  0  0  0  0  0  0  0  0
  -11.7959    0.4093    0.7717 C   0  0  0  0  0  0  0  0  0  0  0  0
  -12.9470    1.1587    0.8463 C   0  0  0  0  0  0  0  0  0  0  0  0
  -13.1719    2.2170   -0.0294 C   0  0  0  0  0  0  0  0  0  0  0  0
  -12.1809    2.4529   -0.9537 C   0  0  0  0  0  0  0  0  0  0  0  0
  -11.0674    1.7266   -1.0242 N   0  0  0  0  0  0  0  0  0  0  0  0
  -10.8356    0.6891   -0.1738 C   0  0  0  0  0  0  0  0  0  0  0  0
   -9.7315   -0.0135   -0.2614 O   0  0  0  0  0  0  0  0  0  0  0  0
   -9.4428   -1.0323    0.5301 C   0  0  0  0  0  0  0  0  0  0  0  0
   -8.2570   -1.7310    0.3801 C   0  0  0  0  0  0  0  0  0  0  0  0
   -2.6825   -0.7045   -0.6879 C   0  0  0  0  0  0  0  0  0  0  0  0
   -1.9007    0.5663   -0.8182 C   0  0  0  0  0  0  0  0  0  0  0  0
   -2.3151    1.4929   -1.7542 C   0  0  0  0  0  0  0  0  0  0  0  0
   -1.6009    2.6598   -1.8837 C   0  0  0  0  0  0  0  0  0  0  0  0
   -0.4780    2.8979   -1.0810 C   0  0  0  0  0  0  0  0  0  0  0  0
   -0.0786    1.9642   -0.1536 C   0  0  0  0  0  0  0  0  0  0  0  0
    1.0275    2.2059    0.6319 O   0  0  0  0  0  0  0  0  0  0  0  0
    2.3269    1.8620    0.2156 C   0  0  0  0  0  0  0  0  0  0  0  0
    2.4276    1.3222   -0.9093 O   0  0  0  0  0  0  0  0  0  0  0  0
    3.4342    2.1270    1.0465 N   0  0  0  0  0  0  0  0  0  0  0  0
    4.8096    1.7820    0.6302 C   0  0  0  0  0  0  0  0  0  0  0  0
    5.1395    2.5316   -0.6021 C   0  0  0  0  0  0  0  0  0  0  0  0
    6.4942    2.3881   -1.1861 C   0  0  0  0  0  0  0  0  0  0  0  0
    7.0016    1.1157   -1.6613 C   0  0  0  0  0  0  0  0  0  0  0  0
    7.1853   -0.0570   -0.8133 C   0  0  0  0  0  0  0  0  0  0  0  0
    8.0908    0.1257    0.3785 C   0  0  0  0  0  0  0  0  0  0  0  0
    9.4931    0.5322    0.0258 C   0  0  0  0  0  0  0  0  0  0  0  0
   10.0864   -0.4936   -0.8058 N   0  0  0  0  0  0  0  0  0  0  0  0
   11.4154   -0.0871   -1.2556 C   0  0  0  0  0  0  0  0  0  0  0  0
   12.4413   -0.3076   -0.1996 C   0  0  0  0  0  0  0  0  0  0  0  0
   12.4596   -1.6483    0.1785 O   0  0  0  0  0  0  0  0  0  0  0  0
   11.4976   -2.3918   -0.4627 C   0  0  0  0  0  0  0  0  0  0  0  0
   10.0963   -1.8019   -0.2311 C   0  0  0  0  0  0  0  0  0  0  0  0
   -0.7838    0.8036   -0.0203 C   0  0  0  0  0  0  0  0  0  0  0  0
   -4.3274    0.0131    2.1423 H   0  0  0  0  0  0  0  0  0  0  0  0
   -2.8971    0.8812    1.5334 H   0  0  0  0  0  0  0  0  0  0  0  0
   -2.7891   -0.8627    2.1137 H   0  0  0  0  0  0  0  0  0  0  0  0
   -5.2417   -1.3963   -0.8665 H   0  0  0  0  0  0  0  0  0  0  0  0
   -5.6150   -0.9767    0.8434 H   0  0  0  0  0  0  0  0  0  0  0  0
   -4.3164   -2.7255    1.7987 H   0  0  0  0  0  0  0  0  0  0  0  0
   -3.5557   -3.1721    0.2772 H   0  0  0  0  0  0  0  0  0  0  0  0
   -5.8123   -3.8746   -0.6122 H   0  0  0  0  0  0  0  0  0  0  0  0
   -5.2678   -4.7864    0.8026 H   0  0  0  0  0  0  0  0  0  0  0  0
   -8.6296   -3.9590    2.8105 H   0  0  0  0  0  0  0  0  0  0  0  0
  -10.7953   -2.6682    3.0727 H   0  0  0  0  0  0  0  0  0  0  0  0
  -13.6881    0.9237    1.5953 H   0  0  0  0  0  0  0  0  0  0  0  0
  -14.0811    2.7814    0.0553 H   0  0  0  0  0  0  0  0  0  0  0  0
  -12.3566    3.2894   -1.6487 H   0  0  0  0  0  0  0  0  0  0  0  0
   -7.5891   -1.4083   -0.4257 H   0  0  0  0  0  0  0  0  0  0  0  0
   -2.0263   -1.5648   -0.4359 H   0  0  0  0  0  0  0  0  0  0  0  0
   -3.0789   -0.9289   -1.6997 H   0  0  0  0  0  0  0  0  0  0  0  0
   -3.1932    1.2761   -2.3629 H   0  0  0  0  0  0  0  0  0  0  0  0
   -1.9112    3.4016   -2.6128 H   0  0  0  0  0  0  0  0  0  0  0  0
    0.0692    3.8193   -1.1970 H   0  0  0  0  0  0  0  0  0  0  0  0
    3.2301    2.5787    1.9701 H   0  0  0  0  0  0  0  0  0  0  0  0
    5.4470    2.0121    1.4837 H   0  0  0  0  0  0  0  0  0  0  0  0
    4.7756    0.6922    0.4031 H   0  0  0  0  0  0  0  0  0  0  0  0
    5.0163    3.6464   -0.3735 H   0  0  0  0  0  0  0  0  0  0  0  0
    4.4109    2.3292   -1.4380 H   0  0  0  0  0  0  0  0  0  0  0  0
    6.4911    3.1042   -2.0899 H   0  0  0  0  0  0  0  0  0  0  0  0
    7.1951    2.9459   -0.4972 H   0  0  0  0  0  0  0  0  0  0  0  0
    6.3056    0.7835   -2.5122 H   0  0  0  0  0  0  0  0  0  0  0  0
    7.9665    1.2795   -2.2582 H   0  0  0  0  0  0  0  0  0  0  0  0
    6.3050   -0.6325   -0.5134 H   0  0  0  0  0  0  0  0  0  0  0  0
    7.7650   -0.8407   -1.4412 H   0  0  0  0  0  0  0  0  0  0  0  0
    8.1501   -0.8582    0.8836 H   0  0  0  0  0  0  0  0  0  0  0  0
    7.6366    0.7931    1.1473 H   0  0  0  0  0  0  0  0  0  0  0  0
    9.5357    1.4732   -0.5597 H   0  0  0  0  0  0  0  0  0  0  0  0
   10.0369    0.6314    1.0011 H   0  0  0  0  0  0  0  0  0  0  0  0
   11.3567    1.0245   -1.4602 H   0  0  0  0  0  0  0  0  0  0  0  0
   11.6222   -0.5723   -2.2091 H   0  0  0  0  0  0  0  0  0  0  0  0
   13.4580   -0.1042   -0.6420 H   0  0  0  0  0  0  0  0  0  0  0  0
   12.2923    0.3832    0.6313 H   0  0  0  0  0  0  0  0  0  0  0  0
   11.6570   -2.4881   -1.5520 H   0  0  0  0  0  0  0  0  0  0  0  0
   11.5201   -3.4223   -0.0486 H   0  0  0  0  0  0  0  0  0  0  0  0
    9.4147   -2.4534   -0.8507 H   0  0  0  0  0  0  0  0  0  0  0  0
    9.8756   -1.8474    0.8481 H   0  0  0  0  0  0  0  0  0  0  0  0
   -0.4590    0.0727    0.7168 H   0  0  0  0  0  0  0  0  0  0  0  0
  1  2  1  0
  2  3  1  0
  3  4  1  0
  4  5  1  0
  5  6  1  0
  6  7  1  0
  7  8  2  0
  8  9  1  0
  9 10  2  0
 10 11  1  0
 11 12  2  0
 11 13  1  0
 13 14  2  0
 14 15  1  0
 15 16  2  0
 16 17  1  0
 17 18  2  0
 18 19  1  0
 19 20  1  0
 20 21  2  0
  2 22  1  0
 22 23  1  0
 23 24  2  0
 24 25  1  0
 25 26  2  0
 26 27  1  0
 27 28  1  0
 28 29  1  0
 29 30  2  0
 29 31  1  0
 31 32  1  0
 32 33  1  0
 33 34  1  0
 34 35  1  0
 35 36  1  0
 36 37  1  0
 37 38  1  0
 38 39  1  0
 39 40  1  0
 40 41  1  0
 41 42  1  0
 42 43  1  0
 43 44  1  0
 27 45  2  0
 21  7  1  0
 45 23  1  0
 20 10  1  0
 44 39  1  0
 18 13  1  0
  1 46  1  0
  1 47  1  0
  1 48  1  0
  3 49  1  0
  3 50  1  0
  4 51  1  0
  4 52  1  0
  5 53  1  0
  5 54  1  0
  8 55  1  0
  9 56  1  0
 14 57  1  0
 15 58  1  0
 16 59  1  0
 21 60  1  0
 22 61  1  0
 22 62  1  0
 24 63  1  0
 25 64  1  0
 26 65  1  0
 31 66  1  0
 32 67  1  0
 32 68  1  0
 33 69  1  0
 33 70  1  0
 34 71  1  0
 34 72  1  0
 35 73  1  0
 35 74  1  0
 36 75  1  0
 36 76  1  0
 37 77  1  0
 37 78  1  0
 38 79  1  0
 38 80  1  0
 40 81  1  0
 40 82  1  0
 41 83  1  0
 41 84  1  0
 43 85  1  0
 43 86  1  0
 44 87  1  0
 44 88  1  0
 45 89  1  0
M  END
$$$$
