@<TRIPOS>MOLECULE
*****
 89 93 0 0 0
SMALL
GASTEIGER

@<TRIPOS>ATOM
      1 C          -3.3767   -0.1162    1.5604 C.3     1  UNL1       -0.0124
      2 N          -3.7320   -0.4875    0.2418 N.3     1  UNL1       -0.3011
      3 C          -4.8424   -1.4229    0.1415 C.3     1  UNL1        0.0020
      4 C          -4.5163   -2.7585    0.6790 C.3     1  UNL1       -0.0058
      5 C          -5.6447   -3.7369    0.5251 C.3     1  UNL1        0.0907
      6 O          -6.8223   -3.4869    1.0777 O.3     1  UNL1       -0.4918
      7 C          -7.9283   -2.7915    1.1838 C.ar    1  UNL1        0.1240
      8 C          -8.8868   -3.1254    2.1800 C.ar    1  UNL1       -0.0190
      9 C         -10.0480   -2.4244    2.3108 C.ar    1  UNL1       -0.0439
     10 C         -10.3614   -1.3622    1.4955 C.ar    1  UNL1        0.0649
     11 C         -11.5274   -0.6531    1.6204 C.ar    1  UNL1        0.2018
     12 O         -12.3732   -0.9416    2.4940 O.2     1  UNL1       -0.2863
     13 C         -11.7959    0.4093    0.7717 C.ar    1  UNL1        0.0842
     14 C         -12.9470    1.1587    0.8463 C.ar    1  UNL1       -0.0443
     15 C         -13.1719    2.2170   -0.0294 C.ar    1  UNL1       -0.0427
     16 C         -12.1809    2.4529   -0.9537 C.ar    1  UNL1        0.0314
     17 N         -11.0674    1.7266   -1.0242 N.ar    1  UNL1       -0.2204
     18 C         -10.8356    0.6891   -0.1738 C.ar    1  UNL1        0.2314
     19 O          -9.7315   -0.0135   -0.2614 O.2     1  UNL1       -0.4365
     20 C          -9.4428   -1.0323    0.5301 C.ar    1  UNL1        0.1446
     21 C          -8.2570   -1.7310    0.3801 C.ar    1  UNL1        0.0232
     22 C          -2.6825   -0.7045   -0.6879 C.3     1  UNL1        0.0239
     23 C          -1.9007    0.5663   -0.8182 C.ar    1  UNL1       -0.0299
     24 C          -2.3151    1.4929   -1.7542 C.ar    1  UNL1       -0.0571
     25 C          -1.6009    2.6598   -1.8837 C.ar    1  UNL1       -0.0580
     26 C          -0.4780    2.8979   -1.0810 C.ar    1  UNL1       -0.0192
     27 C          -0.0786    1.9642   -0.1536 C.ar    1  UNL1        0.1335
     28 O           1.0275    2.2059    0.6319 O.3     1  UNL1       -0.4115
     29 C           2.3269    1.8620    0.2156 C.2     1  UNL1        0.4056
     30 O           2.4276    1.3222   -0.9093 O.2     1  UNL1       -0.2260
     31 N           3.4342    2.1270    1.0465 N.am    1  UNL1       -0.2808
     32 C           4.8096    1.7820    0.6302 C.3     1  UNL1        0.0147
     33 C           5.1395    2.5316   -0.6021 C.3     1  UNL1       -0.0373
     34 C           6.4942    2.3881   -1.1861 C.3     1  UNL1       -0.0516
     35 C           7.0016    1.1157   -1.6613 C.3     1  UNL1       -0.0530
     36 C           7.1853   -0.0570   -0.8133 C.3     1  UNL1       -0.0519
     37 C           8.0908    0.1257    0.3785 C.3     1  UNL1       -0.0402
     38 C           9.4931    0.5322    0.0258 C.3     1  UNL1       -0.0009
     39 N          10.0864   -0.4936   -0.8058 N.3     1  UNL1       -0.2980
     40 C          11.4154   -0.0871   -1.2556 C.3     1  UNL1        0.0224
     41 C          12.4413   -0.3076   -0.1996 C.3     1  UNL1        0.0604
     42 O          12.4596   -1.6483    0.1785 O.3     1  UNL1       -0.3772
     43 C          11.4976   -2.3918   -0.4627 C.3     1  UNL1        0.0604
     44 C          10.0963   -1.8019   -0.2311 C.3     1  UNL1        0.0224
     45 C          -0.7838    0.8036   -0.0203 C.ar    1  UNL1       -0.0148
     46 H          -4.3274    0.0131    2.1423 H       1  UNL1        0.0391
     47 H          -2.8971    0.8812    1.5334 H       1  UNL1        0.0391
     48 H          -2.7891   -0.8627    2.1137 H       1  UNL1        0.0391
     49 H          -5.2417   -1.3963   -0.8665 H       1  UNL1        0.0428
     50 H          -5.6150   -0.9767    0.8434 H       1  UNL1        0.0428
     51 H          -4.3164   -2.7255    1.7987 H       1  UNL1        0.0310
     52 H          -3.5557   -3.1721    0.2772 H       1  UNL1        0.0310
     53 H          -5.8123   -3.8746   -0.6122 H       1  UNL1        0.0697
     54 H          -5.2678   -4.7864    0.8026 H       1  UNL1        0.0697
     55 H          -8.6296   -3.9590    2.8105 H       1  UNL1        0.0654
     56 H         -10.7953   -2.6682    3.0727 H       1  UNL1        0.0627
     57 H         -13.6881    0.9237    1.5953 H       1  UNL1        0.0627
     58 H         -14.0811    2.7814    0.0553 H       1  UNL1        0.0633
     59 H         -12.3566    3.2894   -1.6487 H       1  UNL1        0.0831
     60 H          -7.5891   -1.4083   -0.4257 H       1  UNL1        0.0691
     61 H          -2.0263   -1.5648   -0.4359 H       1  UNL1        0.0476
     62 H          -3.0789   -0.9289   -1.6997 H       1  UNL1        0.0476
     63 H          -3.1932    1.2761   -2.3629 H       1  UNL1        0.0621
     64 H          -1.9112    3.4016   -2.6128 H       1  UNL1        0.0619
     65 H           0.0692    3.8193   -1.1970 H       1  UNL1        0.0654
     66 H           3.2301    2.5787    1.9701 H       1  UNL1        0.1520
     67 H           5.4470    2.0121    1.4837 H       1  UNL1        0.0463
     68 H           4.7756    0.6922    0.4031 H       1  UNL1        0.0463
     69 H           5.0163    3.6464   -0.3735 H       1  UNL1        0.0280
     70 H           4.4109    2.3292   -1.4380 H       1  UNL1        0.0280
     71 H           6.4911    3.1042   -2.0899 H       1  UNL1        0.0266
     72 H           7.1951    2.9459   -0.4972 H       1  UNL1        0.0266
     73 H           6.3056    0.7835   -2.5122 H       1  UNL1        0.0265
     74 H           7.9665    1.2795   -2.2582 H       1  UNL1        0.0265
     75 H           6.3050   -0.6325   -0.5134 H       1  UNL1        0.0266
     76 H           7.7650   -0.8407   -1.4412 H       1  UNL1        0.0266
     77 H           8.1501   -0.8582    0.8836 H       1  UNL1        0.0278
     78 H           7.6366    0.7931    1.1473 H       1  UNL1        0.0278
     79 H           9.5357    1.4732   -0.5597 H       1  UNL1        0.0427
     80 H          10.0369    0.6314    1.0011 H       1  UNL1        0.0427
     81 H          11.3567    1.0245   -1.4602 H       1  UNL1        0.0449
     82 H          11.6222   -0.5723   -2.2091 H       1  UNL1        0.0449
     83 H          13.4580   -0.1042   -0.6420 H       1  UNL1        0.0572
     84 H          12.2923    0.3832    0.6313 H       1  UNL1        0.0572
     85 H          11.6570   -2.4881   -1.5520 H       1  UNL1        0.0572
     86 H          11.5201   -3.4223   -0.0486 H       1  UNL1        0.0572
     87 H           9.4147   -2.4534   -0.8507 H       1  UNL1        0.0449
     88 H           9.8756   -1.8474    0.8481 H       1  UNL1        0.0449
     89 H          -0.4590    0.0727    0.7168 H       1  UNL1        0.0657
@<TRIPOS>BOND
     1     1     2    1
     2     2     3    1
     3     3     4    1
     4     4     5    1
     5     5     6    1
     6     6     7    1
     7     7     8   ar
     8     8     9   ar
     9     9    10   ar
    10    10    11   ar
    11    11    12    2
    12    11    13   ar
    13    13    14   ar
    14    14    15   ar
    15    15    16   ar
    16    16    17   ar
    17    17    18   ar
    18    18    19   ar
    19    19    20   ar
    20    20    21   ar
    21     2    22    1
    22    22    23    1
    23    23    24   ar
    24    24    25   ar
    25    25    26   ar
    26    26    27   ar
    27    27    28    1
    28    28    29    1
    29    29    30    2
    30    29    31   am
    31    31    32    1
    32    32    33    1
    33    33    34    1
    34    34    35    1
    35    35    36    1
    36    36    37    1
    37    37    38    1
    38    38    39    1
    39    39    40    1
    40    40    41    1
    41    41    42    1
    42    42    43    1
    43    43    44    1
    44    27    45   ar
    45    21     7   ar
    46    45    23   ar
    47    20    10   ar
    48    44    39    1
    49    18    13   ar
    50     1    46    1
    51     1    47    1
    52     1    48    1
    53     3    49    1
    54     3    50    1
    55     4    51    1
    56     4    52    1
    57     5    53    1
    58     5    54    1
    59     8    55    1
    60     9    56    1
    61    14    57    1
    62    15    58    1
    63    16    59    1
    64    21    60    1
    65    22    61    1
    66    22    62    1
    67    24    63    1
    68    25    64    1
    69    26    65    1
    70    31    66    1
    71    32    67    1
    72    32    68    1
    73    33    69    1
    74    33    70    1
    75    34    71    1
    76    34    72    1
    77    35    73    1
    78    35    74    1
    79    36    75    1
    80    36    76    1
    81    37    77    1
    82    37    78    1
    83    38    79    1
    84    38    80    1
    85    40    81    1
    86    40    82    1
    87    41    83    1
    88    41    84    1
    89    43    85    1
    90    43    86    1
    91    44    87    1
    92    44    88    1
    93    45    89    1
