
     RDKit          3D

 85 91  0  0  0  0  0  0  0  0999 V2000
   -5.1811   -3.1955    2.1851 C   0  0  0  0  0  0  0  0  0  0  0  0
   -4.8163   -2.2027    1.4068 O   0  0  0  0  0  0  0  0  0  0  0  0
   -3.9569   -1.3619    0.8828 C   0  0  0  0  0  0  0  0  0  0  0  0
   -2.6078   -1.3966    1.2853 C   0  0  0  0  0  0  0  0  0  0  0  0
   -1.6514   -0.5543    0.7965 C   0  0  0  0  0  0  0  0  0  0  0  0
   -0.2525   -0.5209    1.1862 C   0  0  0  0  0  0  0  0  0  0  0  0
    0.8342   -0.5549    0.3996 N   0  0  0  0  0  0  0  0  0  0  0  0
    1.9541   -0.4838    1.0739 N   0  0  0  0  0  0  0  0  0  0  0  0
    3.3169   -0.4772    0.6365 C   0  0  1  0  0  0  0  0  0  0  0  0
    4.0339   -1.7830    0.7418 C   0  0  0  0  0  0  0  0  0  0  0  0
    5.5158   -1.4836    0.5765 C   0  0  0  0  0  0  0  0  0  0  0  0
    5.8245   -0.7831   -0.6942 C   0  0  2  0  0  0  0  0  0  0  0  0
    7.1839   -0.3756   -0.7981 N   0  0  0  0  0  0  0  0  0  0  0  0
    7.4839    0.2628   -2.0712 C   0  0  0  0  0  0  0  0  0  0  0  0
    8.9893    0.3712   -2.2094 C   0  0  0  0  0  0  0  0  0  0  0  0
    9.6181    0.9417   -1.0403 N   0  0  0  0  0  0  0  0  0  0  0  0
   10.5493    1.9857   -1.0551 C   0  0  0  0  0  0  0  0  0  0  0  0
   11.0016    2.6473   -2.3046 C   0  0  0  0  0  0  0  0  0  0  0  0
   11.0365    2.3960    0.0401 O   0  0  0  0  0  0  0  0  0  0  0  0
    9.2214    0.3558    0.2342 C   0  0  0  0  0  0  0  0  0  0  0  0
    7.6869    0.4588    0.2438 C   0  0  0  0  0  0  0  0  0  0  0  0
    4.8889    0.3553   -1.0135 C   0  0  0  0  0  0  0  0  0  0  0  0
    3.4374   -0.0346   -0.8270 C   0  0  0  0  0  0  0  0  0  0  0  0
    1.6036   -0.3973    2.3907 C   0  0  0  0  0  0  0  0  0  0  0  0
    2.3566   -0.2954    3.5046 N   0  0  0  0  0  0  0  0  0  0  0  0
    1.8160   -0.2099    4.7195 C   0  0  0  0  0  0  0  0  0  0  0  0
    0.4830   -0.2255    4.8383 N   0  0  0  0  0  0  0  0  0  0  0  0
   -0.3081   -0.3269    3.7455 C   0  0  0  0  0  0  0  0  0  0  0  0
   -1.7032   -0.3158    3.8851 N   0  0  0  0  0  0  0  0  0  0  0  0
    0.2251   -0.4192    2.4642 C   0  0  0  0  0  0  0  0  0  0  0  0
   -2.0931    0.3746   -0.1568 C   0  0  0  0  0  0  0  0  0  0  0  0
   -3.4044    0.4258   -0.5653 C   0  0  0  0  0  0  0  0  0  0  0  0
   -4.3491   -0.4336   -0.0571 C   0  0  0  0  0  0  0  0  0  0  0  0
   -5.6719   -0.3304   -0.5616 N   0  0  0  0  0  0  0  0  0  0  0  0
   -6.6915    0.4837   -0.0676 C   0  0  0  0  0  0  0  0  0  0  0  0
   -6.4714    1.2056    0.9111 O   0  0  0  0  0  0  0  0  0  0  0  0
   -8.0137    0.4617   -0.7324 C   0  0  0  0  0  0  0  0  0  0  0  0
   -8.3784   -0.2959   -1.8286 C   0  0  0  0  0  0  0  0  0  0  0  0
   -9.6965   -0.0481   -2.1721 C   0  0  0  0  0  0  0  0  0  0  0  0
  -10.5779   -0.4866   -3.1347 C   0  0  0  0  0  0  0  0  0  0  0  0
  -11.8767   -0.0257   -3.2113 C   0  0  0  0  0  0  0  0  0  0  0  0
  -12.2771    0.9035   -2.2804 C   0  0  0  0  0  0  0  0  0  0  0  0
  -11.4354    1.3689   -1.3039 C   0  0  0  0  0  0  0  0  0  0  0  0
  -10.1256    0.8873   -1.2475 C   0  0  0  0  0  0  0  0  0  0  0  0
   -9.1037    1.1743   -0.4008 N   0  0  0  0  0  0  0  0  0  0  0  0
   -9.1811    2.1155    0.7039 C   0  0  0  0  0  0  0  0  0  0  0  0
   -4.4013   -4.0211    2.2076 H   0  0  0  0  0  0  0  0  0  0  0  0
   -5.2705   -2.8611    3.2556 H   0  0  0  0  0  0  0  0  0  0  0  0
   -6.1658   -3.6843    1.9011 H   0  0  0  0  0  0  0  0  0  0  0  0
   -2.2928   -2.1508    2.0145 H   0  0  0  0  0  0  0  0  0  0  0  0
    3.9026    0.2652    1.2543 H   0  0  0  0  0  0  0  0  0  0  0  0
    3.8869   -2.2240    1.7327 H   0  0  0  0  0  0  0  0  0  0  0  0
    3.6962   -2.4632   -0.0741 H   0  0  0  0  0  0  0  0  0  0  0  0
    5.8190   -0.9758    1.4999 H   0  0  0  0  0  0  0  0  0  0  0  0
    6.0251   -2.4745    0.5776 H   0  0  0  0  0  0  0  0  0  0  0  0
    5.6602   -1.5365   -1.5225 H   0  0  0  0  0  0  0  0  0  0  0  0
    7.1562   -0.4477   -2.8621 H   0  0  0  0  0  0  0  0  0  0  0  0
    7.0765    1.2701   -2.1689 H   0  0  0  0  0  0  0  0  0  0  0  0
    9.1686    1.0761   -3.0576 H   0  0  0  0  0  0  0  0  0  0  0  0
    9.4583   -0.6111   -2.4454 H   0  0  0  0  0  0  0  0  0  0  0  0
   10.1761    2.8313   -3.0231 H   0  0  0  0  0  0  0  0  0  0  0  0
   11.4933    3.6289   -2.0643 H   0  0  0  0  0  0  0  0  0  0  0  0
   11.7857    1.9988   -2.7556 H   0  0  0  0  0  0  0  0  0  0  0  0
    9.4429   -0.7297    0.2219 H   0  0  0  0  0  0  0  0  0  0  0  0
    9.6596    0.8831    1.0797 H   0  0  0  0  0  0  0  0  0  0  0  0
    7.3942    0.2188    1.2621 H   0  0  0  0  0  0  0  0  0  0  0  0
    7.4337    1.5433    0.0606 H   0  0  0  0  0  0  0  0  0  0  0  0
    5.0216    0.5770   -2.0919 H   0  0  0  0  0  0  0  0  0  0  0  0
    5.0583    1.2623   -0.4269 H   0  0  0  0  0  0  0  0  0  0  0  0
    2.8369    0.8710   -0.9798 H   0  0  0  0  0  0  0  0  0  0  0  0
    3.1275   -0.8740   -1.4555 H   0  0  0  0  0  0  0  0  0  0  0  0
    2.4174   -0.1248    5.6321 H   0  0  0  0  0  0  0  0  0  0  0  0
   -2.2858   -1.0599    4.3032 H   0  0  0  0  0  0  0  0  0  0  0  0
   -2.2204    0.5305    3.5319 H   0  0  0  0  0  0  0  0  0  0  0  0
   -1.3735    1.0609   -0.5701 H   0  0  0  0  0  0  0  0  0  0  0  0
   -3.7238    1.1643   -1.3157 H   0  0  0  0  0  0  0  0  0  0  0  0
   -5.8750   -0.9485   -1.3997 H   0  0  0  0  0  0  0  0  0  0  0  0
   -7.7471   -0.9861   -2.3585 H   0  0  0  0  0  0  0  0  0  0  0  0
  -10.2503   -1.2090   -3.8510 H   0  0  0  0  0  0  0  0  0  0  0  0
  -12.5729   -0.3692   -3.9681 H   0  0  0  0  0  0  0  0  0  0  0  0
  -13.2967    1.2802   -2.3244 H   0  0  0  0  0  0  0  0  0  0  0  0
  -11.7264    2.0993   -0.5619 H   0  0  0  0  0  0  0  0  0  0  0  0
   -8.8368    1.5908    1.6325 H   0  0  0  0  0  0  0  0  0  0  0  0
   -8.6338    3.0436    0.4943 H   0  0  0  0  0  0  0  0  0  0  0  0
  -10.2602    2.3977    0.8771 H   0  0  0  0  0  0  0  0  0  0  0  0
  1  2  1  0
  2  3  1  0
  3  4  2  0
  4  5  1  0
  5  6  1  0
  6  7  2  0
  7  8  1  0
  8  9  1  0
  9 10  1  0
 10 11  1  0
 11 12  1  0
 12 13  1  0
 13 14  1  0
 14 15  1  0
 15 16  1  0
 16 17  1  0
 17 18  1  0
 17 19  2  0
 16 20  1  0
 20 21  1  0
 12 22  1  0
 22 23  1  0
  8 24  1  0
 24 25  2  0
 25 26  1  0
 26 27  2  0
 27 28  1  0
 28 29  1  0
 28 30  2  0
  5 31  2  0
 31 32  1  0
 32 33  2  0
 33 34  1  0
 34 35  1  0
 35 36  2  0
 35 37  1  0
 37 38  2  0
 38 39  1  0
 39 40  2  0
 40 41  1  0
 41 42  2  0
 42 43  1  0
 43 44  2  0
 44 45  1  0
 45 46  1  0
 33  3  1  0
 45 37  1  0
 30  6  1  0
 44 39  1  0
 23  9  1  0
 30 24  1  0
 21 13  1  0
  1 47  1  0
  1 48  1  0
  1 49  1  0
  4 50  1  0
  9 51  1  1
 10 52  1  0
 10 53  1  0
 11 54  1  0
 11 55  1  0
 12 56  1  6
 14 57  1  0
 14 58  1  0
 15 59  1  0
 15 60  1  0
 18 61  1  0
 18 62  1  0
 18 63  1  0
 20 64  1  0
 20 65  1  0
 21 66  1  0
 21 67  1  0
 22 68  1  0
 22 69  1  0
 23 70  1  0
 23 71  1  0
 26 72  1  0
 29 73  1  0
 29 74  1  0
 31 75  1  0
 32 76  1  0
 34 77  1  0
 38 78  1  0
 40 79  1  0
 41 80  1  0
 42 81  1  0
 43 82  1  0
 46 83  1  0
 46 84  1  0
 46 85  1  0
M  END
$$$$
