@<TRIPOS>MOLECULE
*****
 85 91 0 0 0
SMALL
GASTEIGER

@<TRIPOS>ATOM
      1 C          -5.1811   -3.1955    2.1851 C.3     1  UNL1        0.0789
      2 O          -4.8163   -2.2027    1.4068 O.3     1  UNL1       -0.4932
      3 C          -3.9569   -1.3619    0.8828 C.ar    1  UNL1        0.1418
      4 C          -2.6078   -1.3966    1.2853 C.ar    1  UNL1       -0.0089
      5 C          -1.6514   -0.5543    0.7965 C.ar    1  UNL1        0.0064
      6 C          -0.2525   -0.5209    1.1862 C.ar    1  UNL1        0.1054
      7 N           0.8342   -0.5549    0.3996 N.ar    1  UNL1       -0.1683
      8 N           1.9541   -0.4838    1.0739 N.ar    1  UNL1       -0.2426
      9 C           3.3169   -0.4772    0.6365 C.3     1  UNL1        0.0550
     10 C           4.0339   -1.7830    0.7418 C.3     1  UNL1       -0.0290
     11 C           5.5158   -1.4836    0.5765 C.3     1  UNL1       -0.0354
     12 C           5.8245   -0.7831   -0.6942 C.3     1  UNL1        0.0107
     13 N           7.1839   -0.3756   -0.7981 N.3     1  UNL1       -0.2964
     14 C           7.4839    0.2628   -2.0712 C.3     1  UNL1        0.0150
     15 C           8.9893    0.3712   -2.2094 C.3     1  UNL1        0.0275
     16 N           9.6181    0.9417   -1.0403 N.am    1  UNL1       -0.2993
     17 C          10.5493    1.9857   -1.0551 C.2     1  UNL1        0.2125
     18 C          11.0016    2.6473   -2.3046 C.3     1  UNL1        0.0124
     19 O          11.0365    2.3960    0.0401 O.2     1  UNL1       -0.2759
     20 C           9.2214    0.3558    0.2342 C.3     1  UNL1        0.0275
     21 C           7.6869    0.4588    0.2438 C.3     1  UNL1        0.0150
     22 C           4.8889    0.3553   -1.0135 C.3     1  UNL1       -0.0354
     23 C           3.4374   -0.0346   -0.8270 C.3     1  UNL1       -0.0290
     24 C           1.6036   -0.3973    2.3907 C.ar    1  UNL1        0.1641
     25 N           2.3566   -0.2954    3.5046 N.ar    1  UNL1       -0.2161
     26 C           1.8160   -0.2099    4.7195 C.ar    1  UNL1        0.1204
     27 N           0.4830   -0.2255    4.8383 N.ar    1  UNL1       -0.2204
     28 C          -0.3081   -0.3269    3.7455 C.ar    1  UNL1        0.1308
     29 N          -1.7032   -0.3158    3.8851 N.pl3   1  UNL1       -0.3425
     30 C           0.2251   -0.4192    2.4642 C.ar    1  UNL1        0.0859
     31 C          -2.0931    0.3746   -0.1568 C.ar    1  UNL1       -0.0505
     32 C          -3.4044    0.4258   -0.5653 C.ar    1  UNL1       -0.0363
     33 C          -4.3491   -0.4336   -0.0571 C.ar    1  UNL1        0.0759
     34 N          -5.6719   -0.3304   -0.5616 N.am    1  UNL1       -0.2773
     35 C          -6.6915    0.4837   -0.0676 C.2     1  UNL1        0.2648
     36 O          -6.4714    1.2056    0.9111 O.2     1  UNL1       -0.2682
     37 C          -8.0137    0.4617   -0.7324 C.ar    1  UNL1        0.1055
     38 C          -8.3784   -0.2959   -1.8286 C.ar    1  UNL1       -0.0239
     39 C          -9.6965   -0.0481   -2.1721 C.ar    1  UNL1        0.0006
     40 C         -10.5779   -0.4866   -3.1347 C.ar    1  UNL1       -0.0526
     41 C         -11.8767   -0.0257   -3.2113 C.ar    1  UNL1       -0.0611
     42 C         -12.2771    0.9035   -2.2804 C.ar    1  UNL1       -0.0598
     43 C         -11.4354    1.3689   -1.3039 C.ar    1  UNL1       -0.0376
     44 C         -10.1256    0.8873   -1.2475 C.ar    1  UNL1        0.0494
     45 N          -9.1037    1.1743   -0.4008 N.ar    1  UNL1       -0.3393
     46 C          -9.1811    2.1155    0.7039 C.3     1  UNL1        0.0126
     47 H          -4.4013   -4.0211    2.2076 H       1  UNL1        0.0660
     48 H          -5.2705   -2.8611    3.2556 H       1  UNL1        0.0660
     49 H          -6.1658   -3.6843    1.9011 H       1  UNL1        0.0660
     50 H          -2.2928   -2.1508    2.0145 H       1  UNL1        0.0661
     51 H           3.9026    0.2652    1.2543 H       1  UNL1        0.0545
     52 H           3.8869   -2.2240    1.7327 H       1  UNL1        0.0286
     53 H           3.6962   -2.4632   -0.0741 H       1  UNL1        0.0286
     54 H           5.8190   -0.9758    1.4999 H       1  UNL1        0.0281
     55 H           6.0251   -2.4745    0.5776 H       1  UNL1        0.0281
     56 H           5.6602   -1.5365   -1.5225 H       1  UNL1        0.0462
     57 H           7.1562   -0.4477   -2.8621 H       1  UNL1        0.0442
     58 H           7.0765    1.2701   -2.1689 H       1  UNL1        0.0442
     59 H           9.1686    1.0761   -3.0576 H       1  UNL1        0.0477
     60 H           9.4583   -0.6111   -2.4454 H       1  UNL1        0.0477
     61 H          10.1761    2.8313   -3.0231 H       1  UNL1        0.0323
     62 H          11.4933    3.6289   -2.0643 H       1  UNL1        0.0323
     63 H          11.7857    1.9988   -2.7556 H       1  UNL1        0.0323
     64 H           9.4429   -0.7297    0.2219 H       1  UNL1        0.0477
     65 H           9.6596    0.8831    1.0797 H       1  UNL1        0.0477
     66 H           7.3942    0.2188    1.2621 H       1  UNL1        0.0442
     67 H           7.4337    1.5433    0.0606 H       1  UNL1        0.0442
     68 H           5.0216    0.5770   -2.0919 H       1  UNL1        0.0281
     69 H           5.0583    1.2623   -0.4269 H       1  UNL1        0.0281
     70 H           2.8369    0.8710   -0.9798 H       1  UNL1        0.0286
     71 H           3.1275   -0.8740   -1.4555 H       1  UNL1        0.0286
     72 H           2.4174   -0.1248    5.6321 H       1  UNL1        0.1048
     73 H          -2.2858   -1.0599    4.3032 H       1  UNL1        0.1437
     74 H          -2.2204    0.5305    3.5319 H       1  UNL1        0.1437
     75 H          -1.3735    1.0609   -0.5701 H       1  UNL1        0.0625
     76 H          -3.7238    1.1643   -1.3157 H       1  UNL1        0.0637
     77 H          -5.8750   -0.9485   -1.3997 H       1  UNL1        0.1553
     78 H          -7.7471   -0.9861   -2.3585 H       1  UNL1        0.0646
     79 H         -10.2503   -1.2090   -3.8510 H       1  UNL1        0.0624
     80 H         -12.5729   -0.3692   -3.9681 H       1  UNL1        0.0618
     81 H         -13.2967    1.2802   -2.3244 H       1  UNL1        0.0618
     82 H         -11.7264    2.0993   -0.5619 H       1  UNL1        0.0638
     83 H          -8.8368    1.5908    1.6325 H       1  UNL1        0.0456
     84 H          -8.6338    3.0436    0.4943 H       1  UNL1        0.0456
     85 H         -10.2602    2.3977    0.8771 H       1  UNL1        0.0456
@<TRIPOS>BOND
     1     1     2    1
     2     2     3    1
     3     3     4   ar
     4     4     5   ar
     5     5     6    1
     6     6     7   ar
     7     7     8   ar
     8     8     9    1
     9     9    10    1
    10    10    11    1
    11    11    12    1
    12    12    13    1
    13    13    14    1
    14    14    15    1
    15    15    16    1
    16    16    17   am
    17    17    18    1
    18    17    19    2
    19    16    20    1
    20    20    21    1
    21    12    22    1
    22    22    23    1
    23     8    24   ar
    24    24    25   ar
    25    25    26   ar
    26    26    27   ar
    27    27    28   ar
    28    28    29    1
    29    28    30   ar
    30     5    31   ar
    31    31    32   ar
    32    32    33   ar
    33    33    34    1
    34    34    35   am
    35    35    36    2
    36    35    37    1
    37    37    38   ar
    38    38    39   ar
    39    39    40   ar
    40    40    41   ar
    41    41    42   ar
    42    42    43   ar
    43    43    44   ar
    44    44    45   ar
    45    45    46    1
    46    33     3   ar
    47    45    37   ar
    48    30     6   ar
    49    44    39   ar
    50    23     9    1
    51    30    24   ar
    52    21    13    1
    53     1    47    1
    54     1    48    1
    55     1    49    1
    56     4    50    1
    57     9    51    1
    58    10    52    1
    59    10    53    1
    60    11    54    1
    61    11    55    1
    62    12    56    1
    63    14    57    1
    64    14    58    1
    65    15    59    1
    66    15    60    1
    67    18    61    1
    68    18    62    1
    69    18    63    1
    70    20    64    1
    71    20    65    1
    72    21    66    1
    73    21    67    1
    74    22    68    1
    75    22    69    1
    76    23    70    1
    77    23    71    1
    78    26    72    1
    79    29    73    1
    80    29    74    1
    81    31    75    1
    82    32    76    1
    83    34    77    1
    84    38    78    1
    85    40    79    1
    86    41    80    1
    87    42    81    1
    88    43    82    1
    89    46    83    1
    90    46    84    1
    91    46    85    1
