@<TRIPOS>MOLECULE
*****
 76 82 0 0 0
SMALL
GASTEIGER

@<TRIPOS>ATOM
      1 C           3.9036   -2.6168    1.4509 C.3     1  UNL1       -0.0524
      2 C           4.7956   -2.5551    0.2486 C.3     1  UNL1       -0.0039
      3 N           4.4422   -3.5300   -0.7657 N.3     1  UNL1       -0.3002
      4 C           5.3221   -3.4423   -1.9124 C.3     1  UNL1        0.0117
      5 C           5.1599   -2.1197   -2.6328 C.3     1  UNL1        0.0122
      6 N           3.7915   -1.6080   -2.3946 N.3     1  UNL1       -0.2916
      7 C           3.4317   -0.6645   -3.4234 C.3     1  UNL1        0.0761
      8 C           2.1955    0.0841   -3.1809 C.2     1  UNL1        0.2313
      9 O           1.7122    0.9085   -4.0099 O.2     1  UNL1       -0.2741
     10 N           1.4771   -0.0891   -1.9728 N.am    1  UNL1       -0.2839
     11 C           0.2719    0.6021   -1.6876 C.ar    1  UNL1        0.0423
     12 C          -0.8703    0.0357   -2.1980 C.ar    1  UNL1       -0.0392
     13 C          -2.1229    0.5589   -2.0395 C.ar    1  UNL1       -0.0511
     14 C          -2.2015    1.7242   -1.3189 C.ar    1  UNL1        0.0001
     15 C          -3.4577    2.4013   -1.0646 C.ar    1  UNL1        0.0263
     16 C          -3.9644    3.3797   -1.9102 C.ar    1  UNL1       -0.0504
     17 C          -5.1647    4.0064   -1.6458 C.ar    1  UNL1       -0.0603
     18 C          -5.8610    3.6399   -0.5130 C.ar    1  UNL1       -0.0473
     19 C          -5.3847    2.6719    0.3471 C.ar    1  UNL1        0.0647
     20 C          -6.0602    2.2868    1.4831 C.ar    1  UNL1        0.1944
     21 O          -7.1469    2.8356    1.7469 O.2     1  UNL1       -0.2870
     22 C          -5.4723    1.3022    2.2599 C.ar    1  UNL1        0.0434
     23 C          -4.2726    0.6995    1.9635 C.ar    1  UNL1        0.1931
     24 N          -3.6701   -0.3103    2.7571 N.pl3   1  UNL1       -0.2969
     25 C          -2.3621   -0.8407    2.3641 C.3     1  UNL1        0.0383
     26 C          -2.5375   -2.3072    2.1336 C.3     1  UNL1        0.0635
     27 O          -3.7722   -2.7971    2.5562 O.3     1  UNL1       -0.3767
     28 C          -4.0727   -2.3961    3.8518 C.3     1  UNL1        0.0635
     29 C          -4.2444   -0.8915    3.9448 C.3     1  UNL1        0.0383
     30 O          -3.6779    1.1245    0.8486 O.2     1  UNL1       -0.4405
     31 C          -4.1702    2.0458    0.0685 C.ar    1  UNL1        0.1485
     32 C          -1.0450    2.2862   -0.8081 C.ar    1  UNL1        0.0301
     33 S          -0.8116    3.7664    0.1571 S.2     1  UNL1       -0.0876
     34 C           0.9229    3.6287    0.3114 C.ar    1  UNL1        0.0206
     35 C           1.8514    4.4466    0.9655 C.ar    1  UNL1       -0.0474
     36 C           3.1767    4.1117    0.9501 C.ar    1  UNL1       -0.0607
     37 C           3.5168    2.9702    0.2794 C.ar    1  UNL1       -0.0611
     38 C           2.6005    2.1734   -0.3599 C.ar    1  UNL1       -0.0529
     39 C           1.2240    2.4940   -0.3624 C.ar    1  UNL1       -0.0013
     40 C           0.2178    1.7985   -0.9419 C.ar    1  UNL1        0.0187
     41 C           2.9089   -2.7906   -2.4506 C.3     1  UNL1        0.0122
     42 C           3.0687   -3.5071   -1.1399 C.3     1  UNL1        0.0117
     43 H           3.5088   -3.6489    1.5790 H       1  UNL1        0.0242
     44 H           3.0507   -1.9263    1.3432 H       1  UNL1        0.0242
     45 H           4.4938   -2.3384    2.3561 H       1  UNL1        0.0242
     46 H           5.8449   -2.8008    0.5745 H       1  UNL1        0.0424
     47 H           4.8141   -1.5582   -0.1910 H       1  UNL1        0.0424
     48 H           6.3665   -3.4919   -1.5456 H       1  UNL1        0.0439
     49 H           5.1723   -4.3004   -2.5896 H       1  UNL1        0.0439
     50 H           5.8473   -1.3549   -2.2552 H       1  UNL1        0.0439
     51 H           5.2442   -2.3008   -3.7090 H       1  UNL1        0.0439
     52 H           4.2863    0.0242   -3.5597 H       1  UNL1        0.0522
     53 H           3.3137   -1.2099   -4.4042 H       1  UNL1        0.0522
     54 H           1.8241   -0.7239   -1.2448 H       1  UNL1        0.1549
     55 H          -0.8128   -0.8915   -2.7726 H       1  UNL1        0.0636
     56 H          -3.0209    0.1341   -2.4270 H       1  UNL1        0.0625
     57 H          -3.3863    3.6431   -2.7957 H       1  UNL1        0.0625
     58 H          -5.5623    4.7658   -2.2999 H       1  UNL1        0.0618
     59 H          -6.8044    4.1366   -0.3108 H       1  UNL1        0.0626
     60 H          -5.9837    0.9828    3.1613 H       1  UNL1        0.0707
     61 H          -1.6164   -0.6577    3.1660 H       1  UNL1        0.0487
     62 H          -2.0337   -0.3567    1.4451 H       1  UNL1        0.0487
     63 H          -2.3773   -2.5512    1.0565 H       1  UNL1        0.0575
     64 H          -1.7607   -2.8483    2.7221 H       1  UNL1        0.0575
     65 H          -3.3384   -2.7699    4.5766 H       1  UNL1        0.0575
     66 H          -5.0441   -2.8627    4.1109 H       1  UNL1        0.0575
     67 H          -3.6335   -0.5615    4.8299 H       1  UNL1        0.0487
     68 H          -5.2979   -0.6515    4.0656 H       1  UNL1        0.0487
     69 H           1.4579    5.3211    1.4599 H       1  UNL1        0.0629
     70 H           3.9170    4.7062    1.4349 H       1  UNL1        0.0618
     71 H           4.5831    2.6938    0.2626 H       1  UNL1        0.0618
     72 H           3.0061    1.3023   -0.8367 H       1  UNL1        0.0624
     73 H           1.8740   -2.5377   -2.6213 H       1  UNL1        0.0439
     74 H           3.2749   -3.4836   -3.2501 H       1  UNL1        0.0439
     75 H           2.5277   -2.8790   -0.3811 H       1  UNL1        0.0439
     76 H           2.6174   -4.5209   -1.1502 H       1  UNL1        0.0439
@<TRIPOS>BOND
     1     1     2    1
     2     2     3    1
     3     3     4    1
     4     4     5    1
     5     5     6    1
     6     6     7    1
     7     7     8    1
     8     8     9    2
     9     8    10   am
    10    10    11    1
    11    11    12   ar
    12    12    13   ar
    13    13    14   ar
    14    14    15    1
    15    15    16   ar
    16    16    17   ar
    17    17    18   ar
    18    18    19   ar
    19    19    20   ar
    20    20    21    2
    21    20    22   ar
    22    22    23   ar
    23    23    24    1
    24    24    25    1
    25    25    26    1
    26    26    27    1
    27    27    28    1
    28    28    29    1
    29    23    30   ar
    30    30    31   ar
    31    14    32   ar
    32    32    33   ar
    33    33    34   ar
    34    34    35   ar
    35    35    36   ar
    36    36    37   ar
    37    37    38   ar
    38    38    39   ar
    39    39    40   ar
    40     6    41    1
    41    41    42    1
    42    42     3    1
    43    40    11   ar
    44    31    15   ar
    45    40    32   ar
    46    31    19   ar
    47    39    34   ar
    48    29    24    1
    49     1    43    1
    50     1    44    1
    51     1    45    1
    52     2    46    1
    53     2    47    1
    54     4    48    1
    55     4    49    1
    56     5    50    1
    57     5    51    1
    58     7    52    1
    59     7    53    1
    60    10    54    1
    61    12    55    1
    62    13    56    1
    63    16    57    1
    64    17    58    1
    65    18    59    1
    66    22    60    1
    67    25    61    1
    68    25    62    1
    69    26    63    1
    70    26    64    1
    71    28    65    1
    72    28    66    1
    73    29    67    1
    74    29    68    1
    75    35    69    1
    76    36    70    1
    77    37    71    1
    78    38    72    1
    79    41    73    1
    80    41    74    1
    81    42    75    1
    82    42    76    1
