@<TRIPOS>MOLECULE
*****
 67 72 0 0 0
SMALL
GASTEIGER

@<TRIPOS>ATOM
      1 O           4.5675    0.5778   -1.5863 O.2     1  UNL1       -0.2700
      2 C           4.2230   -0.2201   -0.6607 C.2     1  UNL1        0.2468
      3 C           2.7868   -0.3199   -0.4339 C.ar    1  UNL1        0.0381
      4 C           2.0926    0.7573    0.0477 C.ar    1  UNL1       -0.0411
      5 C           0.7304    0.7756    0.3086 C.ar    1  UNL1        0.0166
      6 C           0.0238    1.9732    0.8129 C.3     1  UNL1        0.0522
      7 C           0.9929    3.1558    0.9419 C.3     1  UNL1       -0.0287
      8 C           1.1558    3.5912   -0.4804 C.3     1  UNL1       -0.0352
      9 C           0.1127    2.7764   -1.2926 C.3     1  UNL1        0.0129
     10 N          -0.8176    2.5241   -0.2138 N.pl3   1  UNL1       -0.3225
     11 C          -2.1879    2.7903   -0.1620 C.ar    1  UNL1        0.0356
     12 C          -2.9621    2.5907    0.9691 C.ar    1  UNL1       -0.0052
     13 C          -4.3186    2.8747    1.0126 C.ar    1  UNL1        0.1279
     14 F          -5.0531    2.6694    2.1299 F       1  UNL1       -0.2053
     15 C          -4.9662    3.3800   -0.0946 C.ar    1  UNL1        0.0089
     16 C          -4.2211    3.5901   -1.2373 C.ar    1  UNL1        0.1279
     17 F          -4.8663    4.0944   -2.3411 F       1  UNL1       -0.2053
     18 C          -2.8882    3.3048   -1.2639 C.ar    1  UNL1       -0.0052
     19 C           0.0696   -0.4104    0.0474 C.ar    1  UNL1        0.1458
     20 O          -1.2182   -0.5448    0.2525 O.2     1  UNL1       -0.4407
     21 C          -1.8860   -1.6580    0.0205 C.ar    1  UNL1        0.1931
     22 N          -3.2867   -1.7173    0.2776 N.pl3   1  UNL1       -0.2969
     23 C          -4.0128   -0.6405    0.9132 C.3     1  UNL1        0.0383
     24 C          -5.1495   -1.3119    1.6997 C.3     1  UNL1        0.0635
     25 O          -6.0437   -1.9477    0.8784 O.3     1  UNL1       -0.3767
     26 C          -5.5129   -2.6604   -0.1624 C.3     1  UNL1        0.0635
     27 C          -4.0374   -2.8908   -0.1118 C.3     1  UNL1        0.0383
     28 C          -1.2451   -2.8014   -0.4748 C.ar    1  UNL1        0.0434
     29 C           0.0916   -2.7320   -0.7105 C.ar    1  UNL1        0.1944
     30 O           0.7126   -3.7350   -1.1569 O.2     1  UNL1       -0.2870
     31 C           0.7213   -1.5256   -0.4398 C.ar    1  UNL1        0.0651
     32 C           2.0941   -1.4796   -0.6833 C.ar    1  UNL1       -0.0352
     33 N           5.1649   -0.9549    0.0917 N.am    1  UNL1       -0.2932
     34 C           4.7294   -1.8457    1.1301 C.3     1  UNL1        0.0385
     35 C           5.4866   -3.1481    0.9759 C.3     1  UNL1        0.0635
     36 O           6.8394   -3.0022    0.8235 O.3     1  UNL1       -0.3767
     37 C           7.3227   -1.7243    0.7837 C.3     1  UNL1        0.0635
     38 C           6.5752   -0.8198   -0.1691 C.3     1  UNL1        0.0385
     39 H           2.6514    1.6445    0.2423 H       1  UNL1        0.0629
     40 H          -0.4991    1.7901    1.7714 H       1  UNL1        0.0551
     41 H           0.4057    3.9149    1.5338 H       1  UNL1        0.0287
     42 H           1.8816    2.9502    1.5110 H       1  UNL1        0.0287
     43 H           2.1401    3.5658   -0.9135 H       1  UNL1        0.0281
     44 H           0.7648    4.6432   -0.5669 H       1  UNL1        0.0281
     45 H           0.5522    1.7955   -1.5942 H       1  UNL1        0.0464
     46 H          -0.2960    3.3667   -2.1110 H       1  UNL1        0.0464
     47 H          -2.4834    2.1864    1.8763 H       1  UNL1        0.0665
     48 H          -6.0316    3.6093   -0.0744 H       1  UNL1        0.0675
     49 H          -2.3299    3.4763   -2.1586 H       1  UNL1        0.0665
     50 H          -3.3803   -0.1160    1.6685 H       1  UNL1        0.0487
     51 H          -4.4650    0.0731    0.2129 H       1  UNL1        0.0487
     52 H          -5.6728   -0.5478    2.3024 H       1  UNL1        0.0575
     53 H          -4.7350   -2.0648    2.4147 H       1  UNL1        0.0575
     54 H          -5.9888   -3.6877   -0.1414 H       1  UNL1        0.0575
     55 H          -5.8431   -2.2236   -1.1412 H       1  UNL1        0.0575
     56 H          -3.7434   -3.2390   -1.1385 H       1  UNL1        0.0487
     57 H          -3.8560   -3.7433    0.5803 H       1  UNL1        0.0487
     58 H          -1.8457   -3.6719   -0.6407 H       1  UNL1        0.0707
     59 H           2.6124   -2.3416   -1.0648 H       1  UNL1        0.0633
     60 H           4.9614   -1.3642    2.1075 H       1  UNL1        0.0487
     61 H           3.6468   -2.0964    1.0927 H       1  UNL1        0.0487
     62 H           5.0693   -3.6505    0.0526 H       1  UNL1        0.0575
     63 H           5.2401   -3.8069    1.8406 H       1  UNL1        0.0575
     64 H           8.3743   -1.7863    0.3732 H       1  UNL1        0.0575
     65 H           7.3314   -1.2611    1.7775 H       1  UNL1        0.0575
     66 H           6.8769    0.2372    0.0877 H       1  UNL1        0.0487
     67 H           6.8423   -0.9875   -1.2325 H       1  UNL1        0.0487
@<TRIPOS>BOND
     1     1     2    2
     2     2     3    1
     3     3     4   ar
     4     4     5   ar
     5     5     6    1
     6     6     7    1
     7     7     8    1
     8     8     9    1
     9     9    10    1
    10    10    11    1
    11    11    12   ar
    12    12    13   ar
    13    13    14    1
    14    13    15   ar
    15    15    16   ar
    16    16    17    1
    17    16    18   ar
    18     5    19   ar
    19    19    20   ar
    20    20    21   ar
    21    21    22    1
    22    22    23    1
    23    23    24    1
    24    24    25    1
    25    25    26    1
    26    26    27    1
    27    21    28   ar
    28    28    29   ar
    29    29    30    2
    30    29    31   ar
    31    31    32   ar
    32     2    33   am
    33    33    34    1
    34    34    35    1
    35    35    36    1
    36    36    37    1
    37    37    38    1
    38    32     3   ar
    39    38    33    1
    40    10     6    1
    41    18    11   ar
    42    31    19   ar
    43    27    22    1
    44     4    39    1
    45     6    40    1
    46     7    41    1
    47     7    42    1
    48     8    43    1
    49     8    44    1
    50     9    45    1
    51     9    46    1
    52    12    47    1
    53    15    48    1
    54    18    49    1
    55    23    50    1
    56    23    51    1
    57    24    52    1
    58    24    53    1
    59    26    54    1
    60    26    55    1
    61    27    56    1
    62    27    57    1
    63    28    58    1
    64    32    59    1
    65    34    60    1
    66    34    61    1
    67    35    62    1
    68    35    63    1
    69    37    64    1
    70    37    65    1
    71    38    66    1
    72    38    67    1
