@<TRIPOS>MOLECULE
*****
 54 56 0 0 0
SMALL
GASTEIGER

@<TRIPOS>ATOM
      1 C           0.1938   -2.5935   -3.0060 C.3     1  UNL1       -0.0470
      2 C           0.2390   -2.8199   -1.4970 C.3     1  UNL1        0.0225
      3 N          -0.5571   -1.8698   -0.8044 N.ar    1  UNL1       -0.3223
      4 C          -1.8940   -1.8385   -0.5614 C.ar    1  UNL1        0.1672
      5 C          -2.7773   -2.8853   -1.0425 C.ar    1  UNL1        0.1904
      6 N          -2.6159   -3.6343   -2.1215 N.ar    1  UNL1       -0.0438
      7 O          -3.7403   -4.2561   -2.4603 O.2     1  UNL1       -0.2402
      8 N          -4.6572   -3.9260   -1.6080 N.ar    1  UNL1       -0.0335
      9 C          -4.1083   -3.0498   -0.6769 C.ar    1  UNL1        0.1909
     10 N          -4.7713   -2.5870    0.4672 N.pl3   1  UNL1       -0.3386
     11 N          -2.1714   -0.7765    0.2101 N.ar    1  UNL1       -0.2229
     12 C          -1.0486   -0.1268    0.4498 C.ar    1  UNL1        0.1237
     13 C          -0.7985    1.0945    1.1741 C.ar    1  UNL1        0.1447
     14 C          -1.9591    1.8831    1.2387 C.1     1  UNL1       -0.0413
     15 C          -3.0521    2.6415    1.2808 C.1     1  UNL1       -0.0614
     16 C          -4.2131    3.4661    1.3098 C.3     1  UNL1        0.1212
     17 C          -3.8650    4.6873    2.1557 C.3     1  UNL1       -0.0249
     18 C          -4.5402    4.0312   -0.0774 C.3     1  UNL1       -0.0249
     19 O          -5.3043    2.7508    1.7186 O.3     1  UNL1       -0.3771
     20 N           0.4103    1.5511    1.2568 N.ar    1  UNL1       -0.2022
     21 C           1.5156    0.9175    0.6639 C.ar    1  UNL1        0.2179
     22 O           2.7412    1.2028    0.6098 O.3     1  UNL1       -0.4763
     23 C           3.9444    1.7358    0.7085 C.3     1  UNL1        0.0913
     24 C           4.9939    0.7784    0.0524 C.3     1  UNL1       -0.0174
     25 C           5.0181   -0.5384    0.7571 C.3     1  UNL1       -0.0376
     26 C           5.9253   -1.5779    0.0787 C.3     1  UNL1       -0.0068
     27 N           7.2535   -1.1195   -0.0083 N.3     1  UNL1       -0.3300
     28 C           1.1905   -0.2982   -0.0651 C.ar    1  UNL1        0.0257
     29 C          -0.0519   -0.7769   -0.1530 C.ar    1  UNL1        0.0769
     30 H           1.2117   -2.4562   -3.3752 H       1  UNL1        0.0247
     31 H          -0.2475   -3.5177   -3.4633 H       1  UNL1        0.0247
     32 H          -0.4035   -1.6857   -3.2318 H       1  UNL1        0.0247
     33 H          -0.0622   -3.8484   -1.2454 H       1  UNL1        0.0490
     34 H           1.3266   -2.6389   -1.2010 H       1  UNL1        0.0490
     35 H          -4.9742   -3.2807    1.2411 H       1  UNL1        0.1439
     36 H          -5.0642   -1.6060    0.5688 H       1  UNL1        0.1439
     37 H          -4.7770    5.2421    2.3717 H       1  UNL1        0.0267
     38 H          -3.1836    5.3388    1.5131 H       1  UNL1        0.0267
     39 H          -3.3222    4.4305    3.0770 H       1  UNL1        0.0267
     40 H          -5.1871    4.8918    0.1225 H       1  UNL1        0.0267
     41 H          -4.9783    3.2091   -0.6755 H       1  UNL1        0.0267
     42 H          -3.5887    4.3922   -0.5365 H       1  UNL1        0.0267
     43 H          -5.0004    2.0758    2.4017 H       1  UNL1        0.2114
     44 H           4.3691    2.1385    1.6076 H       1  UNL1        0.0697
     45 H           4.0361    2.6679   -0.0371 H       1  UNL1        0.0697
     46 H           5.8844    1.3249   -0.1437 H       1  UNL1        0.0298
     47 H           4.5367    0.5687   -0.9776 H       1  UNL1        0.0298
     48 H           5.2481   -0.5779    1.8120 H       1  UNL1        0.0278
     49 H           3.9884   -0.9957    0.6335 H       1  UNL1        0.0278
     50 H           5.8466   -2.4958    0.6863 H       1  UNL1        0.0422
     51 H           5.4616   -1.7970   -0.9358 H       1  UNL1        0.0422
     52 H           7.6834   -1.0160    0.9471 H       1  UNL1        0.1182
     53 H           7.8634   -1.6858   -0.6685 H       1  UNL1        0.1182
     54 H           2.0328   -0.7439   -0.5413 H       1  UNL1        0.0692
@<TRIPOS>BOND
     1     1     2    1
     2     2     3    1
     3     3     4   ar
     4     4     5    1
     5     5     6   ar
     6     6     7   ar
     7     7     8   ar
     8     8     9   ar
     9     9    10    1
    10     4    11   ar
    11    11    12   ar
    12    12    13   ar
    13    13    14    1
    14    14    15    3
    15    15    16    1
    16    16    17    1
    17    16    18    1
    18    16    19    1
    19    13    20   ar
    20    20    21   ar
    21    21    22    1
    22    22    23    1
    23    23    24    1
    24    24    25    1
    25    25    26    1
    26    26    27    1
    27    21    28   ar
    28    28    29   ar
    29    29     3   ar
    30     9     5   ar
    31    29    12   ar
    32     1    30    1
    33     1    31    1
    34     1    32    1
    35     2    33    1
    36     2    34    1
    37    10    35    1
    38    10    36    1
    39    17    37    1
    40    17    38    1
    41    17    39    1
    42    18    40    1
    43    18    41    1
    44    18    42    1
    45    19    43    1
    46    23    44    1
    47    23    45    1
    48    24    46    1
    49    24    47    1
    50    25    48    1
    51    25    49    1
    52    26    50    1
    53    26    51    1
    54    27    52    1
    55    27    53    1
    56    28    54    1
