
     RDKit          3D

 54 56  0  0  0  0  0  0  0  0999 V2000
    0.1938   -2.5935   -3.0060 C   0  0  0  0  0  0  0  0  0  0  0  0
    0.2390   -2.8199   -1.4970 C   0  0  0  0  0  0  0  0  0  0  0  0
   -0.5571   -1.8698   -0.8044 N   0  0  0  0  0  0  0  0  0  0  0  0
   -1.8940   -1.8385   -0.5614 C   0  0  0  0  0  0  0  0  0  0  0  0
   -2.7773   -2.8853   -1.0425 C   0  0  0  0  0  0  0  0  0  0  0  0
   -2.6159   -3.6343   -2.1215 N   0  0  0  0  0  0  0  0  0  0  0  0
   -3.7403   -4.2561   -2.4603 O   0  0  0  0  0  0  0  0  0  0  0  0
   -4.6572   -3.9260   -1.6080 N   0  0  0  0  0  0  0  0  0  0  0  0
   -4.1083   -3.0498   -0.6769 C   0  0  0  0  0  0  0  0  0  0  0  0
   -4.7713   -2.5870    0.4672 N   0  0  0  0  0  0  0  0  0  0  0  0
   -2.1714   -0.7765    0.2101 N   0  0  0  0  0  0  0  0  0  0  0  0
   -1.0486   -0.1268    0.4498 C   0  0  0  0  0  0  0  0  0  0  0  0
   -0.7985    1.0945    1.1741 C   0  0  0  0  0  0  0  0  0  0  0  0
   -1.9591    1.8831    1.2387 C   0  0  0  0  0  0  0  0  0  0  0  0
   -3.0521    2.6415    1.2808 C   0  0  0  0  0  0  0  0  0  0  0  0
   -4.2131    3.4661    1.3098 C   0  0  0  0  0  0  0  0  0  0  0  0
   -3.8650    4.6873    2.1557 C   0  0  0  0  0  0  0  0  0  0  0  0
   -4.5402    4.0312   -0.0774 C   0  0  0  0  0  0  0  0  0  0  0  0
   -5.3043    2.7508    1.7186 O   0  0  0  0  0  0  0  0  0  0  0  0
    0.4103    1.5511    1.2568 N   0  0  0  0  0  0  0  0  0  0  0  0
    1.5156    0.9175    0.6639 C   0  0  0  0  0  0  0  0  0  0  0  0
    2.7412    1.2028    0.6098 O   0  0  0  0  0  0  0  0  0  0  0  0
    3.9444    1.7358    0.7085 C   0  0  0  0  0  0  0  0  0  0  0  0
    4.9939    0.7784    0.0524 C   0  0  0  0  0  0  0  0  0  0  0  0
    5.0181   -0.5384    0.7571 C   0  0  0  0  0  0  0  0  0  0  0  0
    5.9253   -1.5779    0.0787 C   0  0  0  0  0  0  0  0  0  0  0  0
    7.2535   -1.1195   -0.0083 N   0  0  0  0  0  0  0  0  0  0  0  0
    1.1905   -0.2982   -0.0651 C   0  0  0  0  0  0  0  0  0  0  0  0
   -0.0519   -0.7769   -0.1530 C   0  0  0  0  0  0  0  0  0  0  0  0
    1.2117   -2.4562   -3.3752 H   0  0  0  0  0  0  0  0  0  0  0  0
   -0.2475   -3.5177   -3.4633 H   0  0  0  0  0  0  0  0  0  0  0  0
   -0.4035   -1.6857   -3.2318 H   0  0  0  0  0  0  0  0  0  0  0  0
   -0.0622   -3.8484   -1.2454 H   0  0  0  0  0  0  0  0  0  0  0  0
    1.3266   -2.6389   -1.2010 H   0  0  0  0  0  0  0  0  0  0  0  0
   -4.9742   -3.2807    1.2411 H   0  0  0  0  0  0  0  0  0  0  0  0
   -5.0642   -1.6060    0.5688 H   0  0  0  0  0  0  0  0  0  0  0  0
   -4.7770    5.2421    2.3717 H   0  0  0  0  0  0  0  0  0  0  0  0
   -3.1836    5.3388    1.5131 H   0  0  0  0  0  0  0  0  0  0  0  0
   -3.3222    4.4305    3.0770 H   0  0  0  0  0  0  0  0  0  0  0  0
   -5.1871    4.8918    0.1225 H   0  0  0  0  0  0  0  0  0  0  0  0
   -4.9783    3.2091   -0.6755 H   0  0  0  0  0  0  0  0  0  0  0  0
   -3.5887    4.3922   -0.5365 H   0  0  0  0  0  0  0  0  0  0  0  0
   -5.0004    2.0758    2.4017 H   0  0  0  0  0  0  0  0  0  0  0  0
    4.3691    2.1385    1.6076 H   0  0  0  0  0  0  0  0  0  0  0  0
    4.0361    2.6679   -0.0371 H   0  0  0  0  0  0  0  0  0  0  0  0
    5.8844    1.3249   -0.1437 H   0  0  0  0  0  0  0  0  0  0  0  0
    4.5367    0.5687   -0.9776 H   0  0  0  0  0  0  0  0  0  0  0  0
    5.2481   -0.5779    1.8120 H   0  0  0  0  0  0  0  0  0  0  0  0
    3.9884   -0.9957    0.6335 H   0  0  0  0  0  0  0  0  0  0  0  0
    5.8466   -2.4958    0.6863 H   0  0  0  0  0  0  0  0  0  0  0  0
    5.4616   -1.7970   -0.9358 H   0  0  0  0  0  0  0  0  0  0  0  0
    7.6834   -1.0160    0.9471 H   0  0  0  0  0  0  0  0  0  0  0  0
    7.8634   -1.6858   -0.6685 H   0  0  0  0  0  0  0  0  0  0  0  0
    2.0328   -0.7439   -0.5413 H   0  0  0  0  0  0  0  0  0  0  0  0
  1  2  1  0
  2  3  1  0
  3  4  1  0
  4  5  1  0
  5  6  2  0
  6  7  1  0
  7  8  1  0
  8  9  2  0
  9 10  1  0
  4 11  2  0
 11 12  1  0
 12 13  2  0
 13 14  1  0
 14 15  3  0
 15 16  1  0
 16 17  1  0
 16 18  1  0
 16 19  1  0
 13 20  1  0
 20 21  2  0
 21 22  1  0
 22 23  1  0
 23 24  1  0
 24 25  1  0
 25 26  1  0
 26 27  1  0
 21 28  1  0
 28 29  2  0
 29  3  1  0
  9  5  1  0
 29 12  1  0
  1 30  1  0
  1 31  1  0
  1 32  1  0
  2 33  1  0
  2 34  1  0
 10 35  1  0
 10 36  1  0
 17 37  1  0
 17 38  1  0
 17 39  1  0
 18 40  1  0
 18 41  1  0
 18 42  1  0
 19 43  1  0
 23 44  1  0
 23 45  1  0
 24 46  1  0
 24 47  1  0
 25 48  1  0
 25 49  1  0
 26 50  1  0
 26 51  1  0
 27 52  1  0
 27 53  1  0
 28 54  1  0
M  END
$$$$
