@<TRIPOS>MOLECULE
*****
 14 13 0 0 0
SMALL
GASTEIGER

@<TRIPOS>ATOM
      1 N           0.2780    1.6856    0.0443 N.3     1  CYS1       -0.3178
      2 CA         -0.0620    0.3269    0.3734 C.3     1  CYS1        0.1120
      3 CB         -1.2099   -0.1744   -0.4977 C.3     1  CYS1        0.0163
      4 SG         -1.6391   -1.8805   -0.0866 S.3     1  CYS1       -0.1762
      5 C           1.1513   -0.5101    0.1407 C.2     1  CYS1        0.3225
      6 O           2.3996   -0.0817   -0.3125 O.3     1  CYS1       -0.4795
      7 OXT         1.2117   -1.7676    0.3307 O.2     1  CYS1       -0.2492
      8 H1          0.3276    2.3329    0.8612 H       1  CYS1        0.1190
      9 H2         -0.2653    2.0718   -0.7493 H       1  CYS1        0.1190
     10 HA         -0.3579    0.1662    1.4241 H       1  CYS1        0.0582
     11 HB1        -0.9382   -0.0815   -1.5664 H       1  CYS1        0.0394
     12 HB2        -2.0659    0.5009   -0.2798 H       1  CYS1        0.0394
     13 HG         -1.7738   -1.9919    1.3153 H       1  CYS1        0.1017
     14 H           2.9439   -0.5968   -0.9973 H       1  CYS1        0.2951
@<TRIPOS>BOND
     1     1     2    1
     2     2     3    1
     3     3     4    1
     4     2     5    1
     5     5     6    1
     6     5     7    2
     7     1     8    1
     8     1     9    1
     9     2    10    1
    10     3    11    1
    11     3    12    1
    12     4    13    1
    13     6    14    1
