
     RDKit          3D

 53 56  0  0  0  0  0  0  0  0999 V2000
    7.5893   -2.0358    1.8012 C   0  0  0  0  0  0  0  0  0  0  0  0
    7.1948   -1.7606    0.4734 O   0  0  0  0  0  0  0  0  0  0  0  0
    5.9640   -1.1642    0.1819 C   0  0  0  0  0  0  0  0  0  0  0  0
    5.0590   -0.8070    1.1597 C   0  0  0  0  0  0  0  0  0  0  0  0
    3.8474   -0.2176    0.8383 C   0  0  0  0  0  0  0  0  0  0  0  0
    3.4954    0.0367   -0.4713 C   0  0  0  0  0  0  0  0  0  0  0  0
    2.2428    0.6441   -0.7737 N   0  0  0  0  0  0  0  0  0  0  0  0
    2.0687    2.0407   -0.8619 C   0  0  0  0  0  0  0  0  0  0  0  0
    3.1035    2.7519   -0.6565 O   0  0  0  0  0  0  0  0  0  0  0  0
    0.8271    2.7560   -1.1648 C   0  0  1  0  0  0  0  0  0  0  0  0
    1.0749    3.6215   -2.3872 C   0  0  0  0  0  0  0  0  0  0  0  0
   -0.3283    1.9411   -1.3502 N   0  0  0  0  0  0  0  0  0  0  0  0
   -0.8500    1.1485   -0.2856 C   0  0  0  0  0  0  0  0  0  0  0  0
   -1.9202    0.3658   -0.5025 N   0  0  0  0  0  0  0  0  0  0  0  0
   -2.4412   -0.3810    0.4593 C   0  0  0  0  0  0  0  0  0  0  0  0
   -1.8880   -0.3699    1.7200 C   0  0  0  0  0  0  0  0  0  0  0  0
   -2.6270   -1.2252    2.4901 C   0  0  0  0  0  0  0  0  0  0  0  0
   -3.5906   -1.7243    1.6955 N   0  0  0  0  0  0  0  0  0  0  0  0
   -3.4953   -1.2290    0.4718 N   0  0  0  0  0  0  0  0  0  0  0  0
   -4.3533   -1.5333   -0.6447 C   0  0  0  0  0  0  0  0  0  0  0  0
   -4.8794   -0.2607   -1.2929 C   0  0  0  0  0  0  0  0  0  0  0  0
   -5.9765    0.1251   -0.3146 C   0  0  0  0  0  0  0  0  0  0  0  0
   -6.6698   -1.1750   -0.0626 C   0  0  0  0  0  0  0  0  0  0  0  0
   -5.5977   -2.2392   -0.1467 C   0  0  0  0  0  0  0  0  0  0  0  0
   -0.7978    0.4292    1.9355 C   0  0  0  0  0  0  0  0  0  0  0  0
   -0.2662    0.4650    3.0734 O   0  0  0  0  0  0  0  0  0  0  0  0
   -0.2891    1.1792    0.9355 N   0  0  0  0  0  0  0  0  0  0  0  0
    4.4100   -0.3257   -1.4389 C   0  0  0  0  0  0  0  0  0  0  0  0
    5.6196   -0.9129   -1.1360 C   0  0  0  0  0  0  0  0  0  0  0  0
    7.1718   -3.0046    2.1645 H   0  0  0  0  0  0  0  0  0  0  0  0
    7.2964   -1.2119    2.4659 H   0  0  0  0  0  0  0  0  0  0  0  0
    8.7087   -2.1167    1.7755 H   0  0  0  0  0  0  0  0  0  0  0  0
    5.2865   -0.9846    2.2012 H   0  0  0  0  0  0  0  0  0  0  0  0
    3.1193    0.0712    1.6009 H   0  0  0  0  0  0  0  0  0  0  0  0
    1.4114    0.0387   -0.9425 H   0  0  0  0  0  0  0  0  0  0  0  0
    0.6451    3.4654   -0.3207 H   0  0  0  0  0  0  0  0  0  0  0  0
    1.6795    3.0489   -3.1264 H   0  0  0  0  0  0  0  0  0  0  0  0
    0.1270    3.8935   -2.8763 H   0  0  0  0  0  0  0  0  0  0  0  0
    1.6030    4.5458   -2.0625 H   0  0  0  0  0  0  0  0  0  0  0  0
   -0.7960    1.9279   -2.2819 H   0  0  0  0  0  0  0  0  0  0  0  0
   -2.4415   -1.4351    3.5361 H   0  0  0  0  0  0  0  0  0  0  0  0
   -3.8342   -2.1301   -1.4200 H   0  0  0  0  0  0  0  0  0  0  0  0
   -4.1200    0.5190   -1.3928 H   0  0  0  0  0  0  0  0  0  0  0  0
   -5.3472   -0.5095   -2.2567 H   0  0  0  0  0  0  0  0  0  0  0  0
   -6.6558    0.8879   -0.7462 H   0  0  0  0  0  0  0  0  0  0  0  0
   -5.5030    0.5375    0.6105 H   0  0  0  0  0  0  0  0  0  0  0  0
   -7.1081   -1.1211    0.9673 H   0  0  0  0  0  0  0  0  0  0  0  0
   -7.4458   -1.3140   -0.8368 H   0  0  0  0  0  0  0  0  0  0  0  0
   -5.9234   -3.0527   -0.8131 H   0  0  0  0  0  0  0  0  0  0  0  0
   -5.4260   -2.6384    0.8675 H   0  0  0  0  0  0  0  0  0  0  0  0
    0.5337    1.7735    1.1270 H   0  0  0  0  0  0  0  0  0  0  0  0
    4.1478   -0.1325   -2.4670 H   0  0  0  0  0  0  0  0  0  0  0  0
    6.3448   -1.2018   -1.8888 H   0  0  0  0  0  0  0  0  0  0  0  0
  1  2  1  0
  2  3  1  0
  3  4  2  0
  4  5  1  0
  5  6  2  0
  6  7  1  0
  7  8  1  0
  8  9  2  0
  8 10  1  0
 10 11  1  0
 10 12  1  0
 12 13  1  0
 13 14  2  0
 14 15  1  0
 15 16  2  0
 16 17  1  0
 17 18  2  0
 18 19  1  0
 19 20  1  0
 20 21  1  0
 21 22  1  0
 22 23  1  0
 23 24  1  0
 16 25  1  0
 25 26  2  0
 25 27  1  0
  6 28  1  0
 28 29  2  0
 29  3  1  0
 27 13  1  0
 19 15  1  0
 24 20  1  0
  1 30  1  0
  1 31  1  0
  1 32  1  0
  4 33  1  0
  5 34  1  0
  7 35  1  0
 10 36  1  1
 11 37  1  0
 11 38  1  0
 11 39  1  0
 12 40  1  0
 17 41  1  0
 20 42  1  0
 21 43  1  0
 21 44  1  0
 22 45  1  0
 22 46  1  0
 23 47  1  0
 23 48  1  0
 24 49  1  0
 24 50  1  0
 27 51  1  0
 28 52  1  0
 29 53  1  0
M  END
$$$$
