@<TRIPOS>MOLECULE
*****
 53 56 0 0 0
SMALL
GASTEIGER

@<TRIPOS>ATOM
      1 C           7.5893   -2.0358    1.8012 C.3     1  UNL1        0.0788
      2 O           7.1948   -1.7606    0.4734 O.3     1  UNL1       -0.4951
      3 C           5.9640   -1.1642    0.1819 C.ar    1  UNL1        0.1202
      4 C           5.0590   -0.8070    1.1597 C.ar    1  UNL1       -0.0182
      5 C           3.8474   -0.2176    0.8383 C.ar    1  UNL1       -0.0370
      6 C           3.4954    0.0367   -0.4713 C.ar    1  UNL1        0.0337
      7 N           2.2428    0.6441   -0.7737 N.am    1  UNL1       -0.2840
      8 C           2.0687    2.0407   -0.8619 C.2     1  UNL1        0.2373
      9 O           3.1035    2.7519   -0.6565 O.2     1  UNL1       -0.2734
     10 C           0.8271    2.7560   -1.1648 C.3     1  UNL1        0.0970
     11 C           1.0749    3.6215   -2.3872 C.3     1  UNL1       -0.0381
     12 N          -0.3283    1.9411   -1.3502 N.pl3   1  UNL1       -0.3038
     13 C          -0.8500    1.1485   -0.2856 C.ar    1  UNL1        0.1981
     14 N          -1.9202    0.3658   -0.5025 N.ar    1  UNL1       -0.1964
     15 C          -2.4412   -0.3810    0.4593 C.ar    1  UNL1        0.1672
     16 C          -1.8880   -0.3699    1.7200 C.ar    1  UNL1        0.1028
     17 C          -2.6270   -1.2252    2.4901 C.ar    1  UNL1        0.0639
     18 N          -3.5906   -1.7243    1.6955 N.ar    1  UNL1       -0.1767
     19 N          -3.4953   -1.2290    0.4718 N.ar    1  UNL1       -0.2431
     20 C          -4.3533   -1.5333   -0.6447 C.3     1  UNL1        0.0549
     21 C          -4.8794   -0.2607   -1.2929 C.3     1  UNL1       -0.0304
     22 C          -5.9765    0.1251   -0.3146 C.3     1  UNL1       -0.0511
     23 C          -6.6698   -1.1750   -0.0626 C.3     1  UNL1       -0.0511
     24 C          -5.5977   -2.2392   -0.1467 C.3     1  UNL1       -0.0304
     25 C          -0.7978    0.4292    1.9355 C.ar    1  UNL1        0.2634
     26 O          -0.2662    0.4650    3.0734 O.2     1  UNL1       -0.2670
     27 N          -0.2891    1.1792    0.9355 N.ar    1  UNL1       -0.2945
     28 C           4.4100   -0.3257   -1.4389 C.ar    1  UNL1       -0.0370
     29 C           5.6196   -0.9129   -1.1360 C.ar    1  UNL1       -0.0182
     30 H           7.1718   -3.0046    2.1645 H       1  UNL1        0.0660
     31 H           7.2964   -1.2119    2.4659 H       1  UNL1        0.0660
     32 H           8.7087   -2.1167    1.7755 H       1  UNL1        0.0660
     33 H           5.2865   -0.9846    2.2012 H       1  UNL1        0.0655
     34 H           3.1193    0.0712    1.6009 H       1  UNL1        0.0637
     35 H           1.4114    0.0387   -0.9425 H       1  UNL1        0.1549
     36 H           0.6451    3.4654   -0.3207 H       1  UNL1        0.0592
     37 H           1.6795    3.0489   -3.1264 H       1  UNL1        0.0252
     38 H           0.1270    3.8935   -2.8763 H       1  UNL1        0.0252
     39 H           1.6030    4.5458   -2.0625 H       1  UNL1        0.0252
     40 H          -0.7960    1.9279   -2.2819 H       1  UNL1        0.1496
     41 H          -2.4415   -1.4351    3.5361 H       1  UNL1        0.0856
     42 H          -3.8342   -2.1301   -1.4200 H       1  UNL1        0.0545
     43 H          -4.1200    0.5190   -1.3928 H       1  UNL1        0.0286
     44 H          -5.3472   -0.5095   -2.2567 H       1  UNL1        0.0286
     45 H          -6.6558    0.8879   -0.7462 H       1  UNL1        0.0266
     46 H          -5.5030    0.5375    0.6105 H       1  UNL1        0.0266
     47 H          -7.1081   -1.1211    0.9673 H       1  UNL1        0.0266
     48 H          -7.4458   -1.3140   -0.8368 H       1  UNL1        0.0266
     49 H          -5.9234   -3.0527   -0.8131 H       1  UNL1        0.0286
     50 H          -5.4260   -2.6384    0.8675 H       1  UNL1        0.0286
     51 H           0.5337    1.7735    1.1270 H       1  UNL1        0.1716
     52 H           4.1478   -0.1325   -2.4670 H       1  UNL1        0.0637
     53 H           6.3448   -1.2018   -1.8888 H       1  UNL1        0.0655
@<TRIPOS>BOND
     1     1     2    1
     2     2     3    1
     3     3     4   ar
     4     4     5   ar
     5     5     6   ar
     6     6     7    1
     7     7     8   am
     8     8     9    2
     9     8    10    1
    10    10    11    1
    11    10    12    1
    12    12    13    1
    13    13    14   ar
    14    14    15   ar
    15    15    16   ar
    16    16    17   ar
    17    17    18   ar
    18    18    19   ar
    19    19    20    1
    20    20    21    1
    21    21    22    1
    22    22    23    1
    23    23    24    1
    24    16    25   ar
    25    25    26    2
    26    25    27   ar
    27     6    28   ar
    28    28    29   ar
    29    29     3   ar
    30    27    13   ar
    31    19    15   ar
    32    24    20    1
    33     1    30    1
    34     1    31    1
    35     1    32    1
    36     4    33    1
    37     5    34    1
    38     7    35    1
    39    10    36    1
    40    11    37    1
    41    11    38    1
    42    11    39    1
    43    12    40    1
    44    17    41    1
    45    20    42    1
    46    21    43    1
    47    21    44    1
    48    22    45    1
    49    22    46    1
    50    23    47    1
    51    23    48    1
    52    24    49    1
    53    24    50    1
    54    27    51    1
    55    28    52    1
    56    29    53    1
