@<TRIPOS>MOLECULE
*****
 32 34 0 0 0
SMALL
GASTEIGER

@<TRIPOS>ATOM
      1 N           1.1984    3.8244   -2.2762 N.1     1  UNL1       -0.1876
      2 C           1.0917    2.7683   -1.7605 C.1     1  UNL1        0.1400
      3 C           0.9657    1.4871   -1.1625 C.ar    1  UNL1        0.2356
      4 N          -0.1720    1.0834   -0.6268 N.ar    1  UNL1       -0.2011
      5 C          -0.3858   -0.1054   -0.0427 C.ar    1  UNL1        0.1552
      6 N          -1.6127   -0.5064    0.5192 N.pl3   1  UNL1       -0.2974
      7 C          -2.7712    0.2761    0.5930 C.ar    1  UNL1        0.0379
      8 C          -4.0003   -0.3476    0.8732 C.ar    1  UNL1       -0.0051
      9 C          -5.1689    0.3313    0.9736 C.ar    1  UNL1        0.1279
     10 F          -6.3672   -0.2391    1.2417 F       1  UNL1       -0.2053
     11 C          -5.1787    1.7129    0.7949 C.ar    1  UNL1        0.0089
     12 C          -4.0111    2.3612    0.5218 C.ar    1  UNL1        0.1279
     13 F          -3.9830    3.6980    0.3425 F       1  UNL1       -0.2053
     14 C          -2.8285    1.6331    0.4257 C.ar    1  UNL1       -0.0051
     15 C           0.7075   -0.9639   -0.0160 C.ar    1  UNL1        0.1478
     16 N           0.8529   -2.1867    0.4685 N.ar    1  UNL1       -0.2306
     17 C           2.1292   -2.5751    0.2327 C.ar    1  UNL1        0.0985
     18 N           2.8010   -1.6173   -0.3956 N.ar    1  UNL1       -0.3094
     19 C           4.1605   -1.5827   -0.8415 C.3     1  UNL1        0.0865
     20 C           5.0912   -1.0309    0.2332 C.3     1  UNL1        0.2569
     21 F           5.0120   -1.8439    1.3548 F       1  UNL1       -0.2073
     22 F           4.7953    0.2758    0.5363 F       1  UNL1       -0.2073
     23 C           1.9157   -0.5948   -0.5588 C.ar    1  UNL1        0.1668
     24 N           2.0232    0.6185   -1.1198 N.ar    1  UNL1       -0.1987
     25 H          -1.6554   -1.4871    0.9205 H       1  UNL1        0.1536
     26 H          -4.0242   -1.4379    1.0192 H       1  UNL1        0.0665
     27 H          -6.0825    2.3072    0.8633 H       1  UNL1        0.0675
     28 H          -1.9467    2.1939    0.2187 H       1  UNL1        0.0665
     29 H           2.5074   -3.5296    0.5270 H       1  UNL1        0.1029
     30 H           4.2480   -0.8576   -1.7048 H       1  UNL1        0.0549
     31 H           4.5678   -2.5354   -1.1978 H       1  UNL1        0.0549
     32 H           6.1210   -1.1298   -0.1653 H       1  UNL1        0.1037
@<TRIPOS>BOND
     1     1     2    3
     2     2     3    1
     3     3     4   ar
     4     4     5   ar
     5     5     6    1
     6     6     7    1
     7     7     8   ar
     8     8     9   ar
     9     9    10    1
    10     9    11   ar
    11    11    12   ar
    12    12    13    1
    13    12    14   ar
    14     5    15   ar
    15    15    16   ar
    16    16    17   ar
    17    17    18   ar
    18    18    19    1
    19    19    20    1
    20    20    21    1
    21    20    22    1
    22    18    23   ar
    23    23    24   ar
    24    24     3   ar
    25    14     7   ar
    26    23    15   ar
    27     6    25    1
    28     8    26    1
    29    11    27    1
    30    14    28    1
    31    17    29    1
    32    19    30    1
    33    19    31    1
    34    20    32    1
