
     RDKit          3D

 42 43  0  0  0  0  0  0  0  0999 V2000
    3.1867    1.0760    0.2113 C   0  0  0  0  0  0  0  0  0  0  0  0
    1.7909    1.3911    0.1430 N   0  0  0  0  0  0  0  0  0  0  0  0
    1.5285    2.7310    0.2203 C   0  0  0  0  0  0  0  0  0  0  0  0
    2.4572    3.5996    0.3240 O   0  0  0  0  0  0  0  0  0  0  0  0
    0.2152    3.1593    0.1852 C   0  0  0  0  0  0  0  0  0  0  0  0
   -0.0477    4.6186    0.2710 C   0  0  0  0  0  0  0  0  0  0  0  0
   -0.7841    2.2266    0.0737 C   0  0  0  0  0  0  0  0  0  0  0  0
   -0.5260    0.8950   -0.0037 C   0  0  0  0  0  0  0  0  0  0  0  0
   -1.6614   -0.0019   -0.1215 C   0  0  0  0  0  0  0  0  0  0  0  0
   -1.8306   -1.2414   -0.2171 O   0  0  0  0  0  0  0  0  0  0  0  0
   -2.9946    0.4705   -0.1521 N   0  0  0  0  0  0  0  0  0  0  0  0
   -4.0689   -0.3437   -0.2608 O   0  0  0  0  0  0  0  0  0  0  0  0
   -4.5657   -0.7616    0.9643 C   0  0  0  0  0  0  0  0  0  0  0  0
   -5.7715   -1.6714    0.7064 C   0  0  0  0  0  0  0  0  0  0  0  0
   -6.7465   -0.9720    0.0146 O   0  0  0  0  0  0  0  0  0  0  0  0
    0.7892    0.5021    0.0336 C   0  0  0  0  0  0  0  0  0  0  0  0
    1.0871   -0.8586   -0.0668 N   0  0  0  0  0  0  0  0  0  0  0  0
    2.1800   -1.7314   -0.2171 C   0  0  0  0  0  0  0  0  0  0  0  0
    2.6772   -2.7141    0.6173 C   0  0  0  0  0  0  0  0  0  0  0  0
    3.7643   -3.4892    0.2794 C   0  0  0  0  0  0  0  0  0  0  0  0
    4.4031   -3.3042   -0.9283 C   0  0  0  0  0  0  0  0  0  0  0  0
    6.0574   -4.5313   -1.3669 I   0  0  0  0  0  0  0  0  0  0  0  0
    3.9268   -2.3320   -1.7772 C   0  0  0  0  0  0  0  0  0  0  0  0
    2.8390   -1.5526   -1.4447 C   0  0  0  0  0  0  0  0  0  0  0  0
    2.5410   -0.6569   -2.4424 F   0  0  0  0  0  0  0  0  0  0  0  0
    3.6368    1.1305   -0.7739 H   0  0  0  0  0  0  0  0  0  0  0  0
    3.7520    1.8562    0.8168 H   0  0  0  0  0  0  0  0  0  0  0  0
    3.4132    0.1359    0.7904 H   0  0  0  0  0  0  0  0  0  0  0  0
   -0.1627    5.0784   -0.7345 H   0  0  0  0  0  0  0  0  0  0  0  0
   -0.9220    4.8383    0.9155 H   0  0  0  0  0  0  0  0  0  0  0  0
    0.8202    5.1088    0.7569 H   0  0  0  0  0  0  0  0  0  0  0  0
   -1.7494    2.6898    0.0584 H   0  0  0  0  0  0  0  0  0  0  0  0
   -3.2845    1.4933   -0.0940 H   0  0  0  0  0  0  0  0  0  0  0  0
   -3.8111   -1.4458    1.4280 H   0  0  0  0  0  0  0  0  0  0  0  0
   -4.8983    0.0419    1.6225 H   0  0  0  0  0  0  0  0  0  0  0  0
   -6.1788   -2.0202    1.6833 H   0  0  0  0  0  0  0  0  0  0  0  0
   -5.4724   -2.5398    0.0656 H   0  0  0  0  0  0  0  0  0  0  0  0
   -6.6147    0.0145    0.1301 H   0  0  0  0  0  0  0  0  0  0  0  0
    0.3772   -1.6184   -0.0397 H   0  0  0  0  0  0  0  0  0  0  0  0
    2.1121   -2.7841    1.5380 H   0  0  0  0  0  0  0  0  0  0  0  0
    4.0404   -4.2227    1.0395 H   0  0  0  0  0  0  0  0  0  0  0  0
    4.4955   -2.2641   -2.7005 H   0  0  0  0  0  0  0  0  0  0  0  0
  1  2  1  0
  2  3  1  0
  3  4  2  0
  3  5  1  0
  5  6  1  0
  5  7  2  0
  7  8  1  0
  8  9  1  0
  9 10  2  0
  9 11  1  0
 11 12  1  0
 12 13  1  0
 13 14  1  0
 14 15  1  0
  8 16  2  0
 16 17  1  0
 17 18  1  0
 18 19  2  0
 19 20  1  0
 20 21  2  0
 21 22  1  0
 21 23  1  0
 23 24  2  0
 24 25  1  0
 16  2  1  0
 24 18  1  0
  1 26  1  0
  1 27  1  0
  1 28  1  0
  6 29  1  0
  6 30  1  0
  6 31  1  0
  7 32  1  0
 11 33  1  0
 13 34  1  0
 13 35  1  0
 14 36  1  0
 14 37  1  0
 15 38  1  0
 17 39  1  0
 19 40  1  0
 20 41  1  0
 23 42  1  0
M  END
$$$$
