@<TRIPOS>MOLECULE
*****
 42 43 0 0 0
SMALL
GASTEIGER

@<TRIPOS>ATOM
      1 C           3.1867    1.0760    0.2113 C.3     1  UNL1        0.0164
      2 N           1.7909    1.3911    0.1430 N.ar    1  UNL1       -0.2988
      3 C           1.5285    2.7310    0.2203 C.ar    1  UNL1        0.2553
      4 O           2.4572    3.5996    0.3240 O.2     1  UNL1       -0.2674
      5 C           0.2152    3.1593    0.1852 C.ar    1  UNL1        0.0149
      6 C          -0.0477    4.6186    0.2710 C.3     1  UNL1       -0.0346
      7 C          -0.7841    2.2266    0.0737 C.ar    1  UNL1       -0.0382
      8 C          -0.5260    0.8950   -0.0037 C.ar    1  UNL1        0.0774
      9 C          -1.6614   -0.0019   -0.1215 C.2     1  UNL1        0.2700
     10 O          -1.8306   -1.2414   -0.2171 O.2     1  UNL1       -0.2680
     11 N          -2.9946    0.4705   -0.1521 N.am    1  UNL1       -0.1904
     12 O          -4.0689   -0.3437   -0.2608 O.3     1  UNL1       -0.2773
     13 C          -4.5657   -0.7616    0.9643 C.3     1  UNL1        0.0963
     14 C          -5.7715   -1.6714    0.7064 C.3     1  UNL1        0.0698
     15 O          -6.7465   -0.9720    0.0146 O.3     1  UNL1       -0.3927
     16 C           0.7892    0.5021    0.0336 C.ar    1  UNL1        0.1180
     17 N           1.0871   -0.8586   -0.0668 N.pl3   1  UNL1       -0.2979
     18 C           2.1800   -1.7314   -0.2171 C.ar    1  UNL1        0.0681
     19 C           2.6772   -2.7141    0.6173 C.ar    1  UNL1       -0.0367
     20 C           3.7643   -3.4892    0.2794 C.ar    1  UNL1       -0.0467
     21 C           4.4031   -3.3042   -0.9283 C.ar    1  UNL1        0.0162
     22 I           6.0574   -4.5313   -1.3669 I       1  UNL1       -0.0437
     23 C           3.9268   -2.3320   -1.7772 C.ar    1  UNL1       -0.0115
     24 C           2.8390   -1.5526   -1.4447 C.ar    1  UNL1        0.1454
     25 F           2.5410   -0.6569   -2.4424 F       1  UNL1       -0.2035
     26 H           3.6368    1.1305   -0.7739 H       1  UNL1        0.0457
     27 H           3.7520    1.8562    0.8168 H       1  UNL1        0.0457
     28 H           3.4132    0.1359    0.7904 H       1  UNL1        0.0457
     29 H          -0.1627    5.0784   -0.7345 H       1  UNL1        0.0279
     30 H          -0.9220    4.8383    0.9155 H       1  UNL1        0.0279
     31 H           0.8202    5.1088    0.7569 H       1  UNL1        0.0279
     32 H          -1.7494    2.6898    0.0584 H       1  UNL1        0.0630
     33 H          -3.2845    1.4933   -0.0940 H       1  UNL1        0.1828
     34 H          -3.8111   -1.4458    1.4280 H       1  UNL1        0.0606
     35 H          -4.8983    0.0419    1.6225 H       1  UNL1        0.0606
     36 H          -6.1788   -2.0202    1.6833 H       1  UNL1        0.0581
     37 H          -5.4724   -2.5398    0.0656 H       1  UNL1        0.0581
     38 H          -6.6147    0.0145    0.1301 H       1  UNL1        0.2095
     39 H           0.3772   -1.6184   -0.0397 H       1  UNL1        0.1536
     40 H           2.1121   -2.7841    1.5380 H       1  UNL1        0.0637
     41 H           4.0404   -4.2227    1.0395 H       1  UNL1        0.0628
     42 H           4.4955   -2.2641   -2.7005 H       1  UNL1        0.0657
@<TRIPOS>BOND
     1     1     2    1
     2     2     3   ar
     3     3     4    2
     4     3     5   ar
     5     5     6    1
     6     5     7   ar
     7     7     8   ar
     8     8     9    1
     9     9    10    2
    10     9    11   am
    11    11    12    1
    12    12    13    1
    13    13    14    1
    14    14    15    1
    15     8    16   ar
    16    16    17    1
    17    17    18    1
    18    18    19   ar
    19    19    20   ar
    20    20    21   ar
    21    21    22    1
    22    21    23   ar
    23    23    24   ar
    24    24    25    1
    25    16     2   ar
    26    24    18   ar
    27     1    26    1
    28     1    27    1
    29     1    28    1
    30     6    29    1
    31     6    30    1
    32     6    31    1
    33     7    32    1
    34    11    33    1
    35    13    34    1
    36    13    35    1
    37    14    36    1
    38    14    37    1
    39    15    38    1
    40    17    39    1
    41    19    40    1
    42    20    41    1
    43    23    42    1
