@<TRIPOS>MOLECULE
*****
 37 38 0 0 0
SMALL
GASTEIGER

@<TRIPOS>ATOM
      1 C          -1.9783   -1.9834   -0.5912 C.3     1  UNL1        0.1094
      2 O          -2.5481   -3.2304   -0.4768 O.3     1  UNL1       -0.3866
      3 C          -0.9709   -1.6940    0.5304 C.3     1  UNL1        0.0999
      4 O          -1.6578   -2.0102    1.6892 O.3     1  UNL1       -0.3876
      5 C          -0.7306   -0.2557    0.3183 C.3     1  UNL1        0.0508
      6 N          -0.1274    0.5195    1.2858 N.3     1  UNL1       -0.3058
      7 C           1.1547    0.3037    1.7722 C.3     1  UNL1        0.0216
      8 C           2.1687    0.4051    0.6911 C.ar    1  UNL1       -0.0336
      9 C           2.5817   -0.6774   -0.0685 C.ar    1  UNL1       -0.0573
     10 C           3.5194   -0.6424   -1.0852 C.ar    1  UNL1       -0.0615
     11 C           4.0935    0.5785   -1.3668 C.ar    1  UNL1       -0.0617
     12 C           3.7147    1.6874   -0.6373 C.ar    1  UNL1       -0.0615
     13 C           2.7884    1.6146    0.3557 C.ar    1  UNL1       -0.0573
     14 C          -2.1255    0.2974    0.0423 C.3     1  UNL1        0.0512
     15 S          -2.0327    1.4835   -1.2984 S.3     1  UNL1       -0.1565
     16 C          -1.0727    2.9166   -0.7390 C.3     1  UNL1       -0.0177
     17 C          -3.0035   -0.8834   -0.2838 C.3     1  UNL1        0.0968
     18 O          -3.7846   -1.2241    0.8085 O.3     1  UNL1       -0.3880
     19 H          -1.5475   -1.7480   -1.5709 H       1  UNL1        0.0646
     20 H          -3.2643   -3.2765   -1.1511 H       1  UNL1        0.2100
     21 H          -0.1273   -2.3633    0.3673 H       1  UNL1        0.0636
     22 H          -1.5785   -1.3686    2.4097 H       1  UNL1        0.2100
     23 H          -0.1578   -0.1594   -0.6408 H       1  UNL1        0.0498
     24 H          -0.7691    1.1131    1.8424 H       1  UNL1        0.1226
     25 H           1.3492   -0.5970    2.3749 H       1  UNL1        0.0474
     26 H           1.4045    1.1575    2.4699 H       1  UNL1        0.0474
     27 H           2.1419   -1.6396    0.1403 H       1  UNL1        0.0621
     28 H           3.7714   -1.5481   -1.6168 H       1  UNL1        0.0618
     29 H           4.8256    0.5847   -2.1661 H       1  UNL1        0.0618
     30 H           4.1988    2.6207   -0.9031 H       1  UNL1        0.0618
     31 H           2.4984    2.5099    0.9242 H       1  UNL1        0.0621
     32 H          -2.4929    0.7499    0.9917 H       1  UNL1        0.0454
     33 H          -0.0585    2.8146   -1.1892 H       1  UNL1        0.0341
     34 H          -1.0378    2.9817    0.3617 H       1  UNL1        0.0341
     35 H          -1.6124    3.8169   -1.1411 H       1  UNL1        0.0341
     36 H          -3.6418   -0.6507   -1.1435 H       1  UNL1        0.0631
     37 H          -3.8905   -2.2032    0.9030 H       1  UNL1        0.2099
@<TRIPOS>BOND
     1     1     2    1
     2     1     3    1
     3     3     4    1
     4     3     5    1
     5     5     6    1
     6     6     7    1
     7     7     8    1
     8     8     9   ar
     9     9    10   ar
    10    10    11   ar
    11    11    12   ar
    12    12    13   ar
    13     5    14    1
    14    14    15    1
    15    15    16    1
    16    14    17    1
    17    17    18    1
    18    17     1    1
    19    13     8   ar
    20     1    19    1
    21     2    20    1
    22     3    21    1
    23     4    22    1
    24     5    23    1
    25     6    24    1
    26     7    25    1
    27     7    26    1
    28     9    27    1
    29    10    28    1
    30    11    29    1
    31    12    30    1
    32    13    31    1
    33    14    32    1
    34    16    33    1
    35    16    34    1
    36    16    35    1
    37    17    36    1
    38    18    37    1
