
     RDKit          3D

 71 75  0  0  0  0  0  0  0  0999 V2000
    3.5626    0.5231    1.4643 C   0  0  1  0  0  0  0  0  0  0  0  0
    2.5905    0.0471    2.5209 C   0  0  0  0  0  0  0  0  0  0  0  0
    1.3706   -0.1647    1.9129 O   0  0  0  0  0  0  0  0  0  0  0  0
    0.2031   -0.7076    3.0378 P   0  0  0  0  0  0  0  0  0  0  0  0
    0.4172    0.0534    4.5304 O   0  0  0  0  0  0  0  0  0  0  0  0
    0.4674   -2.1876    3.2343 O   0  0  0  0  0  0  0  0  0  0  0  0
   -1.3483   -0.5276    2.4455 O   0  0  0  0  0  0  0  0  0  0  0  0
   -1.4546    0.6479    1.2427 P   0  0  0  0  0  0  0  0  0  0  0  0
   -2.1974    2.0485    1.8223 O   0  0  0  0  0  0  0  0  0  0  0  0
   -0.0570    1.0218    0.7869 O   0  0  0  0  0  0  0  0  0  0  0  0
   -2.3031   -0.0066   -0.0627 O   0  0  0  0  0  0  0  0  0  0  0  0
   -2.9710    1.0044   -0.7836 C   0  0  0  0  0  0  0  0  0  0  0  0
   -3.6882    0.3036   -1.9174 C   0  0  1  0  0  0  0  0  0  0  0  0
   -4.5890   -0.6215   -1.4101 O   0  0  0  0  0  0  0  0  0  0  0  0
   -5.5742   -0.8489   -2.3392 C   0  0  1  0  0  0  0  0  0  0  0  0
   -6.9054   -0.8144   -1.7643 N   0  0  0  0  0  4  0  0  0  0  0  0
   -7.9331   -1.1678   -2.5479 C   0  0  0  0  0  0  0  0  0  0  0  0
   -9.1742   -1.1179   -1.9545 C   0  0  0  0  0  0  0  0  0  0  0  0
   -9.4359   -0.7415   -0.6478 C   0  0  0  0  0  0  0  0  0  0  0  0
   -8.3000   -0.4008    0.0570 C   0  0  0  0  0  0  0  0  0  0  0  0
   -7.0474   -0.4330   -0.4829 C   0  0  0  0  0  0  0  0  0  0  0  0
   -8.4256    0.0162    1.4477 C   0  0  0  0  0  0  0  0  0  0  0  0
  -10.0057    0.1125    2.3088 S   0  0  0  0  0  1  0  0  0  0  0  0
   -7.6226    0.3929    2.3850 N   0  0  0  0  0  0  0  0  0  0  0  0
   -5.5001    0.2572   -3.3764 C   0  0  2  0  0  0  0  0  0  0  0  0
   -4.8344   -0.2752   -4.4968 O   0  0  0  0  0  0  0  0  0  0  0  0
   -4.6268    1.2616   -2.6449 C   0  0  2  0  0  0  0  0  0  0  0  0
   -3.9608    2.1283   -3.4760 O   0  0  0  0  0  0  0  0  0  0  0  0
    4.8357    0.7706    1.9661 O   0  0  0  0  0  0  0  0  0  0  0  0
    5.7056    0.6561    0.8999 C   0  0  1  0  0  0  0  0  0  0  0  0
    7.0131    0.1800    1.3066 N   0  0  0  0  0  0  0  0  0  0  0  0
    7.5710   -0.1746    2.4703 C   0  0  0  0  0  0  0  0  0  0  0  0
    8.8433   -0.5517    2.3024 N   0  0  0  0  0  0  0  0  0  0  0  0
    9.1131   -0.4361    0.9877 C   0  0  0  0  0  0  0  0  0  0  0  0
   10.3021   -0.7141    0.3446 C   0  0  0  0  0  0  0  0  0  0  0  0
   11.4566   -1.1830    1.0212 N   0  0  0  0  0  0  0  0  0  0  0  0
   10.2895   -0.5043   -1.0009 N   0  0  0  0  0  0  0  0  0  0  0  0
    9.1885   -0.0612   -1.6189 C   0  0  0  0  0  0  0  0  0  0  0  0
    8.0529    0.2012   -0.9842 N   0  0  0  0  0  0  0  0  0  0  0  0
    7.9717    0.0229    0.3495 C   0  0  0  0  0  0  0  0  0  0  0  0
    5.1454   -0.3857   -0.0424 C   0  0  2  0  0  0  0  0  0  0  0  0
    5.2242    0.0412   -1.3628 O   0  0  0  0  0  0  0  0  0  0  0  0
    3.7376   -0.5856    0.4362 C   0  0  2  0  0  0  0  0  0  0  0  0
    2.8393   -0.3741   -0.5916 O   0  0  0  0  0  0  0  0  0  0  0  0
    3.1413    1.4003    0.9717 H   0  0  0  0  0  0  0  0  0  0  0  0
    2.9504   -0.9231    2.9236 H   0  0  0  0  0  0  0  0  0  0  0  0
    2.5349    0.8167    3.3326 H   0  0  0  0  0  0  0  0  0  0  0  0
    0.4016    1.0534    4.3989 H   0  0  0  0  0  0  0  0  0  0  0  0
   -2.9498    1.8208    2.4325 H   0  0  0  0  0  0  0  0  0  0  0  0
   -3.7019    1.5299   -0.1470 H   0  0  0  0  0  0  0  0  0  0  0  0
   -2.1716    1.6780   -1.1526 H   0  0  0  0  0  0  0  0  0  0  0  0
   -3.0057   -0.1063   -2.6639 H   0  0  0  0  0  0  0  0  0  0  0  0
   -5.4205   -1.8487   -2.7922 H   0  0  0  0  0  0  0  0  0  0  0  0
   -7.8433   -1.4786   -3.5830 H   0  0  0  0  0  0  0  0  0  0  0  0
  -10.0353   -1.4032   -2.5762 H   0  0  0  0  0  0  0  0  0  0  0  0
  -10.4298   -0.7226   -0.2405 H   0  0  0  0  0  0  0  0  0  0  0  0
   -6.1814   -0.1581    0.1035 H   0  0  0  0  0  0  0  0  0  0  0  0
   -6.5991    0.4817    2.3152 H   0  0  0  0  0  0  0  0  0  0  0  0
   -6.4684    0.6781   -3.6437 H   0  0  0  0  0  0  0  0  0  0  0  0
   -4.3262   -1.0962   -4.2868 H   0  0  0  0  0  0  0  0  0  0  0  0
   -5.3119    1.7561   -1.9125 H   0  0  0  0  0  0  0  0  0  0  0  0
   -4.3457    3.0277   -3.3835 H   0  0  0  0  0  0  0  0  0  0  0  0
    5.8442    1.6277    0.3760 H   0  0  0  0  0  0  0  0  0  0  0  0
    6.9931   -0.1316    3.3849 H   0  0  0  0  0  0  0  0  0  0  0  0
   12.1394   -1.7152    0.4370 H   0  0  0  0  0  0  0  0  0  0  0  0
   11.5583   -0.9773    2.0351 H   0  0  0  0  0  0  0  0  0  0  0  0
    9.1418    0.1192   -2.7016 H   0  0  0  0  0  0  0  0  0  0  0  0
    5.6903   -1.3475    0.0279 H   0  0  0  0  0  0  0  0  0  0  0  0
    4.4153   -0.2724   -1.8668 H   0  0  0  0  0  0  0  0  0  0  0  0
    3.5849   -1.5400    0.9759 H   0  0  0  0  0  0  0  0  0  0  0  0
    2.4485    0.5509   -0.5402 H   0  0  0  0  0  0  0  0  0  0  0  0
  1  2  1  0
  2  3  1  0
  3  4  1  0
  4  5  1  0
  4  6  2  0
  4  7  1  0
  7  8  1  0
  8  9  1  0
  8 10  2  0
  8 11  1  0
 11 12  1  0
 12 13  1  0
 13 14  1  0
 14 15  1  0
 15 16  1  0
 16 17  2  0
 17 18  1  0
 18 19  2  0
 19 20  1  0
 20 21  2  0
 20 22  1  0
 22 23  1  0
 22 24  2  3
 15 25  1  0
 25 26  1  0
 25 27  1  0
 27 28  1  0
  1 29  1  0
 29 30  1  0
 30 31  1  0
 31 32  1  0
 32 33  2  0
 33 34  1  0
 34 35  2  0
 35 36  1  0
 35 37  1  0
 37 38  2  0
 38 39  1  0
 39 40  2  0
 30 41  1  0
 41 42  1  0
 41 43  1  0
 43 44  1  0
 43  1  1  0
 27 13  1  0
 40 31  1  0
 21 16  1  0
 40 34  1  0
  1 45  1  6
  2 46  1  0
  2 47  1  0
  5 48  1  0
  9 49  1  0
 12 50  1  0
 12 51  1  0
 13 52  1  6
 15 53  1  6
 17 54  1  0
 18 55  1  0
 19 56  1  0
 21 57  1  0
 24 58  1  0
 25 59  1  6
 26 60  1  0
 27 61  1  1
 28 62  1  0
 30 63  1  6
 32 64  1  0
 36 65  1  0
 36 66  1  0
 38 67  1  0
 41 68  1  6
 42 69  1  0
 43 70  1  1
 44 71  1  0
M  CHG  2  16   1  23  -1
M  END
$$$$
