@<TRIPOS>MOLECULE
*****
 71 75 0 0 0
SMALL
GASTEIGER

@<TRIPOS>ATOM
      1 C           3.5626    0.5231    1.4643 C.3     1  UNL1        0.1134
      2 C           2.5905    0.0471    2.5209 C.3     1  UNL1        0.0879
      3 O           1.3706   -0.1647    1.9129 O.3     1  UNL1       -0.2837
      4 P           0.2031   -0.7076    3.0378 P.3     1  UNL1        0.4835
      5 O           0.4172    0.0534    4.5304 O.3     1  UNL1       -0.3022
      6 O           0.4674   -2.1876    3.2343 O.2     1  UNL1       -0.2269
      7 O          -1.3483   -0.5276    2.4455 O.3     1  UNL1       -0.1861
      8 P          -1.4546    0.6479    1.2427 P.3     1  UNL1        0.4835
      9 O          -2.1974    2.0485    1.8223 O.3     1  UNL1       -0.3022
     10 O          -0.0570    1.0218    0.7869 O.2     1  UNL1       -0.2269
     11 O          -2.3031   -0.0066   -0.0627 O.3     1  UNL1       -0.2837
     12 C          -2.9710    1.0044   -0.7836 C.3     1  UNL1        0.0880
     13 C          -3.6882    0.3036   -1.9174 C.3     1  UNL1        0.1177
     14 O          -4.5890   -0.6215   -1.4101 O.3     1  UNL1       -0.3094
     15 C          -5.5742   -0.8489   -2.3392 C.3     1  UNL1        0.2949
     16 N          -6.9054   -0.8144   -1.7643 N.ar    1  UNL1       -0.1733
     17 C          -7.9331   -1.1678   -2.5479 C.ar    1  UNL1        0.1738
     18 C          -9.1742   -1.1179   -1.9545 C.ar    1  UNL1        0.0027
     19 C          -9.4359   -0.7415   -0.6478 C.ar    1  UNL1       -0.0436
     20 C          -8.3000   -0.4008    0.0570 C.ar    1  UNL1        0.0342
     21 C          -7.0474   -0.4330   -0.4829 C.ar    1  UNL1        0.1806
     22 C          -8.4256    0.0162    1.4477 C.2     1  UNL1       -0.0955
     23 S         -10.0057    0.1125    2.3088 S.3     1  UNL1       -0.7393
     24 N          -7.6226    0.3929    2.3850 N.2     1  UNL1       -0.3298
     25 C          -5.5001    0.2572   -3.3764 C.3     1  UNL1        0.1727
     26 O          -4.8344   -0.2752   -4.4968 O.3     1  UNL1       -0.3803
     27 C          -4.6268    1.2616   -2.6449 C.3     1  UNL1        0.1184
     28 O          -3.9608    2.1283   -3.4760 O.3     1  UNL1       -0.3862
     29 O           4.8357    0.7706    1.9661 O.3     1  UNL1       -0.3456
     30 C           5.7056    0.6561    0.8999 C.3     1  UNL1        0.1667
     31 N           7.0131    0.1800    1.3066 N.ar    1  UNL1       -0.2855
     32 C           7.5710   -0.1746    2.4703 C.ar    1  UNL1        0.1004
     33 N           8.8433   -0.5517    2.3024 N.ar    1  UNL1       -0.2306
     34 C           9.1131   -0.4361    0.9877 C.ar    1  UNL1        0.1473
     35 C          10.3021   -0.7141    0.3446 C.ar    1  UNL1        0.1472
     36 N          11.4566   -1.1830    1.0212 N.pl3   1  UNL1       -0.3413
     37 N          10.2895   -0.5043   -1.0009 N.ar    1  UNL1       -0.2188
     38 C           9.1885   -0.0612   -1.6189 C.ar    1  UNL1        0.1205
     39 N           8.0529    0.2012   -0.9842 N.ar    1  UNL1       -0.2159
     40 C           7.9717    0.0229    0.3495 C.ar    1  UNL1        0.1674
     41 C           5.1454   -0.3857   -0.0424 C.3     1  UNL1        0.1285
     42 O           5.2242    0.0412   -1.3628 O.3     1  UNL1       -0.3847
     43 C           3.7376   -0.5856    0.4362 C.3     1  UNL1        0.1135
     44 O           2.8393   -0.3741   -0.5916 O.3     1  UNL1       -0.3864
     45 H           3.1413    1.4003    0.9717 H       1  UNL1        0.0647
     46 H           2.9504   -0.9231    2.9236 H       1  UNL1        0.0592
     47 H           2.5349    0.8167    3.3326 H       1  UNL1        0.0592
     48 H           0.4016    1.0534    4.3989 H       1  UNL1        0.2220
     49 H          -2.9498    1.8208    2.4325 H       1  UNL1        0.2220
     50 H          -3.7019    1.5299   -0.1470 H       1  UNL1        0.0592
     51 H          -2.1716    1.6780   -1.1526 H       1  UNL1        0.0592
     52 H          -3.0057   -0.1063   -2.6639 H       1  UNL1        0.0648
     53 H          -5.4205   -1.8487   -2.7922 H       1  UNL1        0.1444
     54 H          -7.8433   -1.4786   -3.5830 H       1  UNL1        0.1377
     55 H         -10.0353   -1.4032   -2.5762 H       1  UNL1        0.0677
     56 H         -10.4298   -0.7226   -0.2405 H       1  UNL1        0.0627
     57 H          -6.1814   -0.1581    0.1035 H       1  UNL1        0.1383
     58 H          -6.5991    0.4817    2.3152 H       1  UNL1        0.1840
     59 H          -6.4684    0.6781   -3.6437 H       1  UNL1        0.0716
     60 H          -4.3262   -1.0962   -4.2868 H       1  UNL1        0.2103
     61 H          -5.3119    1.7561   -1.9125 H       1  UNL1        0.0649
     62 H          -4.3457    3.0277   -3.3835 H       1  UNL1        0.2100
     63 H           5.8442    1.6277    0.3760 H       1  UNL1        0.0866
     64 H           6.9931   -0.1316    3.3849 H       1  UNL1        0.1030
     65 H          12.1394   -1.7152    0.4370 H       1  UNL1        0.1438
     66 H          11.5583   -0.9773    2.0351 H       1  UNL1        0.1438
     67 H           9.1418    0.1192   -2.7016 H       1  UNL1        0.1048
     68 H           5.6903   -1.3475    0.0279 H       1  UNL1        0.0665
     69 H           4.4153   -0.2724   -1.8668 H       1  UNL1        0.2101
     70 H           3.5849   -1.5400    0.9759 H       1  UNL1        0.0647
     71 H           2.4485    0.5509   -0.5402 H       1  UNL1        0.2100
@<TRIPOS>UNITY_ATOM_ATTR
16 1
charge 1
23 1
charge -1
@<TRIPOS>BOND
     1     1     2    1
     2     2     3    1
     3     3     4    1
     4     4     5    1
     5     4     6    2
     6     4     7    1
     7     7     8    1
     8     8     9    1
     9     8    10    2
    10     8    11    1
    11    11    12    1
    12    12    13    1
    13    13    14    1
    14    14    15    1
    15    15    16    1
    16    16    17   ar
    17    17    18   ar
    18    18    19   ar
    19    19    20   ar
    20    20    21   ar
    21    20    22    1
    22    22    23    1
    23    22    24    2
    24    15    25    1
    25    25    26    1
    26    25    27    1
    27    27    28    1
    28     1    29    1
    29    29    30    1
    30    30    31    1
    31    31    32   ar
    32    32    33   ar
    33    33    34   ar
    34    34    35   ar
    35    35    36    1
    36    35    37   ar
    37    37    38   ar
    38    38    39   ar
    39    39    40   ar
    40    30    41    1
    41    41    42    1
    42    41    43    1
    43    43    44    1
    44    43     1    1
    45    27    13    1
    46    40    31   ar
    47    21    16   ar
    48    40    34   ar
    49     1    45    1
    50     2    46    1
    51     2    47    1
    52     5    48    1
    53     9    49    1
    54    12    50    1
    55    12    51    1
    56    13    52    1
    57    15    53    1
    58    17    54    1
    59    18    55    1
    60    19    56    1
    61    21    57    1
    62    24    58    1
    63    25    59    1
    64    26    60    1
    65    27    61    1
    66    28    62    1
    67    30    63    1
    68    32    64    1
    69    36    65    1
    70    36    66    1
    71    38    67    1
    72    41    68    1
    73    42    69    1
    74    43    70    1
    75    44    71    1
