@<TRIPOS>MOLECULE
*****
 30 30 0 0 0
SMALL
GASTEIGER

@<TRIPOS>ATOM
      1 C           3.7767    0.5026   -0.7586 C.3     1  UNL1       -0.0467
      2 C           2.6381    0.0952    0.1370 C.3     1  UNL1        0.0365
      3 N           2.6774   -1.3032    0.4825 N.3     1  UNL1       -0.3247
      4 C           1.2861    0.3413   -0.5496 C.3     1  UNL1        0.1044
      5 O           0.3128    0.0065    0.3602 O.3     1  UNL1       -0.4899
      6 C          -1.0482    0.0337    0.2740 C.ar    1  UNL1        0.1263
      7 C          -1.7373   -1.0933   -0.1857 C.ar    1  UNL1       -0.0085
      8 C          -1.0415   -2.3323   -0.5887 C.3     1  UNL1       -0.0362
      9 C          -3.1241   -1.1116   -0.2903 C.ar    1  UNL1       -0.0554
     10 C          -3.8351   -0.0012    0.0646 C.ar    1  UNL1       -0.0610
     11 C          -3.2019    1.1302    0.5220 C.ar    1  UNL1       -0.0554
     12 C          -1.8319    1.1392    0.6219 C.ar    1  UNL1       -0.0085
     13 C          -1.0677    2.3091    1.1027 C.3     1  UNL1       -0.0362
     14 H           4.1294   -0.4278   -1.2839 H       1  UNL1        0.0246
     15 H           4.6530    0.8619   -0.1732 H       1  UNL1        0.0246
     16 H           3.5052    1.2962   -1.4614 H       1  UNL1        0.0246
     17 H           2.6925    0.6848    1.0511 H       1  UNL1        0.0489
     18 H           3.3341   -1.7550   -0.2118 H       1  UNL1        0.1186
     19 H           2.9721   -1.4262    1.4548 H       1  UNL1        0.1186
     20 H           1.3211   -0.2775   -1.4719 H       1  UNL1        0.0712
     21 H           1.3156    1.3808   -0.8986 H       1  UNL1        0.0712
     22 H          -1.6244   -2.8458   -1.4071 H       1  UNL1        0.0279
     23 H          -0.0322   -2.2074   -0.9731 H       1  UNL1        0.0279
     24 H          -1.0160   -3.0324    0.2582 H       1  UNL1        0.0279
     25 H          -3.6558   -1.9915   -0.6488 H       1  UNL1        0.0621
     26 H          -4.9166    0.0370    0.0021 H       1  UNL1        0.0618
     27 H          -3.7415    2.0183    0.8078 H       1  UNL1        0.0621
     28 H          -1.7716    3.1689    1.1507 H       1  UNL1        0.0279
     29 H          -0.7287    2.1796    2.1598 H       1  UNL1        0.0279
     30 H          -0.2395    2.6199    0.4534 H       1  UNL1        0.0279
@<TRIPOS>BOND
     1     1     2    1
     2     2     3    1
     3     2     4    1
     4     4     5    1
     5     5     6    1
     6     6     7   ar
     7     7     8    1
     8     7     9   ar
     9     9    10   ar
    10    10    11   ar
    11    11    12   ar
    12    12    13    1
    13    12     6   ar
    14     1    14    1
    15     1    15    1
    16     1    16    1
    17     2    17    1
    18     3    18    1
    19     3    19    1
    20     4    20    1
    21     4    21    1
    22     8    22    1
    23     8    23    1
    24     8    24    1
    25     9    25    1
    26    10    26    1
    27    11    27    1
    28    13    28    1
    29    13    29    1
    30    13    30    1
