@<TRIPOS>MOLECULE
*****
 51 54 0 0 0
SMALL
GASTEIGER

@<TRIPOS>ATOM
      1 C           8.0082   -0.7038   -0.8707 C.3     1  UNL1       -0.0495
      2 C           7.4804   -0.8729    0.5249 C.3     1  UNL1        0.0102
      3 N           6.0385   -1.0926    0.4270 N.am    1  UNL1       -0.2995
      4 C           5.2284   -0.1014   -0.1670 C.2     1  UNL1        0.3022
      5 O           5.7689    0.9459   -0.5971 O.2     1  UNL1       -0.2526
      6 N           3.8041   -0.2268   -0.3079 N.am    1  UNL1       -0.2855
      7 C           3.1219   -1.4101    0.1699 C.3     1  UNL1        0.0178
      8 C           1.6732   -1.0710    0.4458 C.3     1  UNL1       -0.0185
      9 C           1.5154    0.3235    1.0002 C.3     1  UNL1        0.0262
     10 N           0.1205    0.5501    1.2681 N.pl3   1  UNL1       -0.3105
     11 C          -0.8793    0.5317    0.2433 C.ar    1  UNL1        0.2172
     12 N          -0.6319    0.3145   -1.0375 N.ar    1  UNL1       -0.2228
     13 C          -1.5653    0.2956   -2.0058 C.ar    1  UNL1        0.0346
     14 C          -2.8723    0.5216   -1.6145 C.ar    1  UNL1       -0.0005
     15 C          -3.1900    0.7555   -0.2805 C.ar    1  UNL1        0.1430
     16 N          -4.5404    0.9891    0.1247 N.ar    1  UNL1       -0.3006
     17 C          -4.9868    2.0399    0.8366 C.ar    1  UNL1        0.0123
     18 C          -6.3323    1.9361    1.0407 C.ar    1  UNL1       -0.0360
     19 C          -6.7356    0.7689    0.4275 C.ar    1  UNL1        0.0002
     20 C          -7.9555    0.1690    0.3124 C.ar    1  UNL1       -0.0526
     21 C          -8.0832   -1.0098   -0.3619 C.ar    1  UNL1       -0.0611
     22 C          -6.9597   -1.5860   -0.9258 C.ar    1  UNL1       -0.0598
     23 C          -5.7140   -0.9767   -0.8102 C.ar    1  UNL1       -0.0372
     24 C          -5.6059    0.2154   -0.1241 C.ar    1  UNL1        0.0551
     25 N          -2.1726    0.7502    0.5955 N.ar    1  UNL1       -0.1968
     26 C           2.0068    1.3802    0.0421 C.3     1  UNL1       -0.0185
     27 C           3.0187    0.8122   -0.9251 C.3     1  UNL1        0.0178
     28 H           7.3555   -1.2852   -1.5580 H       1  UNL1        0.0245
     29 H           9.0382   -1.1039   -0.9710 H       1  UNL1        0.0245
     30 H           7.9840    0.3884   -1.1065 H       1  UNL1        0.0245
     31 H           7.9400   -1.7510    1.0215 H       1  UNL1        0.0460
     32 H           7.7129    0.0203    1.1392 H       1  UNL1        0.0460
     33 H           5.6034   -1.9612    0.7850 H       1  UNL1        0.1502
     34 H           3.1514   -2.2129   -0.5901 H       1  UNL1        0.0465
     35 H           3.5978   -1.8360    1.0916 H       1  UNL1        0.0465
     36 H           1.0290   -1.2457   -0.4354 H       1  UNL1        0.0298
     37 H           1.3325   -1.7702    1.2395 H       1  UNL1        0.0298
     38 H           2.0918    0.4024    1.9394 H       1  UNL1        0.0499
     39 H          -0.1619    0.7345    2.2557 H       1  UNL1        0.1492
     40 H          -1.3616    0.1185   -3.0486 H       1  UNL1        0.0832
     41 H          -3.6598    0.5195   -2.3354 H       1  UNL1        0.0669
     42 H          -4.3614    2.8660    1.2034 H       1  UNL1        0.0813
     43 H          -6.9795    2.6209    1.5750 H       1  UNL1        0.0639
     44 H          -8.8345    0.6180    0.7525 H       1  UNL1        0.0624
     45 H          -9.0656   -1.4581   -0.4340 H       1  UNL1        0.0618
     46 H          -7.0674   -2.5204   -1.4590 H       1  UNL1        0.0618
     47 H          -4.8378   -1.4307   -1.2527 H       1  UNL1        0.0638
     48 H           1.2039    1.8760   -0.5153 H       1  UNL1        0.0298
     49 H           2.5198    2.1592    0.6391 H       1  UNL1        0.0298
     50 H           2.4918    0.4190   -1.8425 H       1  UNL1        0.0465
     51 H           3.7173    1.5846   -1.3160 H       1  UNL1        0.0465
@<TRIPOS>BOND
     1     1     2    1
     2     2     3    1
     3     3     4   am
     4     4     5    2
     5     4     6   am
     6     6     7    1
     7     7     8    1
     8     8     9    1
     9     9    10    1
    10    10    11    1
    11    11    12   ar
    12    12    13   ar
    13    13    14   ar
    14    14    15   ar
    15    15    16    1
    16    16    17   ar
    17    17    18   ar
    18    18    19   ar
    19    19    20   ar
    20    20    21   ar
    21    21    22   ar
    22    22    23   ar
    23    23    24   ar
    24    15    25   ar
    25     9    26    1
    26    26    27    1
    27    27     6    1
    28    25    11   ar
    29    24    16   ar
    30    24    19   ar
    31     1    28    1
    32     1    29    1
    33     1    30    1
    34     2    31    1
    35     2    32    1
    36     3    33    1
    37     7    34    1
    38     7    35    1
    39     8    36    1
    40     8    37    1
    41     9    38    1
    42    10    39    1
    43    13    40    1
    44    14    41    1
    45    17    42    1
    46    18    43    1
    47    20    44    1
    48    21    45    1
    49    22    46    1
    50    23    47    1
    51    26    48    1
    52    26    49    1
    53    27    50    1
    54    27    51    1
