
     RDKit          3D

 51 54  0  0  0  0  0  0  0  0999 V2000
    8.0082   -0.7038   -0.8707 C   0  0  0  0  0  0  0  0  0  0  0  0
    7.4804   -0.8729    0.5249 C   0  0  0  0  0  0  0  0  0  0  0  0
    6.0385   -1.0926    0.4270 N   0  0  0  0  0  0  0  0  0  0  0  0
    5.2284   -0.1014   -0.1670 C   0  0  0  0  0  0  0  0  0  0  0  0
    5.7689    0.9459   -0.5971 O   0  0  0  0  0  0  0  0  0  0  0  0
    3.8041   -0.2268   -0.3079 N   0  0  0  0  0  0  0  0  0  0  0  0
    3.1219   -1.4101    0.1699 C   0  0  0  0  0  0  0  0  0  0  0  0
    1.6732   -1.0710    0.4458 C   0  0  0  0  0  0  0  0  0  0  0  0
    1.5154    0.3235    1.0002 C   0  0  0  0  0  0  0  0  0  0  0  0
    0.1205    0.5501    1.2681 N   0  0  0  0  0  0  0  0  0  0  0  0
   -0.8793    0.5317    0.2433 C   0  0  0  0  0  0  0  0  0  0  0  0
   -0.6319    0.3145   -1.0375 N   0  0  0  0  0  0  0  0  0  0  0  0
   -1.5653    0.2956   -2.0058 C   0  0  0  0  0  0  0  0  0  0  0  0
   -2.8723    0.5216   -1.6145 C   0  0  0  0  0  0  0  0  0  0  0  0
   -3.1900    0.7555   -0.2805 C   0  0  0  0  0  0  0  0  0  0  0  0
   -4.5404    0.9891    0.1247 N   0  0  0  0  0  0  0  0  0  0  0  0
   -4.9868    2.0399    0.8366 C   0  0  0  0  0  0  0  0  0  0  0  0
   -6.3323    1.9361    1.0407 C   0  0  0  0  0  0  0  0  0  0  0  0
   -6.7356    0.7689    0.4275 C   0  0  0  0  0  0  0  0  0  0  0  0
   -7.9555    0.1690    0.3124 C   0  0  0  0  0  0  0  0  0  0  0  0
   -8.0832   -1.0098   -0.3619 C   0  0  0  0  0  0  0  0  0  0  0  0
   -6.9597   -1.5860   -0.9258 C   0  0  0  0  0  0  0  0  0  0  0  0
   -5.7140   -0.9767   -0.8102 C   0  0  0  0  0  0  0  0  0  0  0  0
   -5.6059    0.2154   -0.1241 C   0  0  0  0  0  0  0  0  0  0  0  0
   -2.1726    0.7502    0.5955 N   0  0  0  0  0  0  0  0  0  0  0  0
    2.0068    1.3802    0.0421 C   0  0  0  0  0  0  0  0  0  0  0  0
    3.0187    0.8122   -0.9251 C   0  0  0  0  0  0  0  0  0  0  0  0
    7.3555   -1.2852   -1.5580 H   0  0  0  0  0  0  0  0  0  0  0  0
    9.0382   -1.1039   -0.9710 H   0  0  0  0  0  0  0  0  0  0  0  0
    7.9840    0.3884   -1.1065 H   0  0  0  0  0  0  0  0  0  0  0  0
    7.9400   -1.7510    1.0215 H   0  0  0  0  0  0  0  0  0  0  0  0
    7.7129    0.0203    1.1392 H   0  0  0  0  0  0  0  0  0  0  0  0
    5.6034   -1.9612    0.7850 H   0  0  0  0  0  0  0  0  0  0  0  0
    3.1514   -2.2129   -0.5901 H   0  0  0  0  0  0  0  0  0  0  0  0
    3.5978   -1.8360    1.0916 H   0  0  0  0  0  0  0  0  0  0  0  0
    1.0290   -1.2457   -0.4354 H   0  0  0  0  0  0  0  0  0  0  0  0
    1.3325   -1.7702    1.2395 H   0  0  0  0  0  0  0  0  0  0  0  0
    2.0918    0.4024    1.9394 H   0  0  0  0  0  0  0  0  0  0  0  0
   -0.1619    0.7345    2.2557 H   0  0  0  0  0  0  0  0  0  0  0  0
   -1.3616    0.1185   -3.0486 H   0  0  0  0  0  0  0  0  0  0  0  0
   -3.6598    0.5195   -2.3354 H   0  0  0  0  0  0  0  0  0  0  0  0
   -4.3614    2.8660    1.2034 H   0  0  0  0  0  0  0  0  0  0  0  0
   -6.9795    2.6209    1.5750 H   0  0  0  0  0  0  0  0  0  0  0  0
   -8.8345    0.6180    0.7525 H   0  0  0  0  0  0  0  0  0  0  0  0
   -9.0656   -1.4581   -0.4340 H   0  0  0  0  0  0  0  0  0  0  0  0
   -7.0674   -2.5204   -1.4590 H   0  0  0  0  0  0  0  0  0  0  0  0
   -4.8378   -1.4307   -1.2527 H   0  0  0  0  0  0  0  0  0  0  0  0
    1.2039    1.8760   -0.5153 H   0  0  0  0  0  0  0  0  0  0  0  0
    2.5198    2.1592    0.6391 H   0  0  0  0  0  0  0  0  0  0  0  0
    2.4918    0.4190   -1.8425 H   0  0  0  0  0  0  0  0  0  0  0  0
    3.7173    1.5846   -1.3160 H   0  0  0  0  0  0  0  0  0  0  0  0
  1  2  1  0
  2  3  1  0
  3  4  1  0
  4  5  2  0
  4  6  1  0
  6  7  1  0
  7  8  1  0
  8  9  1  0
  9 10  1  0
 10 11  1  0
 11 12  2  0
 12 13  1  0
 13 14  2  0
 14 15  1  0
 15 16  1  0
 16 17  1  0
 17 18  2  0
 18 19  1  0
 19 20  2  0
 20 21  1  0
 21 22  2  0
 22 23  1  0
 23 24  2  0
 15 25  2  0
  9 26  1  0
 26 27  1  0
 27  6  1  0
 25 11  1  0
 24 16  1  0
 24 19  1  0
  1 28  1  0
  1 29  1  0
  1 30  1  0
  2 31  1  0
  2 32  1  0
  3 33  1  0
  7 34  1  0
  7 35  1  0
  8 36  1  0
  8 37  1  0
  9 38  1  0
 10 39  1  0
 13 40  1  0
 14 41  1  0
 17 42  1  0
 18 43  1  0
 20 44  1  0
 21 45  1  0
 22 46  1  0
 23 47  1  0
 26 48  1  0
 26 49  1  0
 27 50  1  0
 27 51  1  0
M  END
$$$$
