@<TRIPOS>MOLECULE
*****
 73 78 0 0 0
SMALL
GASTEIGER

@<TRIPOS>ATOM
      1 C          -6.2724    2.2924   -1.7514 C.3     1  UNL1       -0.0380
      2 C          -6.7643    1.2949   -0.7382 C.ar    1  UNL1       -0.0279
      3 C          -8.0593    0.8338   -0.7859 C.ar    1  UNL1       -0.0557
      4 C          -8.5336   -0.0774    0.1277 C.ar    1  UNL1       -0.0433
      5 C          -7.6407   -0.5029    1.0930 C.ar    1  UNL1        0.0279
      6 N          -6.3784   -0.0570    1.1438 N.ar    1  UNL1       -0.2583
      7 C          -5.9219    0.8323    0.2491 C.ar    1  UNL1        0.0581
      8 C          -4.5264    1.3200    0.3120 C.3     1  UNL1        0.0415
      9 N          -3.6900    0.7082   -0.7050 N.3     1  UNL1       -0.2965
     10 C          -3.6389   -0.7211   -0.5747 C.3     1  UNL1        0.0017
     11 C          -2.3467   -1.3113   -1.1352 C.3     1  UNL1       -0.0095
     12 C          -1.2293   -0.8898   -0.2427 C.3     1  UNL1        0.1240
     13 C          -1.4697    0.4893    0.3105 C.3     1  UNL1       -0.0095
     14 C          -2.3660    1.2575   -0.6430 C.3     1  UNL1        0.0017
     15 C           0.0962   -0.8391   -0.9441 C.2     1  UNL1        0.2516
     16 O           0.3472   -0.7597   -2.1715 O.2     1  UNL1       -0.2724
     17 N           1.0805   -0.9010    0.0978 N.am    1  UNL1       -0.1920
     18 C           2.4212   -0.4297    0.0625 C.ar    1  UNL1        0.0455
     19 C           2.7045    0.8728    0.4525 C.ar    1  UNL1       -0.0395
     20 C           3.9970    1.3500    0.4276 C.ar    1  UNL1       -0.0565
     21 C           5.0437    0.5782    0.0252 C.ar    1  UNL1       -0.0442
     22 C           6.4403    1.0857   -0.0040 C.3     1  UNL1       -0.0158
     23 C           6.9083    1.5761    1.3250 C.3     1  UNL1       -0.0462
     24 C           8.2482    2.2376    1.1558 C.3     1  UNL1       -0.0525
     25 C           8.8251    2.0064   -0.2246 C.3     1  UNL1       -0.0530
     26 C           7.9420    2.5662   -1.3062 C.3     1  UNL1       -0.0525
     27 C           6.4989    2.1873   -1.0536 C.3     1  UNL1       -0.0462
     28 C           4.7837   -0.7195   -0.3665 C.ar    1  UNL1       -0.0565
     29 C           3.4885   -1.2053   -0.3442 C.ar    1  UNL1       -0.0395
     30 C           0.4281   -1.5424    1.1911 C.2     1  UNL1        0.3219
     31 O           0.9228   -1.8097    2.3324 O.2     1  UNL1       -0.2512
     32 N          -0.9256   -1.8574    0.8039 N.am    1  UNL1       -0.2240
     33 C          -1.7218   -2.8869    1.3547 C.ar    1  UNL1        0.1364
     34 C          -1.7739   -4.1752    0.8780 C.ar    1  UNL1        0.0432
     35 C          -2.5702   -5.1476    1.4539 C.ar    1  UNL1        0.2531
     36 O          -2.6227   -6.3326    1.0213 O.2     1  UNL1       -0.2678
     37 N          -3.3242   -4.8187    2.5239 N.ar    1  UNL1       -0.3133
     38 C          -3.2774   -3.5630    2.9934 C.ar    1  UNL1        0.0981
     39 N          -2.4899   -2.6118    2.4196 N.ar    1  UNL1       -0.2220
     40 H          -6.3572    3.3254   -1.3399 H       1  UNL1        0.0278
     41 H          -5.2216    2.1027   -2.0332 H       1  UNL1        0.0278
     42 H          -6.9319    2.2052   -2.6309 H       1  UNL1        0.0278
     43 H          -8.7046    1.2103   -1.5700 H       1  UNL1        0.0621
     44 H          -9.5478   -0.4380    0.0899 H       1  UNL1        0.0633
     45 H          -8.0103   -1.2190    1.8125 H       1  UNL1        0.0829
     46 H          -4.4858    2.4099    0.2530 H       1  UNL1        0.0491
     47 H          -4.0966    1.0281    1.2939 H       1  UNL1        0.0491
     48 H          -3.6815   -0.9453    0.5151 H       1  UNL1        0.0427
     49 H          -4.5184   -1.2291   -1.0218 H       1  UNL1        0.0427
     50 H          -2.2334   -0.9113   -2.1655 H       1  UNL1        0.0303
     51 H          -2.5001   -2.4057   -1.1873 H       1  UNL1        0.0303
     52 H          -1.9489    0.4854    1.2982 H       1  UNL1        0.0303
     53 H          -0.5198    1.0709    0.3952 H       1  UNL1        0.0303
     54 H          -1.8706    1.2797   -1.6259 H       1  UNL1        0.0427
     55 H          -2.4627    2.3138   -0.3091 H       1  UNL1        0.0427
     56 H           1.8668    1.4828    0.7718 H       1  UNL1        0.0636
     57 H           4.2060    2.3684    0.7340 H       1  UNL1        0.0621
     58 H           7.1323    0.2912   -0.3500 H       1  UNL1        0.0349
     59 H           6.1713    2.2222    1.8430 H       1  UNL1        0.0271
     60 H           7.0496    0.6848    1.9917 H       1  UNL1        0.0271
     61 H           8.9925    1.8774    1.8967 H       1  UNL1        0.0265
     62 H           8.1251    3.3189    1.3253 H       1  UNL1        0.0265
     63 H           9.0931    0.9598   -0.4023 H       1  UNL1        0.0265
     64 H           9.7866    2.5893   -0.2591 H       1  UNL1        0.0265
     65 H           8.2373    2.0739   -2.2648 H       1  UNL1        0.0265
     66 H           8.0341    3.6628   -1.3547 H       1  UNL1        0.0265
     67 H           5.8993    3.0347   -0.6617 H       1  UNL1        0.0271
     68 H           6.0053    1.7789   -1.9663 H       1  UNL1        0.0271
     69 H           5.5889   -1.3648   -0.6931 H       1  UNL1        0.0621
     70 H           3.2650   -2.2343   -0.6526 H       1  UNL1        0.0636
     71 H          -1.1801   -4.4567    0.0257 H       1  UNL1        0.0706
     72 H          -3.9172   -5.5657    2.9431 H       1  UNL1        0.1698
     73 H          -3.8972   -3.3361    3.8546 H       1  UNL1        0.1028
@<TRIPOS>BOND
     1     1     2    1
     2     2     3   ar
     3     3     4   ar
     4     4     5   ar
     5     5     6   ar
     6     6     7   ar
     7     7     8    1
     8     8     9    1
     9     9    10    1
    10    10    11    1
    11    11    12    1
    12    12    13    1
    13    13    14    1
    14    12    15    1
    15    15    16    2
    16    15    17   am
    17    17    18    1
    18    18    19   ar
    19    19    20   ar
    20    20    21   ar
    21    21    22    1
    22    22    23    1
    23    23    24    1
    24    24    25    1
    25    25    26    1
    26    26    27    1
    27    21    28   ar
    28    28    29   ar
    29    17    30   am
    30    30    31    2
    31    30    32   am
    32    32    33    1
    33    33    34   ar
    34    34    35   ar
    35    35    36    2
    36    35    37   ar
    37    37    38   ar
    38    38    39   ar
    39     7     2   ar
    40    14     9    1
    41    29    18   ar
    42    39    33   ar
    43    32    12    1
    44    27    22    1
    45     1    40    1
    46     1    41    1
    47     1    42    1
    48     3    43    1
    49     4    44    1
    50     5    45    1
    51     8    46    1
    52     8    47    1
    53    10    48    1
    54    10    49    1
    55    11    50    1
    56    11    51    1
    57    13    52    1
    58    13    53    1
    59    14    54    1
    60    14    55    1
    61    19    56    1
    62    20    57    1
    63    22    58    1
    64    23    59    1
    65    23    60    1
    66    24    61    1
    67    24    62    1
    68    25    63    1
    69    25    64    1
    70    26    65    1
    71    26    66    1
    72    27    67    1
    73    27    68    1
    74    28    69    1
    75    29    70    1
    76    34    71    1
    77    37    72    1
    78    38    73    1
