
     RDKit          3D

 73 78  0  0  0  0  0  0  0  0999 V2000
   -6.2724    2.2924   -1.7514 C   0  0  0  0  0  0  0  0  0  0  0  0
   -6.7643    1.2949   -0.7382 C   0  0  0  0  0  0  0  0  0  0  0  0
   -8.0593    0.8338   -0.7859 C   0  0  0  0  0  0  0  0  0  0  0  0
   -8.5336   -0.0774    0.1277 C   0  0  0  0  0  0  0  0  0  0  0  0
   -7.6407   -0.5029    1.0930 C   0  0  0  0  0  0  0  0  0  0  0  0
   -6.3784   -0.0570    1.1438 N   0  0  0  0  0  0  0  0  0  0  0  0
   -5.9219    0.8323    0.2491 C   0  0  0  0  0  0  0  0  0  0  0  0
   -4.5264    1.3200    0.3120 C   0  0  0  0  0  0  0  0  0  0  0  0
   -3.6900    0.7082   -0.7050 N   0  0  0  0  0  0  0  0  0  0  0  0
   -3.6389   -0.7211   -0.5747 C   0  0  0  0  0  0  0  0  0  0  0  0
   -2.3467   -1.3113   -1.1352 C   0  0  0  0  0  0  0  0  0  0  0  0
   -1.2293   -0.8898   -0.2427 C   0  0  0  0  0  0  0  0  0  0  0  0
   -1.4697    0.4893    0.3105 C   0  0  0  0  0  0  0  0  0  0  0  0
   -2.3660    1.2575   -0.6430 C   0  0  0  0  0  0  0  0  0  0  0  0
    0.0962   -0.8391   -0.9441 C   0  0  0  0  0  0  0  0  0  0  0  0
    0.3472   -0.7597   -2.1715 O   0  0  0  0  0  0  0  0  0  0  0  0
    1.0805   -0.9010    0.0978 N   0  0  0  0  0  0  0  0  0  0  0  0
    2.4212   -0.4297    0.0625 C   0  0  0  0  0  0  0  0  0  0  0  0
    2.7045    0.8728    0.4525 C   0  0  0  0  0  0  0  0  0  0  0  0
    3.9970    1.3500    0.4276 C   0  0  0  0  0  0  0  0  0  0  0  0
    5.0437    0.5782    0.0252 C   0  0  0  0  0  0  0  0  0  0  0  0
    6.4403    1.0857   -0.0040 C   0  0  0  0  0  0  0  0  0  0  0  0
    6.9083    1.5761    1.3250 C   0  0  0  0  0  0  0  0  0  0  0  0
    8.2482    2.2376    1.1558 C   0  0  0  0  0  0  0  0  0  0  0  0
    8.8251    2.0064   -0.2246 C   0  0  0  0  0  0  0  0  0  0  0  0
    7.9420    2.5662   -1.3062 C   0  0  0  0  0  0  0  0  0  0  0  0
    6.4989    2.1873   -1.0536 C   0  0  0  0  0  0  0  0  0  0  0  0
    4.7837   -0.7195   -0.3665 C   0  0  0  0  0  0  0  0  0  0  0  0
    3.4885   -1.2053   -0.3442 C   0  0  0  0  0  0  0  0  0  0  0  0
    0.4281   -1.5424    1.1911 C   0  0  0  0  0  0  0  0  0  0  0  0
    0.9228   -1.8097    2.3324 O   0  0  0  0  0  0  0  0  0  0  0  0
   -0.9256   -1.8574    0.8039 N   0  0  0  0  0  0  0  0  0  0  0  0
   -1.7218   -2.8869    1.3547 C   0  0  0  0  0  0  0  0  0  0  0  0
   -1.7739   -4.1752    0.8780 C   0  0  0  0  0  0  0  0  0  0  0  0
   -2.5702   -5.1476    1.4539 C   0  0  0  0  0  0  0  0  0  0  0  0
   -2.6227   -6.3326    1.0213 O   0  0  0  0  0  0  0  0  0  0  0  0
   -3.3242   -4.8187    2.5239 N   0  0  0  0  0  0  0  0  0  0  0  0
   -3.2774   -3.5630    2.9934 C   0  0  0  0  0  0  0  0  0  0  0  0
   -2.4899   -2.6118    2.4196 N   0  0  0  0  0  0  0  0  0  0  0  0
   -6.3572    3.3254   -1.3399 H   0  0  0  0  0  0  0  0  0  0  0  0
   -5.2216    2.1027   -2.0332 H   0  0  0  0  0  0  0  0  0  0  0  0
   -6.9319    2.2052   -2.6309 H   0  0  0  0  0  0  0  0  0  0  0  0
   -8.7046    1.2103   -1.5700 H   0  0  0  0  0  0  0  0  0  0  0  0
   -9.5478   -0.4380    0.0899 H   0  0  0  0  0  0  0  0  0  0  0  0
   -8.0103   -1.2190    1.8125 H   0  0  0  0  0  0  0  0  0  0  0  0
   -4.4858    2.4099    0.2530 H   0  0  0  0  0  0  0  0  0  0  0  0
   -4.0966    1.0281    1.2939 H   0  0  0  0  0  0  0  0  0  0  0  0
   -3.6815   -0.9453    0.5151 H   0  0  0  0  0  0  0  0  0  0  0  0
   -4.5184   -1.2291   -1.0218 H   0  0  0  0  0  0  0  0  0  0  0  0
   -2.2334   -0.9113   -2.1655 H   0  0  0  0  0  0  0  0  0  0  0  0
   -2.5001   -2.4057   -1.1873 H   0  0  0  0  0  0  0  0  0  0  0  0
   -1.9489    0.4854    1.2982 H   0  0  0  0  0  0  0  0  0  0  0  0
   -0.5198    1.0709    0.3952 H   0  0  0  0  0  0  0  0  0  0  0  0
   -1.8706    1.2797   -1.6259 H   0  0  0  0  0  0  0  0  0  0  0  0
   -2.4627    2.3138   -0.3091 H   0  0  0  0  0  0  0  0  0  0  0  0
    1.8668    1.4828    0.7718 H   0  0  0  0  0  0  0  0  0  0  0  0
    4.2060    2.3684    0.7340 H   0  0  0  0  0  0  0  0  0  0  0  0
    7.1323    0.2912   -0.3500 H   0  0  0  0  0  0  0  0  0  0  0  0
    6.1713    2.2222    1.8430 H   0  0  0  0  0  0  0  0  0  0  0  0
    7.0496    0.6848    1.9917 H   0  0  0  0  0  0  0  0  0  0  0  0
    8.9925    1.8774    1.8967 H   0  0  0  0  0  0  0  0  0  0  0  0
    8.1251    3.3189    1.3253 H   0  0  0  0  0  0  0  0  0  0  0  0
    9.0931    0.9598   -0.4023 H   0  0  0  0  0  0  0  0  0  0  0  0
    9.7866    2.5893   -0.2591 H   0  0  0  0  0  0  0  0  0  0  0  0
    8.2373    2.0739   -2.2648 H   0  0  0  0  0  0  0  0  0  0  0  0
    8.0341    3.6628   -1.3547 H   0  0  0  0  0  0  0  0  0  0  0  0
    5.8993    3.0347   -0.6617 H   0  0  0  0  0  0  0  0  0  0  0  0
    6.0053    1.7789   -1.9663 H   0  0  0  0  0  0  0  0  0  0  0  0
    5.5889   -1.3648   -0.6931 H   0  0  0  0  0  0  0  0  0  0  0  0
    3.2650   -2.2343   -0.6526 H   0  0  0  0  0  0  0  0  0  0  0  0
   -1.1801   -4.4567    0.0257 H   0  0  0  0  0  0  0  0  0  0  0  0
   -3.9172   -5.5657    2.9431 H   0  0  0  0  0  0  0  0  0  0  0  0
   -3.8972   -3.3361    3.8546 H   0  0  0  0  0  0  0  0  0  0  0  0
  1  2  1  0
  2  3  2  0
  3  4  1  0
  4  5  2  0
  5  6  1  0
  6  7  2  0
  7  8  1  0
  8  9  1  0
  9 10  1  0
 10 11  1  0
 11 12  1  0
 12 13  1  0
 13 14  1  0
 12 15  1  0
 15 16  2  0
 15 17  1  0
 17 18  1  0
 18 19  2  0
 19 20  1  0
 20 21  2  0
 21 22  1  0
 22 23  1  0
 23 24  1  0
 24 25  1  0
 25 26  1  0
 26 27  1  0
 21 28  1  0
 28 29  2  0
 17 30  1  0
 30 31  2  0
 30 32  1  0
 32 33  1  0
 33 34  2  0
 34 35  1  0
 35 36  2  0
 35 37  1  0
 37 38  1  0
 38 39  2  0
  7  2  1  0
 14  9  1  0
 29 18  1  0
 39 33  1  0
 32 12  1  0
 27 22  1  0
  1 40  1  0
  1 41  1  0
  1 42  1  0
  3 43  1  0
  4 44  1  0
  5 45  1  0
  8 46  1  0
  8 47  1  0
 10 48  1  0
 10 49  1  0
 11 50  1  0
 11 51  1  0
 13 52  1  0
 13 53  1  0
 14 54  1  0
 14 55  1  0
 19 56  1  0
 20 57  1  0
 22 58  1  0
 23 59  1  0
 23 60  1  0
 24 61  1  0
 24 62  1  0
 25 63  1  0
 25 64  1  0
 26 65  1  0
 26 66  1  0
 27 67  1  0
 27 68  1  0
 28 69  1  0
 29 70  1  0
 34 71  1  0
 37 72  1  0
 38 73  1  0
M  END
$$$$
