
     RDKit          3D

 43 46  0  0  0  0  0  0  0  0999 V2000
   -7.2143    0.0759    0.7269 N   0  0  0  0  0  0  0  0  0  0  0  0
   -6.1501   -0.2806   -0.1566 C   0  0  0  0  0  0  0  0  0  0  0  0
   -6.3366   -0.7791   -1.3853 N   0  0  0  0  0  0  0  0  0  0  0  0
   -5.2791   -1.0965   -2.1719 C   0  0  0  0  0  0  0  0  0  0  0  0
   -4.0351   -0.8933   -1.6756 N   0  0  0  0  0  0  0  0  0  0  0  0
   -3.7970   -0.3977   -0.4540 C   0  0  0  0  0  0  0  0  0  0  0  0
   -4.8749   -0.0750    0.3459 C   0  0  0  0  0  0  0  0  0  0  0  0
   -4.3649    0.3883    1.4866 N   0  0  0  0  0  0  0  0  0  0  0  0
   -3.0043    0.3479    1.3820 C   0  0  0  0  0  0  0  0  0  0  0  0
   -2.6232   -0.1396    0.1780 N   0  0  0  0  0  0  0  0  0  0  0  0
   -1.2631   -0.3225   -0.2782 C   0  0  2  0  0  0  0  0  0  0  0  0
   -0.6029   -1.3447    0.3657 O   0  0  0  0  0  0  0  0  0  0  0  0
    0.5513   -0.8557    0.9500 C   0  0  1  0  0  0  0  0  0  0  0  0
    1.8099   -1.3786    0.3400 C   0  0  0  0  0  0  0  0  0  0  0  0
    2.8817   -0.7864    1.0458 O   0  0  0  0  0  0  0  0  0  0  0  0
    4.3648   -1.3103    0.4368 P   0  0  2  0  0  5  0  0  0  0  0  0
    4.3472   -2.9952    0.2101 O   0  0  0  0  0  0  0  0  0  0  0  0
    5.4164   -1.0395    1.4852 O   0  0  0  0  0  0  0  0  0  0  0  0
    4.8129   -0.5647   -0.9879 O   0  0  0  0  0  0  0  0  0  0  0  0
    5.9492    0.6377   -0.6474 P   0  0  0  0  0  0  0  0  0  0  0  0
    5.2130    1.7782    0.3574 O   0  0  0  0  0  0  0  0  0  0  0  0
    7.2493   -0.0462    0.2223 O   0  0  0  0  0  0  0  0  0  0  0  0
    6.4818    1.2644   -1.9208 O   0  0  0  0  0  0  0  0  0  0  0  0
    0.5226    0.6084    0.9311 C   0  0  1  0  0  0  0  0  0  0  0  0
    1.7115    1.2718    0.5955 O   0  0  0  0  0  0  0  0  0  0  0  0
    0.8216    2.9764    0.0907 V   0  0  0  0  0  6  0  0  0  0  0  0
    0.8040    4.1260    1.3843 O   0  0  0  0  0  0  0  0  0  0  0  0
    1.4125    3.5907   -1.4111 O   0  0  0  0  0  0  0  0  0  0  0  0
   -0.9539    2.0934   -0.1231 O   0  0  0  0  0  0  0  0  0  0  0  0
   -0.3967    0.8393   -0.2629 C   0  0  2  0  0  0  0  0  0  0  0  0
   -8.0883   -0.3186    1.1235 H   0  0  0  0  0  0  0  0  0  0  0  0
   -7.1919    1.0232    1.1652 H   0  0  0  0  0  0  0  0  0  0  0  0
   -5.4538   -1.5027   -3.1732 H   0  0  0  0  0  0  0  0  0  0  0  0
   -2.3542    0.6762    2.1892 H   0  0  0  0  0  0  0  0  0  0  0  0
   -1.3596   -0.6816   -1.3469 H   0  0  0  0  0  0  0  0  0  0  0  0
    0.5419   -1.2453    2.0058 H   0  0  0  0  0  0  0  0  0  0  0  0
    1.8377   -1.0489   -0.7279 H   0  0  0  0  0  0  0  0  0  0  0  0
    1.8883   -2.4850    0.4311 H   0  0  0  0  0  0  0  0  0  0  0  0
    4.4820   -3.2457   -0.7457 H   0  0  0  0  0  0  0  0  0  0  0  0
    4.3600    2.1141   -0.0146 H   0  0  0  0  0  0  0  0  0  0  0  0
    7.4705   -0.9510   -0.1669 H   0  0  0  0  0  0  0  0  0  0  0  0
    0.1553    1.0944    1.8531 H   0  0  0  0  0  0  0  0  0  0  0  0
    0.2587    0.8781   -1.1682 H   0  0  0  0  0  0  0  0  0  0  0  0
  1  2  1  0
  2  3  2  0
  3  4  1  0
  4  5  2  0
  5  6  1  0
  6  7  2  0
  7  8  1  0
  8  9  2  0
  9 10  1  0
 10 11  1  0
 11 12  1  0
 12 13  1  0
 13 14  1  0
 14 15  1  0
 16 15  1  1
 16 17  1  0
 16 18  2  0
 16 19  1  0
 19 20  1  0
 20 21  1  0
 20 22  1  0
 20 23  2  0
 13 24  1  0
 24 25  1  0
 25 26  1  0
 26 27  2  0
 26 28  2  0
 26 29  1  0
 29 30  1  0
  7  2  1  0
 30 11  1  0
 10  6  1  0
 30 24  1  0
  1 31  1  0
  1 32  1  0
  4 33  1  0
  9 34  1  0
 11 35  1  6
 13 36  1  1
 14 37  1  0
 14 38  1  0
 17 39  1  0
 21 40  1  0
 22 41  1  0
 24 42  1  1
 30 43  1  6
M  END
$$$$
