@<TRIPOS>MOLECULE
*****
 47 52 0 0 0
SMALL
GASTEIGER

@<TRIPOS>ATOM
      1 O          -5.6822    2.4101    1.9161 O.2     1  UNL1       -0.2745
      2 C          -5.3547    1.3320    1.3222 C.2     1  UNL1        0.2284
      3 N          -6.1529    0.5199    0.5061 N.am    1  UNL1       -0.2845
      4 C          -5.3724   -0.6115    0.1470 C.ar    1  UNL1        0.0376
      5 C          -5.8090   -1.6927   -0.6213 C.ar    1  UNL1       -0.0402
      6 C          -4.9503   -2.7487   -0.8418 C.ar    1  UNL1       -0.0600
      7 C          -3.6851   -2.7084   -0.2979 C.ar    1  UNL1       -0.0614
      8 C          -3.2735   -1.6129    0.4671 C.ar    1  UNL1       -0.0558
      9 C          -4.1177   -0.5327    0.7049 C.ar    1  UNL1       -0.0106
     10 C          -3.9998    0.7252    1.4007 C.3     1  UNL1        0.0812
     11 C          -3.3070    0.9404    2.6868 C.3     1  UNL1       -0.0263
     12 C          -2.8505    1.6463    1.4095 C.3     1  UNL1        0.0035
     13 C          -1.5089    1.4023    0.9308 C.ar    1  UNL1       -0.0409
     14 C          -0.6305    0.4767    1.4332 C.ar    1  UNL1       -0.0575
     15 C           0.6398    0.2851    0.9392 C.ar    1  UNL1       -0.0502
     16 C           1.0857    1.0541   -0.1239 C.ar    1  UNL1        0.0268
     17 C           2.2832    1.0969   -0.8273 C.ar    1  UNL1        0.0931
     18 C           3.4570    0.2556   -0.5768 C.2     1  UNL1       -0.0334
     19 C           4.5575    0.3433   -1.2749 C.2     1  UNL1       -0.0524
     20 C           5.7513   -0.4671   -1.0683 C.ar    1  UNL1       -0.0221
     21 C           5.8397   -1.4314   -0.0904 C.ar    1  UNL1       -0.0364
     22 C           7.0012   -2.1580    0.0447 C.ar    1  UNL1        0.0281
     23 N           8.0601   -1.9523   -0.7562 N.ar    1  UNL1       -0.2632
     24 C           8.0006   -1.0169   -1.7192 C.ar    1  UNL1        0.0281
     25 C           6.8521   -0.2760   -1.8767 C.ar    1  UNL1       -0.0364
     26 N           2.1439    2.0493   -1.7642 N.ar    1  UNL1       -0.1733
     27 N           0.9375    2.5730   -1.6588 N.ar    1  UNL1       -0.2764
     28 C           0.2449    1.9855   -0.6531 C.ar    1  UNL1        0.0666
     29 C          -1.0209    2.1555   -0.1388 C.ar    1  UNL1       -0.0328
     30 H          -7.1632    0.7137    0.2072 H       1  UNL1        0.1548
     31 H          -6.7959   -1.7512   -1.0602 H       1  UNL1        0.0636
     32 H          -5.2928   -3.5845   -1.4382 H       1  UNL1        0.0618
     33 H          -3.0066   -3.5480   -0.4740 H       1  UNL1        0.0618
     34 H          -2.2686   -1.6746    0.8614 H       1  UNL1        0.0621
     35 H          -2.6842    0.1903    3.1662 H       1  UNL1        0.0285
     36 H          -3.8223    1.5903    3.4538 H       1  UNL1        0.0285
     37 H          -3.2039    2.7345    1.3121 H       1  UNL1        0.0362
     38 H          -0.9171   -0.1571    2.2641 H       1  UNL1        0.0621
     39 H           1.3283   -0.4547    1.3483 H       1  UNL1        0.0625
     40 H           3.3961   -0.4625    0.2209 H       1  UNL1        0.0640
     41 H           4.5557    1.0917   -2.0705 H       1  UNL1        0.0624
     42 H           5.0153   -1.6257    0.5695 H       1  UNL1        0.0639
     43 H           7.1087   -2.9352    0.8129 H       1  UNL1        0.0830
     44 H           8.8871   -0.8809   -2.3512 H       1  UNL1        0.0830
     45 H           6.8524    0.4653   -2.6660 H       1  UNL1        0.0639
     46 H           0.5228    3.3420   -2.2493 H       1  UNL1        0.1889
     47 H          -1.6508    2.9041   -0.5893 H       1  UNL1        0.0642
@<TRIPOS>BOND
     1     1     2    2
     2     2     3   am
     3     3     4    1
     4     4     5   ar
     5     5     6   ar
     6     6     7   ar
     7     7     8   ar
     8     8     9   ar
     9     9    10    1
    10    10    11    1
    11    11    12    1
    12    12    13    1
    13    13    14   ar
    14    14    15   ar
    15    15    16   ar
    16    16    17   ar
    17    17    18    1
    18    18    19    2
    19    19    20    1
    20    20    21   ar
    21    21    22   ar
    22    22    23   ar
    23    23    24   ar
    24    24    25   ar
    25    17    26   ar
    26    26    27   ar
    27    27    28   ar
    28    28    29   ar
    29    10     2    1
    30    29    13   ar
    31     9     4   ar
    32    12    10    1
    33    28    16   ar
    34    25    20   ar
    35     3    30    1
    36     5    31    1
    37     6    32    1
    38     7    33    1
    39     8    34    1
    40    11    35    1
    41    11    36    1
    42    12    37    1
    43    14    38    1
    44    15    39    1
    45    18    40    1
    46    19    41    1
    47    21    42    1
    48    22    43    1
    49    24    44    1
    50    25    45    1
    51    27    46    1
    52    29    47    1
