@<TRIPOS>MOLECULE
*****
 52 54 0 0 0
SMALL
GASTEIGER

@<TRIPOS>ATOM
      1 C           0.1154   -3.3859    0.0014 C.2     1  UNL1       -0.0951
      2 C          -1.1312   -3.1805   -0.2856 C.2     1  UNL1       -0.0472
      3 C          -1.8578   -4.2879   -1.0086 C.3     1  UNL1       -0.0396
      4 C          -1.8334   -1.9564   -0.0288 C.ar    1  UNL1        0.0167
      5 C          -3.2467   -2.0703   -0.0282 C.ar    1  UNL1        0.0374
      6 N          -3.9881   -0.9837    0.2176 N.ar    1  UNL1       -0.2542
      7 C          -3.4481    0.2211    0.4660 C.ar    1  UNL1        0.0755
      8 C          -4.3365    1.3659    0.7285 C.ar    1  UNL1        0.0369
      9 C          -3.8699    2.6172    0.9979 C.ar    1  UNL1       -0.0314
     10 C          -4.7645    3.6596    1.2353 C.ar    1  UNL1        0.0418
     11 CL         -4.1758    5.2779    1.5837 Cl      1  UNL1       -0.0835
     12 C          -6.1245    3.4510    1.2033 C.ar    1  UNL1       -0.0406
     13 C          -6.5965    2.1827    0.9302 C.ar    1  UNL1       -0.0244
     14 C          -5.7062    1.1682    0.6990 C.ar    1  UNL1        0.1326
     15 F          -6.1963   -0.0835    0.4298 F       1  UNL1       -0.2048
     16 C          -2.0779    0.3377    0.4638 C.ar    1  UNL1       -0.0138
     17 C          -1.2478   -0.7515    0.2129 C.ar    1  UNL1        0.0434
     18 N           0.1813   -0.5287    0.1622 N.pl3   1  UNL1       -0.2982
     19 C           0.8634   -0.6736   -1.0809 C.ar    1  UNL1        0.1383
     20 N           0.1410   -0.9822   -2.1956 N.ar    1  UNL1       -0.2199
     21 C           0.6743   -1.1481   -3.4104 C.ar    1  UNL1        0.1180
     22 N           2.0031   -0.9935   -3.4972 N.ar    1  UNL1       -0.2428
     23 C           2.7996   -0.6887   -2.4523 C.ar    1  UNL1        0.0447
     24 C           2.2124   -0.5196   -1.1860 C.ar    1  UNL1        0.0947
     25 C           3.0519   -0.1755   -0.0443 C.2     1  UNL1        0.2490
     26 O           2.6074    0.0496    1.1171 O.2     1  UNL1       -0.2700
     27 N           4.4754   -0.0644   -0.1544 N.am    1  UNL1       -0.3088
     28 C           5.3426    0.2891    0.9630 C.3     1  UNL1        0.0377
     29 C           5.0192    1.6687    1.4667 C.3     1  UNL1        0.0679
     30 C           5.2467    2.6299    0.3119 C.3     1  UNL1       -0.0375
     31 O           5.8409    2.0350    2.5321 O.3     1  UNL1       -0.3905
     32 H           0.5583   -4.3633   -0.3127 H       1  UNL1        0.0538
     33 H           0.7881   -2.7418    0.5571 H       1  UNL1        0.0538
     34 H          -1.1336   -4.8847   -1.5762 H       1  UNL1        0.0278
     35 H          -2.3882   -4.9298   -0.2649 H       1  UNL1        0.0278
     36 H          -2.6186   -3.8898   -1.6920 H       1  UNL1        0.0278
     37 H          -3.7310   -3.0201   -0.2222 H       1  UNL1        0.0836
     38 H          -2.8018    2.8185    1.0313 H       1  UNL1        0.0639
     39 H          -6.8306    4.2465    1.3845 H       1  UNL1        0.0633
     40 H          -7.6851    2.0090    0.9027 H       1  UNL1        0.0647
     41 H          -1.5955    1.2743    0.6555 H       1  UNL1        0.0658
     42 H           0.5800   -0.2773    1.0656 H       1  UNL1        0.1536
     43 H           0.1149   -1.3903   -4.2913 H       1  UNL1        0.1047
     44 H           3.8591   -0.5741   -2.5783 H       1  UNL1        0.0839
     45 H           4.8929   -0.2532   -1.0901 H       1  UNL1        0.1491
     46 H           5.2879   -0.4707    1.7713 H       1  UNL1        0.0487
     47 H           6.3733    0.3144    0.5944 H       1  UNL1        0.0487
     48 H           3.9541    1.7296    1.7208 H       1  UNL1        0.0606
     49 H           4.5856    2.3968   -0.5275 H       1  UNL1        0.0255
     50 H           5.0409    3.6581    0.6415 H       1  UNL1        0.0255
     51 H           6.3137    2.5800   -0.0071 H       1  UNL1        0.0255
     52 H           6.4620    1.2882    2.6937 H       1  UNL1        0.2098
@<TRIPOS>BOND
     1     1     2    2
     2     2     3    1
     3     2     4    1
     4     4     5   ar
     5     5     6   ar
     6     6     7   ar
     7     7     8    1
     8     8     9   ar
     9     9    10   ar
    10    10    11    1
    11    10    12   ar
    12    12    13   ar
    13    13    14   ar
    14    14    15    1
    15     7    16   ar
    16    16    17   ar
    17    17    18    1
    18    18    19    1
    19    19    20   ar
    20    20    21   ar
    21    21    22   ar
    22    22    23   ar
    23    23    24   ar
    24    24    25    1
    25    25    26    2
    26    25    27   am
    27    27    28    1
    28    28    29    1
    29    29    30    1
    30    29    31    1
    31    17     4   ar
    32    24    19   ar
    33    14     8   ar
    34     1    32    1
    35     1    33    1
    36     3    34    1
    37     3    35    1
    38     3    36    1
    39     5    37    1
    40     9    38    1
    41    12    39    1
    42    13    40    1
    43    16    41    1
    44    18    42    1
    45    21    43    1
    46    23    44    1
    47    27    45    1
    48    28    46    1
    49    28    47    1
    50    29    48    1
    51    30    49    1
    52    30    50    1
    53    30    51    1
    54    31    52    1
