@<TRIPOS>MOLECULE
*****
 57 62 0 0 0
SMALL
GASTEIGER

@<TRIPOS>ATOM
      1 C           2.2494    2.7862   -2.3661 C.3     1  UNL1       -0.0203
      2 C           2.4010    1.6010   -1.4704 C.ar    1  UNL1        0.0660
      3 N           3.5314    1.0575   -0.9884 N.ar    1  UNL1       -0.1751
      4 N           3.2678    0.0200   -0.2311 N.ar    1  UNL1       -0.2531
      5 C           4.2541   -0.7833    0.4354 C.3     1  UNL1        0.0788
      6 C           4.1360   -2.2819    0.1804 C.3     1  UNL1        0.0223
      7 N           5.5899   -2.3201    0.1546 N.3     1  UNL1       -0.3012
      8 C           6.1722   -2.2984    1.4959 C.3     1  UNL1       -0.0126
      9 C           5.5476   -0.9654   -0.3676 C.3     1  UNL1        0.0223
     10 C           1.9240   -0.1305   -0.2094 C.ar    1  UNL1        0.1298
     11 C           1.3390    0.8483   -0.9793 C.ar    1  UNL1        0.0304
     12 C          -0.1409    0.7209   -0.9718 C.3     1  UNL1        0.0854
     13 C          -0.6992    1.9662   -0.3766 C.ar    1  UNL1       -0.0221
     14 C          -1.3316    2.8876   -1.1829 C.ar    1  UNL1       -0.0551
     15 C          -1.8641    4.0582   -0.6671 C.ar    1  UNL1       -0.0431
     16 C          -1.7746    4.3297    0.6637 C.ar    1  UNL1        0.0410
     17 CL         -2.4288    5.7931    1.3743 Cl      1  UNL1       -0.0835
     18 C          -1.1461    3.4225    1.4911 C.ar    1  UNL1       -0.0431
     19 C          -0.6236    2.2678    0.9662 C.ar    1  UNL1       -0.0551
     20 N          -0.4284   -0.4563   -0.1454 N.am    1  UNL1       -0.2531
     21 C          -1.7148   -0.9876    0.1308 C.ar    1  UNL1        0.0545
     22 C          -1.9127   -2.0697    0.9319 C.ar    1  UNL1       -0.0324
     23 C          -3.1644   -2.5912    1.1979 C.ar    1  UNL1       -0.0041
     24 C          -3.2981   -3.7718    2.0805 C.3     1  UNL1       -0.0361
     25 C          -4.2671   -1.9916    0.6279 C.ar    1  UNL1        0.1641
     26 N          -5.5747   -2.2629    0.6981 N.ar    1  UNL1       -0.1292
     27 N          -6.2498   -1.4020   -0.0258 N.ar    1  UNL1       -0.1340
     28 C          -5.3414   -0.5621   -0.5694 C.ar    1  UNL1        0.1347
     29 C          -5.7014    0.5648   -1.4626 C.3     1  UNL1       -0.0041
     30 N          -4.1020   -0.9031   -0.1816 N.ar    1  UNL1       -0.2846
     31 C          -2.8622   -0.4180   -0.4212 C.ar    1  UNL1        0.0344
     32 C           0.8103   -0.9425    0.3099 C.2     1  UNL1        0.2700
     33 O           1.0529   -1.9266    1.0601 O.2     1  UNL1       -0.2679
     34 H           1.5046    2.5697   -3.1790 H       1  UNL1        0.0293
     35 H           3.2126    3.0108   -2.8539 H       1  UNL1        0.0293
     36 H           1.9381    3.6660   -1.7670 H       1  UNL1        0.0293
     37 H           4.4655   -0.5354    1.4858 H       1  UNL1        0.0570
     38 H           3.6543   -2.8420    0.9871 H       1  UNL1        0.0448
     39 H           3.7520   -2.4774   -0.8487 H       1  UNL1        0.0448
     40 H           5.3786   -2.4754    2.2530 H       1  UNL1        0.0391
     41 H           6.6413   -1.3306    1.7275 H       1  UNL1        0.0391
     42 H           6.9893   -3.0665    1.5669 H       1  UNL1        0.0391
     43 H           6.3802   -0.3331   -0.0424 H       1  UNL1        0.0448
     44 H           5.3040   -0.8796   -1.4407 H       1  UNL1        0.0448
     45 H          -0.5338    0.6057   -1.9905 H       1  UNL1        0.0606
     46 H          -1.4407    2.7403   -2.2494 H       1  UNL1        0.0621
     47 H          -2.3636    4.7877   -1.2986 H       1  UNL1        0.0632
     48 H          -1.0668    3.6224    2.5476 H       1  UNL1        0.0632
     49 H          -0.1404    1.5828    1.6399 H       1  UNL1        0.0621
     50 H          -1.0925   -2.5828    1.4073 H       1  UNL1        0.0640
     51 H          -3.5998   -4.6854    1.5311 H       1  UNL1        0.0279
     52 H          -2.3889   -3.9462    2.6656 H       1  UNL1        0.0279
     53 H          -4.1183   -3.5972    2.8302 H       1  UNL1        0.0279
     54 H          -5.9526    1.4374   -0.8395 H       1  UNL1        0.0308
     55 H          -6.5363    0.2747   -2.1325 H       1  UNL1        0.0308
     56 H          -4.8282    0.7656   -2.1188 H       1  UNL1        0.0308
     57 H          -2.8080    0.4296   -1.0627 H       1  UNL1        0.0833
@<TRIPOS>BOND
     1     1     2    1
     2     2     3   ar
     3     3     4   ar
     4     4     5    1
     5     5     6    1
     6     6     7    1
     7     7     8    1
     8     7     9    1
     9     4    10   ar
    10    10    11   ar
    11    11    12    1
    12    12    13    1
    13    13    14   ar
    14    14    15   ar
    15    15    16   ar
    16    16    17    1
    17    16    18   ar
    18    18    19   ar
    19    12    20    1
    20    20    21    1
    21    21    22   ar
    22    22    23   ar
    23    23    24    1
    24    23    25   ar
    25    25    26   ar
    26    26    27   ar
    27    27    28   ar
    28    28    29    1
    29    28    30   ar
    30    30    31   ar
    31    20    32   am
    32    32    33    2
    33    11     2   ar
    34    19    13   ar
    35    31    21   ar
    36     9     5    1
    37    32    10    1
    38    30    25   ar
    39     1    34    1
    40     1    35    1
    41     1    36    1
    42     5    37    1
    43     6    38    1
    44     6    39    1
    45     8    40    1
    46     8    41    1
    47     8    42    1
    48     9    43    1
    49     9    44    1
    50    12    45    1
    51    14    46    1
    52    15    47    1
    53    18    48    1
    54    19    49    1
    55    22    50    1
    56    24    51    1
    57    24    52    1
    58    24    53    1
    59    29    54    1
    60    29    55    1
    61    29    56    1
    62    31    57    1
