
     RDKit          3D

 57 62  0  0  0  0  0  0  0  0999 V2000
    2.2494    2.7862   -2.3661 C   0  0  0  0  0  0  0  0  0  0  0  0
    2.4010    1.6010   -1.4704 C   0  0  0  0  0  0  0  0  0  0  0  0
    3.5314    1.0575   -0.9884 N   0  0  0  0  0  0  0  0  0  0  0  0
    3.2678    0.0200   -0.2311 N   0  0  0  0  0  0  0  0  0  0  0  0
    4.2541   -0.7833    0.4354 C   0  0  0  0  0  0  0  0  0  0  0  0
    4.1360   -2.2819    0.1804 C   0  0  0  0  0  0  0  0  0  0  0  0
    5.5899   -2.3201    0.1546 N   0  0  0  0  0  0  0  0  0  0  0  0
    6.1722   -2.2984    1.4959 C   0  0  0  0  0  0  0  0  0  0  0  0
    5.5476   -0.9654   -0.3676 C   0  0  0  0  0  0  0  0  0  0  0  0
    1.9240   -0.1305   -0.2094 C   0  0  0  0  0  0  0  0  0  0  0  0
    1.3390    0.8483   -0.9793 C   0  0  0  0  0  0  0  0  0  0  0  0
   -0.1409    0.7209   -0.9718 C   0  0  0  0  0  0  0  0  0  0  0  0
   -0.6992    1.9662   -0.3766 C   0  0  0  0  0  0  0  0  0  0  0  0
   -1.3316    2.8876   -1.1829 C   0  0  0  0  0  0  0  0  0  0  0  0
   -1.8641    4.0582   -0.6671 C   0  0  0  0  0  0  0  0  0  0  0  0
   -1.7746    4.3297    0.6637 C   0  0  0  0  0  0  0  0  0  0  0  0
   -2.4288    5.7931    1.3743 Cl  0  0  0  0  0  0  0  0  0  0  0  0
   -1.1461    3.4225    1.4911 C   0  0  0  0  0  0  0  0  0  0  0  0
   -0.6236    2.2678    0.9662 C   0  0  0  0  0  0  0  0  0  0  0  0
   -0.4284   -0.4563   -0.1454 N   0  0  0  0  0  0  0  0  0  0  0  0
   -1.7148   -0.9876    0.1308 C   0  0  0  0  0  0  0  0  0  0  0  0
   -1.9127   -2.0697    0.9319 C   0  0  0  0  0  0  0  0  0  0  0  0
   -3.1644   -2.5912    1.1979 C   0  0  0  0  0  0  0  0  0  0  0  0
   -3.2981   -3.7718    2.0805 C   0  0  0  0  0  0  0  0  0  0  0  0
   -4.2671   -1.9916    0.6279 C   0  0  0  0  0  0  0  0  0  0  0  0
   -5.5747   -2.2629    0.6981 N   0  0  0  0  0  0  0  0  0  0  0  0
   -6.2498   -1.4020   -0.0258 N   0  0  0  0  0  0  0  0  0  0  0  0
   -5.3414   -0.5621   -0.5694 C   0  0  0  0  0  0  0  0  0  0  0  0
   -5.7014    0.5648   -1.4626 C   0  0  0  0  0  0  0  0  0  0  0  0
   -4.1020   -0.9031   -0.1816 N   0  0  0  0  0  0  0  0  0  0  0  0
   -2.8622   -0.4180   -0.4212 C   0  0  0  0  0  0  0  0  0  0  0  0
    0.8103   -0.9425    0.3099 C   0  0  0  0  0  0  0  0  0  0  0  0
    1.0529   -1.9266    1.0601 O   0  0  0  0  0  0  0  0  0  0  0  0
    1.5046    2.5697   -3.1790 H   0  0  0  0  0  0  0  0  0  0  0  0
    3.2126    3.0108   -2.8539 H   0  0  0  0  0  0  0  0  0  0  0  0
    1.9381    3.6660   -1.7670 H   0  0  0  0  0  0  0  0  0  0  0  0
    4.4655   -0.5354    1.4858 H   0  0  0  0  0  0  0  0  0  0  0  0
    3.6543   -2.8420    0.9871 H   0  0  0  0  0  0  0  0  0  0  0  0
    3.7520   -2.4774   -0.8487 H   0  0  0  0  0  0  0  0  0  0  0  0
    5.3786   -2.4754    2.2530 H   0  0  0  0  0  0  0  0  0  0  0  0
    6.6413   -1.3306    1.7275 H   0  0  0  0  0  0  0  0  0  0  0  0
    6.9893   -3.0665    1.5669 H   0  0  0  0  0  0  0  0  0  0  0  0
    6.3802   -0.3331   -0.0424 H   0  0  0  0  0  0  0  0  0  0  0  0
    5.3040   -0.8796   -1.4407 H   0  0  0  0  0  0  0  0  0  0  0  0
   -0.5338    0.6057   -1.9905 H   0  0  0  0  0  0  0  0  0  0  0  0
   -1.4407    2.7403   -2.2494 H   0  0  0  0  0  0  0  0  0  0  0  0
   -2.3636    4.7877   -1.2986 H   0  0  0  0  0  0  0  0  0  0  0  0
   -1.0668    3.6224    2.5476 H   0  0  0  0  0  0  0  0  0  0  0  0
   -0.1404    1.5828    1.6399 H   0  0  0  0  0  0  0  0  0  0  0  0
   -1.0925   -2.5828    1.4073 H   0  0  0  0  0  0  0  0  0  0  0  0
   -3.5998   -4.6854    1.5311 H   0  0  0  0  0  0  0  0  0  0  0  0
   -2.3889   -3.9462    2.6656 H   0  0  0  0  0  0  0  0  0  0  0  0
   -4.1183   -3.5972    2.8302 H   0  0  0  0  0  0  0  0  0  0  0  0
   -5.9526    1.4374   -0.8395 H   0  0  0  0  0  0  0  0  0  0  0  0
   -6.5363    0.2747   -2.1325 H   0  0  0  0  0  0  0  0  0  0  0  0
   -4.8282    0.7656   -2.1188 H   0  0  0  0  0  0  0  0  0  0  0  0
   -2.8080    0.4296   -1.0627 H   0  0  0  0  0  0  0  0  0  0  0  0
  1  2  1  0
  2  3  2  0
  3  4  1  0
  4  5  1  0
  5  6  1  0
  6  7  1  0
  7  8  1  0
  7  9  1  0
  4 10  1  0
 10 11  2  0
 11 12  1  0
 12 13  1  0
 13 14  2  0
 14 15  1  0
 15 16  2  0
 16 17  1  0
 16 18  1  0
 18 19  2  0
 12 20  1  0
 20 21  1  0
 21 22  1  0
 22 23  2  0
 23 24  1  0
 23 25  1  0
 25 26  2  0
 26 27  1  0
 27 28  2  0
 28 29  1  0
 28 30  1  0
 30 31  1  0
 20 32  1  0
 32 33  2  0
 11  2  1  0
 19 13  1  0
 31 21  2  0
  9  5  1  0
 32 10  1  0
 30 25  1  0
  1 34  1  0
  1 35  1  0
  1 36  1  0
  5 37  1  0
  6 38  1  0
  6 39  1  0
  8 40  1  0
  8 41  1  0
  8 42  1  0
  9 43  1  0
  9 44  1  0
 12 45  1  0
 14 46  1  0
 15 47  1  0
 18 48  1  0
 19 49  1  0
 22 50  1  0
 24 51  1  0
 24 52  1  0
 24 53  1  0
 29 54  1  0
 29 55  1  0
 29 56  1  0
 31 57  1  0
M  END
$$$$
