
     RDKit          3D

 73 78  0  0  0  0  0  0  0  0999 V2000
    1.6532    3.4287   -1.7245 C   0  0  1  0  0  0  0  0  0  0  0  0
    0.3635    3.9447   -2.3283 C   0  0  0  0  0  0  0  0  0  0  0  0
   -0.7408    3.1813   -2.0476 O   0  0  0  0  0  0  0  0  0  0  0  0
    1.6251    3.3543   -0.3659 O   0  0  0  0  0  0  0  0  0  0  0  0
    1.5190    2.0146   -0.0065 C   0  0  1  0  0  0  0  0  0  0  0  0
    0.2311    1.6761    0.5045 N   0  0  0  0  0  0  0  0  0  0  0  0
   -0.1818    2.3494    1.6162 C   0  0  0  0  0  0  0  0  0  0  0  0
   -1.4038    1.9008    1.9461 N   0  0  0  0  0  0  0  0  0  0  0  0
   -1.7926    0.9620    1.0858 C   0  0  0  0  0  0  0  0  0  0  0  0
   -2.9542    0.1936    0.9843 C   0  0  0  0  0  0  0  0  0  0  0  0
   -4.0078    0.3429    1.9222 N   0  0  0  0  0  0  0  0  0  0  0  0
   -5.2338   -0.3849    1.9156 C   0  0  2  0  0  0  0  0  0  0  0  0
   -4.9164   -1.8679    2.0441 C   0  0  0  0  0  0  0  0  0  0  0  0
   -6.1552   -2.7176    2.1935 C   0  0  0  0  0  0  0  0  0  0  0  0
   -7.4329   -1.9753    1.8731 C   0  0  0  0  0  0  0  0  0  0  0  0
   -7.1630   -1.0636    0.7312 C   0  0  0  0  0  0  0  0  0  0  0  0
   -8.0869   -1.0944   -0.3039 C   0  0  0  0  0  0  0  0  0  0  0  0
   -7.9051   -0.2637   -1.4071 C   0  0  0  0  0  0  0  0  0  0  0  0
   -6.7993    0.5689   -1.4294 C   0  0  0  0  0  0  0  0  0  0  0  0
   -5.8882    0.5854   -0.3870 C   0  0  0  0  0  0  0  0  0  0  0  0
   -6.0605   -0.2341    0.7095 C   0  0  0  0  0  0  0  0  0  0  0  0
   -2.9460   -0.6582   -0.0554 N   0  0  0  0  0  0  0  0  0  0  0  0
   -1.9285   -0.7744   -0.9242 C   0  0  0  0  0  0  0  0  0  0  0  0
   -0.8188   -0.0240   -0.8074 N   0  0  0  0  0  0  0  0  0  0  0  0
   -0.7545    0.8362    0.1906 C   0  0  0  0  0  0  0  0  0  0  0  0
    2.0526    1.1951   -1.1090 C   0  0  2  0  0  0  0  0  0  0  0  0
    3.4295    0.7540   -0.8745 N   0  0  0  0  0  0  0  0  0  0  0  0
    3.5999   -0.4514   -0.4725 C   0  0  0  0  0  0  0  0  0  0  0  0
    2.3385   -1.0174   -0.3732 O   0  0  0  0  0  0  0  0  0  0  0  0
    4.9365   -0.9723   -0.2143 C   0  0  0  0  0  0  0  0  0  0  0  0
    5.9543   -0.0710   -0.4375 C   0  0  0  0  0  0  0  0  0  0  0  0
    7.2452   -0.5557   -0.1938 C   0  0  0  0  0  0  0  0  0  0  0  0
    8.3333    0.2622   -0.3852 O   0  0  0  0  0  0  0  0  0  0  0  0
    8.1824    1.6016   -0.8292 C   0  0  0  0  0  0  0  0  0  0  0  0
    7.4846   -1.8422    0.2385 C   0  0  0  0  0  0  0  0  0  0  0  0
    6.4148   -2.7177    0.4500 C   0  0  0  0  0  0  0  0  0  0  0  0
    6.7307   -3.9920    0.8837 O   0  0  0  0  0  0  0  0  0  0  0  0
    5.6731   -4.9015    1.1067 C   0  0  0  0  0  0  0  0  0  0  0  0
    5.1262   -2.2674    0.2176 C   0  0  0  0  0  0  0  0  0  0  0  0
    2.0818    2.1259   -2.2909 C   0  0  2  0  0  0  0  0  0  0  0  0
    3.4006    2.2636   -2.7706 O   0  0  0  0  0  0  0  0  0  0  0  0
    2.4223    4.2100   -1.9856 H   0  0  0  0  0  0  0  0  0  0  0  0
    0.5016    3.9491   -3.4259 H   0  0  0  0  0  0  0  0  0  0  0  0
    0.2381    4.9968   -1.9981 H   0  0  0  0  0  0  0  0  0  0  0  0
   -0.9824    2.5677   -2.8045 H   0  0  0  0  0  0  0  0  0  0  0  0
    2.2535    1.9059    0.8530 H   0  0  0  0  0  0  0  0  0  0  0  0
    0.2067    3.1271    2.2813 H   0  0  0  0  0  0  0  0  0  0  0  0
   -3.8752    1.0450    2.6830 H   0  0  0  0  0  0  0  0  0  0  0  0
   -5.9013   -0.1073    2.7749 H   0  0  0  0  0  0  0  0  0  0  0  0
   -4.2402   -1.9665    2.9070 H   0  0  0  0  0  0  0  0  0  0  0  0
   -4.3372   -2.1450    1.1407 H   0  0  0  0  0  0  0  0  0  0  0  0
   -6.1872   -3.0919    3.2387 H   0  0  0  0  0  0  0  0  0  0  0  0
   -6.0782   -3.5578    1.4652 H   0  0  0  0  0  0  0  0  0  0  0  0
   -7.6751   -1.3849    2.7934 H   0  0  0  0  0  0  0  0  0  0  0  0
   -8.1878   -2.7307    1.6468 H   0  0  0  0  0  0  0  0  0  0  0  0
   -8.9611   -1.7477   -0.2934 H   0  0  0  0  0  0  0  0  0  0  0  0
   -8.5716   -0.2276   -2.2461 H   0  0  0  0  0  0  0  0  0  0  0  0
   -6.5764    1.2478   -2.2431 H   0  0  0  0  0  0  0  0  0  0  0  0
   -5.0024    1.2036   -0.3215 H   0  0  0  0  0  0  0  0  0  0  0  0
   -1.9798   -1.4892   -1.7548 H   0  0  0  0  0  0  0  0  0  0  0  0
    1.4153    0.3357   -1.4056 H   0  0  0  0  0  0  0  0  0  0  0  0
    1.6803   -0.7251    0.3138 H   0  0  0  0  0  0  0  0  0  0  0  0
    5.8104    0.9448   -0.7760 H   0  0  0  0  0  0  0  0  0  0  0  0
    7.7175    1.6665   -1.8382 H   0  0  0  0  0  0  0  0  0  0  0  0
    7.5179    2.1417   -0.1065 H   0  0  0  0  0  0  0  0  0  0  0  0
    9.1609    2.1153   -0.8156 H   0  0  0  0  0  0  0  0  0  0  0  0
    8.4923   -2.1847    0.4174 H   0  0  0  0  0  0  0  0  0  0  0  0
    5.2936   -5.3441    0.1500 H   0  0  0  0  0  0  0  0  0  0  0  0
    6.1341   -5.7353    1.7102 H   0  0  0  0  0  0  0  0  0  0  0  0
    4.8706   -4.4164    1.6838 H   0  0  0  0  0  0  0  0  0  0  0  0
    4.3132   -2.9428    0.3814 H   0  0  0  0  0  0  0  0  0  0  0  0
    1.4146    1.7684   -3.1157 H   0  0  0  0  0  0  0  0  0  0  0  0
    3.9071    2.8768   -2.1832 H   0  0  0  0  0  0  0  0  0  0  0  0
  1  2  1  0
  2  3  1  0
  1  4  1  0
  4  5  1  0
  5  6  1  0
  6  7  1  0
  7  8  2  0
  8  9  1  0
  9 10  2  0
 10 11  1  0
 11 12  1  0
 12 13  1  0
 13 14  1  0
 14 15  1  0
 15 16  1  0
 16 17  2  0
 17 18  1  0
 18 19  2  0
 19 20  1  0
 20 21  2  0
 10 22  1  0
 22 23  2  0
 23 24  1  0
 24 25  2  0
  5 26  1  0
 26 27  1  0
 27 28  2  3
 28 29  1  0
 28 30  1  0
 30 31  2  0
 31 32  1  0
 32 33  1  0
 33 34  1  0
 32 35  2  0
 35 36  1  0
 36 37  1  0
 37 38  1  0
 36 39  2  0
 26 40  1  0
 40 41  1  0
 40  1  1  0
 25  6  1  0
 39 30  1  0
 25  9  1  0
 21 12  1  0
 21 16  1  0
  1 42  1  1
  2 43  1  0
  2 44  1  0
  3 45  1  0
  5 46  1  1
  7 47  1  0
 11 48  1  0
 12 49  1  1
 13 50  1  0
 13 51  1  0
 14 52  1  0
 14 53  1  0
 15 54  1  0
 15 55  1  0
 17 56  1  0
 18 57  1  0
 19 58  1  0
 20 59  1  0
 23 60  1  0
 26 61  1  6
 29 62  1  0
 31 63  1  0
 34 64  1  0
 34 65  1  0
 34 66  1  0
 35 67  1  0
 38 68  1  0
 38 69  1  0
 38 70  1  0
 39 71  1  0
 40 72  1  6
 41 73  1  0
M  END
$$$$
