@<TRIPOS>MOLECULE
*****
 73 78 0 0 0
SMALL
GASTEIGER

@<TRIPOS>ATOM
      1 C           1.6532    3.4287   -1.7245 C.3     1  UNL1        0.1121
      2 C           0.3635    3.9447   -2.3283 C.3     1  UNL1        0.0730
      3 O          -0.7408    3.1813   -2.0476 O.3     1  UNL1       -0.3924
      4 O           1.6251    3.3543   -0.3659 O.3     1  UNL1       -0.3461
      5 C           1.5190    2.0146   -0.0065 C.3     1  UNL1        0.1632
      6 N           0.2311    1.6761    0.5045 N.ar    1  UNL1       -0.2859
      7 C          -0.1818    2.3494    1.6162 C.ar    1  UNL1        0.1004
      8 N          -1.4038    1.9008    1.9461 N.ar    1  UNL1       -0.2306
      9 C          -1.7926    0.9620    1.0858 C.ar    1  UNL1        0.1475
     10 C          -2.9542    0.1936    0.9843 C.ar    1  UNL1        0.1502
     11 N          -4.0078    0.3429    1.9222 N.pl3   1  UNL1       -0.3204
     12 C          -5.2338   -0.3849    1.9156 C.3     1  UNL1        0.0475
     13 C          -4.9164   -1.8679    2.0441 C.3     1  UNL1       -0.0301
     14 C          -6.1552   -2.7176    2.1935 C.3     1  UNL1       -0.0471
     15 C          -7.4329   -1.9753    1.8731 C.3     1  UNL1       -0.0273
     16 C          -7.1630   -1.0636    0.7312 C.ar    1  UNL1       -0.0424
     17 C          -8.0869   -1.0944   -0.3039 C.ar    1  UNL1       -0.0583
     18 C          -7.9051   -0.2637   -1.4071 C.ar    1  UNL1       -0.0615
     19 C          -6.7993    0.5689   -1.4294 C.ar    1  UNL1       -0.0614
     20 C          -5.8882    0.5854   -0.3870 C.ar    1  UNL1       -0.0565
     21 C          -6.0605   -0.2341    0.7095 C.ar    1  UNL1       -0.0241
     22 N          -2.9460   -0.6582   -0.0554 N.ar    1  UNL1       -0.2186
     23 C          -1.9285   -0.7744   -0.9242 C.ar    1  UNL1        0.1205
     24 N          -0.8188   -0.0240   -0.8074 N.ar    1  UNL1       -0.2159
     25 C          -0.7545    0.8362    0.1906 C.ar    1  UNL1        0.1674
     26 C           2.0526    1.1951   -1.1090 C.3     1  UNL1        0.1278
     27 N           3.4295    0.7540   -0.8745 N.2     1  UNL1       -0.2399
     28 C           3.5999   -0.4514   -0.4725 C.2     1  UNL1        0.2158
     29 O           2.3385   -1.0174   -0.3732 O.2     1  UNL1       -0.4922
     30 C           4.9365   -0.9723   -0.2143 C.ar    1  UNL1        0.0429
     31 C           5.9543   -0.0710   -0.4375 C.ar    1  UNL1       -0.0075
     32 C           7.2452   -0.5557   -0.1938 C.ar    1  UNL1        0.1243
     33 O           8.3333    0.2622   -0.3852 O.3     1  UNL1       -0.4950
     34 C           8.1824    1.6016   -0.8292 C.3     1  UNL1        0.0788
     35 C           7.4846   -1.8422    0.2385 C.ar    1  UNL1        0.0218
     36 C           6.4148   -2.7177    0.4500 C.ar    1  UNL1        0.1243
     37 O           6.7307   -3.9920    0.8837 O.3     1  UNL1       -0.4950
     38 C           5.6731   -4.9015    1.1067 C.3     1  UNL1        0.0788
     39 C           5.1262   -2.2674    0.2176 C.ar    1  UNL1       -0.0075
     40 C           2.0818    2.1259   -2.2909 C.3     1  UNL1        0.1100
     41 O           3.4006    2.2636   -2.7706 O.3     1  UNL1       -0.3869
     42 H           2.4223    4.2100   -1.9856 H       1  UNL1        0.0646
     43 H           0.5016    3.9491   -3.4259 H       1  UNL1        0.0584
     44 H           0.2381    4.9968   -1.9981 H       1  UNL1        0.0584
     45 H          -0.9824    2.5677   -2.8045 H       1  UNL1        0.2095
     46 H           2.2535    1.9059    0.8530 H       1  UNL1        0.0862
     47 H           0.2067    3.1271    2.2813 H       1  UNL1        0.1030
     48 H          -3.8752    1.0450    2.6830 H       1  UNL1        0.1481
     49 H          -5.9013   -0.1073    2.7749 H       1  UNL1        0.0548
     50 H          -4.2402   -1.9665    2.9070 H       1  UNL1        0.0286
     51 H          -4.3372   -2.1450    1.1407 H       1  UNL1        0.0286
     52 H          -6.1872   -3.0919    3.2387 H       1  UNL1        0.0269
     53 H          -6.0782   -3.5578    1.4652 H       1  UNL1        0.0269
     54 H          -7.6751   -1.3849    2.7934 H       1  UNL1        0.0313
     55 H          -8.1878   -2.7307    1.6468 H       1  UNL1        0.0313
     56 H          -8.9611   -1.7477   -0.2934 H       1  UNL1        0.0620
     57 H          -8.5716   -0.2276   -2.2461 H       1  UNL1        0.0618
     58 H          -6.5764    1.2478   -2.2431 H       1  UNL1        0.0618
     59 H          -5.0024    1.2036   -0.3215 H       1  UNL1        0.0621
     60 H          -1.9798   -1.4892   -1.7548 H       1  UNL1        0.1048
     61 H           1.4153    0.3357   -1.4056 H       1  UNL1        0.0617
     62 H           1.6803   -0.7251    0.3138 H       1  UNL1        0.2937
     63 H           5.8104    0.9448   -0.7760 H       1  UNL1        0.0662
     64 H           7.7175    1.6665   -1.8382 H       1  UNL1        0.0660
     65 H           7.5179    2.1417   -0.1065 H       1  UNL1        0.0660
     66 H           9.1609    2.1153   -0.8156 H       1  UNL1        0.0660
     67 H           8.4923   -2.1847    0.4174 H       1  UNL1        0.0691
     68 H           5.2936   -5.3441    0.1500 H       1  UNL1        0.0660
     69 H           6.1341   -5.7353    1.7102 H       1  UNL1        0.0660
     70 H           4.8706   -4.4164    1.6838 H       1  UNL1        0.0660
     71 H           4.3132   -2.9428    0.3814 H       1  UNL1        0.0662
     72 H           1.4146    1.7684   -3.1157 H       1  UNL1        0.0643
     73 H           3.9071    2.8768   -2.1832 H       1  UNL1        0.2100
@<TRIPOS>BOND
     1     1     2    1
     2     2     3    1
     3     1     4    1
     4     4     5    1
     5     5     6    1
     6     6     7   ar
     7     7     8   ar
     8     8     9   ar
     9     9    10   ar
    10    10    11    1
    11    11    12    1
    12    12    13    1
    13    13    14    1
    14    14    15    1
    15    15    16    1
    16    16    17   ar
    17    17    18   ar
    18    18    19   ar
    19    19    20   ar
    20    20    21   ar
    21    10    22   ar
    22    22    23   ar
    23    23    24   ar
    24    24    25   ar
    25     5    26    1
    26    26    27    1
    27    27    28    2
    28    28    29    1
    29    28    30    1
    30    30    31   ar
    31    31    32   ar
    32    32    33    1
    33    33    34    1
    34    32    35   ar
    35    35    36   ar
    36    36    37    1
    37    37    38    1
    38    36    39   ar
    39    26    40    1
    40    40    41    1
    41    40     1    1
    42    25     6   ar
    43    39    30   ar
    44    25     9   ar
    45    21    12    1
    46    21    16   ar
    47     1    42    1
    48     2    43    1
    49     2    44    1
    50     3    45    1
    51     5    46    1
    52     7    47    1
    53    11    48    1
    54    12    49    1
    55    13    50    1
    56    13    51    1
    57    14    52    1
    58    14    53    1
    59    15    54    1
    60    15    55    1
    61    17    56    1
    62    18    57    1
    63    19    58    1
    64    20    59    1
    65    23    60    1
    66    26    61    1
    67    29    62    1
    68    31    63    1
    69    34    64    1
    70    34    65    1
    71    34    66    1
    72    35    67    1
    73    38    68    1
    74    38    69    1
    75    38    70    1
    76    39    71    1
    77    40    72    1
    78    41    73    1
