@<TRIPOS>MOLECULE
*****
 38 41 0 0 0
SMALL
GASTEIGER

@<TRIPOS>ATOM
      1 F          -3.6071   -0.2938   -1.0672 F       1  UNL1       -0.2048
      2 C          -3.0091   -1.2157   -0.2509 C.ar    1  UNL1        0.1327
      3 C          -3.3594   -2.5415   -0.3726 C.ar    1  UNL1       -0.0244
      4 C          -2.7590   -3.4863    0.4507 C.ar    1  UNL1       -0.0406
      5 C          -1.8270   -3.0417    1.3636 C.ar    1  UNL1        0.0418
      6 CL         -1.0567   -4.2072    2.4112 Cl      1  UNL1       -0.0835
      7 C          -1.4628   -1.7234    1.5017 C.ar    1  UNL1       -0.0314
      8 C          -2.0606   -0.7895    0.6832 C.ar    1  UNL1        0.0390
      9 C          -1.7038    0.6041    0.7991 C.ar    1  UNL1        0.0995
     10 N          -2.5145    1.6272    1.1253 N.ar    1  UNL1       -0.2350
     11 C          -1.8314    2.7849    1.1350 C.ar    1  UNL1        0.0972
     12 N          -0.5403    2.4936    0.8040 N.ar    1  UNL1       -0.3241
     13 C           0.5535    3.4215    0.6880 C.3     1  UNL1        0.0852
     14 C           0.6885    3.9864   -0.7165 C.3     1  UNL1        0.2569
     15 F           1.7723    4.8562   -0.6782 F       1  UNL1       -0.2073
     16 F          -0.4599    4.6015   -1.1102 F       1  UNL1       -0.2073
     17 C          -0.4424    1.1682    0.5952 C.ar    1  UNL1        0.0781
     18 C           0.7034    0.3697    0.2243 C.ar    1  UNL1        0.0172
     19 C           1.7930    0.2865    1.0529 C.ar    1  UNL1       -0.0477
     20 C           2.9027   -0.4887    0.6863 C.ar    1  UNL1       -0.0182
     21 C           2.8759   -1.1605   -0.5153 C.ar    1  UNL1        0.1375
     22 N           3.8228   -1.9527   -1.0576 N.ar    1  UNL1       -0.2361
     23 C           3.3341   -2.3763   -2.2375 C.ar    1  UNL1        0.0464
     24 C           2.0771   -1.8341   -2.4108 C.ar    1  UNL1        0.0293
     25 N           1.8032   -1.0689   -1.3140 N.ar    1  UNL1       -0.3060
     26 C           0.7446   -0.3232   -0.9534 C.ar    1  UNL1        0.0204
     27 H          -4.0865   -2.8503   -1.0919 H       1  UNL1        0.0647
     28 H          -3.0484   -4.5095    0.3364 H       1  UNL1        0.0633
     29 H          -0.7335   -1.3740    2.2155 H       1  UNL1        0.0639
     30 H          -2.2017    3.7816    1.3586 H       1  UNL1        0.1029
     31 H           1.4964    2.8828    0.9044 H       1  UNL1        0.0548
     32 H           0.4474    4.2944    1.3620 H       1  UNL1        0.0548
     33 H           0.8931    3.1475   -1.4274 H       1  UNL1        0.1037
     34 H           1.8721    0.7888    2.0059 H       1  UNL1        0.0626
     35 H           3.7524   -0.5562    1.3280 H       1  UNL1        0.0654
     36 H           3.8480   -3.0319   -2.9275 H       1  UNL1        0.0845
     37 H           1.4067   -1.9695   -3.2479 H       1  UNL1        0.0829
     38 H          -0.0833   -0.2997   -1.6524 H       1  UNL1        0.0820
@<TRIPOS>BOND
     1     1     2    1
     2     2     3   ar
     3     3     4   ar
     4     4     5   ar
     5     5     6    1
     6     5     7   ar
     7     7     8   ar
     8     8     9    1
     9     9    10   ar
    10    10    11   ar
    11    11    12   ar
    12    12    13    1
    13    13    14    1
    14    14    15    1
    15    14    16    1
    16    12    17   ar
    17    17    18    1
    18    18    19   ar
    19    19    20   ar
    20    20    21   ar
    21    21    22   ar
    22    22    23   ar
    23    23    24   ar
    24    24    25   ar
    25    25    26   ar
    26     8     2   ar
    27    17     9   ar
    28    26    18   ar
    29    25    21   ar
    30     3    27    1
    31     4    28    1
    32     7    29    1
    33    11    30    1
    34    13    31    1
    35    13    32    1
    36    14    33    1
    37    19    34    1
    38    20    35    1
    39    23    36    1
    40    24    37    1
    41    26    38    1
