@<TRIPOS>MOLECULE
*****
 45 48 0 0 0
SMALL
GASTEIGER

@<TRIPOS>ATOM
      1 C          -3.1718    3.5064   -2.5304 C.3     1  UNL1        0.0788
      2 O          -1.8304    3.4082   -2.0791 O.3     1  UNL1       -0.4950
      3 C          -1.5092    2.3478   -1.2722 C.ar    1  UNL1        0.1229
      4 C          -0.1870    2.2802   -0.8470 C.ar    1  UNL1        0.0092
      5 C           0.2578    1.2590   -0.0309 C.ar    1  UNL1        0.1153
      6 C          -0.6489    0.2952    0.3585 C.ar    1  UNL1        0.1649
      7 O          -0.0168   -0.5718    1.1244 O.2     1  UNL1       -0.4229
      8 C           1.2461   -0.2504    1.2703 C.ar    1  UNL1        0.3083
      9 N           2.2451   -0.9436    2.0244 N.pl3   1  UNL1       -0.1687
     10 S           3.8489   -0.3045    2.0537 S.O2    1  UNL1        0.0771
     11 O           4.6422   -1.1937    3.0013 O.2     1  UNL1       -0.1498
     12 O           3.8182    1.0498    2.7343 O.2     1  UNL1       -0.1498
     13 C           4.5934   -0.2378    0.4979 C.ar    1  UNL1        0.1282
     14 C           4.0752   -0.6196   -0.7012 C.ar    1  UNL1       -0.0153
     15 C           4.7962   -0.5035   -1.8560 C.ar    1  UNL1        0.0429
     16 CL          4.0243   -1.0276   -3.3390 Cl      1  UNL1       -0.0835
     17 C           6.0868    0.0032   -1.8903 C.ar    1  UNL1       -0.0419
     18 C           6.6177    0.3946   -0.6603 C.ar    1  UNL1       -0.0401
     19 C           5.8936    0.2763    0.4881 C.ar    1  UNL1        0.0676
     20 CL          6.7056    0.8116    1.9390 Cl      1  UNL1       -0.0815
     21 N           1.4102    0.8825    0.5537 N.ar    1  UNL1       -0.1941
     22 C          -1.9749    0.3133   -0.0343 C.ar    1  UNL1        0.0301
     23 C          -2.3558    1.3420   -0.8371 C.ar    1  UNL1       -0.0086
     24 C          -2.8975   -0.7225    0.3991 C.ar    1  UNL1       -0.0125
     25 C          -4.1770   -0.6208    0.8824 C.ar    1  UNL1       -0.0332
     26 C          -4.8519   -1.7510    1.2280 C.ar    1  UNL1        0.0251
     27 N          -6.1758   -1.5783    1.7229 N.pl3   1  UNL1       -0.3579
     28 C          -4.3032   -3.0098    1.1137 C.ar    1  UNL1       -0.0410
     29 C          -3.0200   -3.1359    0.6309 C.ar    1  UNL1       -0.0594
     30 C          -2.3308   -1.9885    0.2785 C.ar    1  UNL1       -0.0538
     31 H          -3.5794    2.5338   -2.8858 H       1  UNL1        0.0660
     32 H          -3.8082    3.8761   -1.7057 H       1  UNL1        0.0660
     33 H          -3.1382    4.2076   -3.3901 H       1  UNL1        0.0660
     34 H           0.5977    3.0059   -1.1109 H       1  UNL1        0.0677
     35 H           1.9565   -1.8111    2.5264 H       1  UNL1        0.1783
     36 H           3.0724   -1.0120   -0.6646 H       1  UNL1        0.0652
     37 H           6.6596    0.0961   -2.8031 H       1  UNL1        0.0633
     38 H           7.6309    0.7888   -0.7116 H       1  UNL1        0.0633
     39 H          -3.3903    1.4142   -1.1828 H       1  UNL1        0.0661
     40 H          -4.5186    0.4073    0.9348 H       1  UNL1        0.0642
     41 H          -6.6754   -2.2310    2.3725 H       1  UNL1        0.1423
     42 H          -6.7712   -0.7555    1.4650 H       1  UNL1        0.1423
     43 H          -4.8903   -3.8797    1.4057 H       1  UNL1        0.0636
     44 H          -2.6324   -4.1377    0.5589 H       1  UNL1        0.0618
     45 H          -1.3234   -2.2137   -0.0909 H       1  UNL1        0.0624
@<TRIPOS>BOND
     1     1     2    1
     2     2     3    1
     3     3     4   ar
     4     4     5   ar
     5     5     6   ar
     6     6     7   ar
     7     7     8   ar
     8     8     9    1
     9     9    10    1
    10    10    11    2
    11    10    12    2
    12    10    13    1
    13    13    14   ar
    14    14    15   ar
    15    15    16    1
    16    15    17   ar
    17    17    18   ar
    18    18    19   ar
    19    19    20    1
    20     8    21   ar
    21     6    22   ar
    22    22    23   ar
    23    22    24    1
    24    24    25   ar
    25    25    26   ar
    26    26    27    1
    27    26    28   ar
    28    28    29   ar
    29    29    30   ar
    30    23     3   ar
    31    30    24   ar
    32    21     5   ar
    33    19    13   ar
    34     1    31    1
    35     1    32    1
    36     1    33    1
    37     4    34    1
    38     9    35    1
    39    14    36    1
    40    17    37    1
    41    18    38    1
    42    23    39    1
    43    25    40    1
    44    27    41    1
    45    27    42    1
    46    28    43    1
    47    29    44    1
    48    30    45    1
