@<TRIPOS>MOLECULE
*****
 57 61 0 0 0
SMALL
GASTEIGER

@<TRIPOS>ATOM
      1 C          -7.9765   -0.0097   -1.2666 C.3     1  UNL1       -0.0524
      2 C          -6.5987   -0.3036   -1.7894 C.3     1  UNL1       -0.0038
      3 N          -5.8713   -1.2144   -0.9197 N.3     1  UNL1       -0.2985
      4 C          -4.5458   -1.5383   -1.3601 C.3     1  UNL1        0.0226
      5 C          -3.9052   -0.9112   -0.1393 C.3     1  UNL1        0.0786
      6 N          -3.0727    0.2080   -0.5298 N.ar    1  UNL1       -0.2581
      7 N          -3.1885    0.9107   -1.6574 N.ar    1  UNL1       -0.1788
      8 C          -2.2672    1.8832   -1.7227 C.ar    1  UNL1        0.0500
      9 C          -1.5189    1.8032   -0.5776 C.ar    1  UNL1       -0.0162
     10 C          -2.0413    0.7615    0.1338 C.ar    1  UNL1        0.0728
     11 C          -1.5408    0.2938    1.4509 C.ar    1  UNL1        0.0437
     12 C          -2.4051    0.1294    2.4850 C.ar    1  UNL1       -0.0307
     13 C          -1.9493   -0.3099    3.6991 C.ar    1  UNL1        0.0418
     14 CL         -3.0941   -0.5083    4.9980 Cl      1  UNL1       -0.0835
     15 C          -0.5988   -0.5803    3.8512 C.ar    1  UNL1       -0.0399
     16 C           0.2799   -0.4132    2.8020 C.ar    1  UNL1       -0.0173
     17 C          -0.1623    0.0239    1.5765 C.ar    1  UNL1        0.1377
     18 O           0.6301    0.2026    0.4708 O.3     1  UNL1       -0.4541
     19 C           1.8593   -0.1279    0.0694 C.ar    1  UNL1        0.1459
     20 C           2.6777   -1.0450    0.7187 C.ar    1  UNL1       -0.0162
     21 C           3.9458   -1.3051    0.2200 C.ar    1  UNL1       -0.0315
     22 C           4.4496   -0.7069   -0.8910 C.ar    1  UNL1        0.1100
     23 S           6.0451   -1.0084   -1.5282 S.O2    1  UNL1        0.0735
     24 O           5.8793   -1.1572   -3.0317 O.2     1  UNL1       -0.1499
     25 O           6.5754   -2.3281   -1.0176 O.2     1  UNL1       -0.1499
     26 N           7.1356    0.2424   -1.1959 N.pl3   1  UNL1       -0.1990
     27 C           7.5394    0.6566    0.1382 C.ar    1  UNL1        0.1449
     28 C           7.0941    0.0211    1.2688 C.ar    1  UNL1        0.0183
     29 S           7.9564    0.9585    2.6072 S.2     1  UNL1       -0.0819
     30 C           8.7998    2.0885    1.3376 C.ar    1  UNL1        0.0669
     31 N           8.3713    1.6484    0.3661 N.ar    1  UNL1       -0.2315
     32 C           3.6282    0.1920   -1.5196 C.ar    1  UNL1       -0.0141
     33 C           2.3464    0.5116   -1.0875 C.ar    1  UNL1        0.0958
     34 C           1.6083    1.4710   -1.8513 C.1     1  UNL1        0.1029
     35 N           1.0103    2.2534   -2.4504 N.1     1  UNL1       -0.1907
     36 C          -5.3030   -0.5725    0.2492 C.3     1  UNL1        0.0226
     37 H          -8.0557   -0.2248   -0.1769 H       1  UNL1        0.0242
     38 H          -8.2372    1.0441   -1.4954 H       1  UNL1        0.0242
     39 H          -8.7618   -0.6221   -1.7917 H       1  UNL1        0.0242
     40 H          -6.0357    0.6538   -1.8245 H       1  UNL1        0.0424
     41 H          -6.6778   -0.7115   -2.8159 H       1  UNL1        0.0424
     42 H          -4.4422   -2.6592   -1.4112 H       1  UNL1        0.0448
     43 H          -4.2270   -1.0929   -2.3176 H       1  UNL1        0.0448
     44 H          -3.3935   -1.6945    0.4514 H       1  UNL1        0.0570
     45 H          -2.0870    2.6225   -2.4918 H       1  UNL1        0.0848
     46 H          -0.6753    2.4435   -0.2800 H       1  UNL1        0.0654
     47 H          -3.4481    0.3420    2.3599 H       1  UNL1        0.0640
     48 H          -0.2162   -0.9305    4.8105 H       1  UNL1        0.0633
     49 H           1.3521   -0.5914    2.9934 H       1  UNL1        0.0655
     50 H           2.3143   -1.5830    1.5705 H       1  UNL1        0.0655
     51 H           4.5287   -2.0306    0.7658 H       1  UNL1        0.0638
     52 H           7.5461    0.7515   -2.0332 H       1  UNL1        0.1753
     53 H           6.4250   -0.8227    1.4737 H       1  UNL1        0.0729
     54 H           9.4585    2.8538    1.7616 H       1  UNL1        0.0908
     55 H           4.0152    0.6859   -2.4204 H       1  UNL1        0.0651
     56 H          -5.5923   -1.1450    1.1717 H       1  UNL1        0.0448
     57 H          -5.5826    0.4915    0.2693 H       1  UNL1        0.0448
@<TRIPOS>BOND
     1     1     2    1
     2     2     3    1
     3     3     4    1
     4     4     5    1
     5     5     6    1
     6     6     7   ar
     7     7     8   ar
     8     8     9   ar
     9     9    10   ar
    10    10    11    1
    11    11    12   ar
    12    12    13   ar
    13    13    14    1
    14    13    15   ar
    15    15    16   ar
    16    16    17   ar
    17    17    18    1
    18    18    19    1
    19    19    20   ar
    20    20    21   ar
    21    21    22   ar
    22    22    23    1
    23    23    24    2
    24    23    25    2
    25    23    26    1
    26    26    27    1
    27    27    28   ar
    28    28    29   ar
    29    29    30   ar
    30    30    31   ar
    31    22    32   ar
    32    32    33   ar
    33    33    34    1
    34    34    35    3
    35     5    36    1
    36    36     3    1
    37    10     6   ar
    38    17    11   ar
    39    33    19   ar
    40    31    27   ar
    41     1    37    1
    42     1    38    1
    43     1    39    1
    44     2    40    1
    45     2    41    1
    46     4    42    1
    47     4    43    1
    48     5    44    1
    49     8    45    1
    50     9    46    1
    51    12    47    1
    52    15    48    1
    53    16    49    1
    54    20    50    1
    55    21    51    1
    56    26    52    1
    57    28    53    1
    58    30    54    1
    59    32    55    1
    60    36    56    1
    61    36    57    1
