
     RDKit          3D

 57 61  0  0  0  0  0  0  0  0999 V2000
   -7.9765   -0.0097   -1.2666 C   0  0  0  0  0  0  0  0  0  0  0  0
   -6.5987   -0.3036   -1.7894 C   0  0  0  0  0  0  0  0  0  0  0  0
   -5.8713   -1.2144   -0.9197 N   0  0  0  0  0  0  0  0  0  0  0  0
   -4.5458   -1.5383   -1.3601 C   0  0  0  0  0  0  0  0  0  0  0  0
   -3.9052   -0.9112   -0.1393 C   0  0  0  0  0  0  0  0  0  0  0  0
   -3.0727    0.2080   -0.5298 N   0  0  0  0  0  0  0  0  0  0  0  0
   -3.1885    0.9107   -1.6574 N   0  0  0  0  0  0  0  0  0  0  0  0
   -2.2672    1.8832   -1.7227 C   0  0  0  0  0  0  0  0  0  0  0  0
   -1.5189    1.8032   -0.5776 C   0  0  0  0  0  0  0  0  0  0  0  0
   -2.0413    0.7615    0.1338 C   0  0  0  0  0  0  0  0  0  0  0  0
   -1.5408    0.2938    1.4509 C   0  0  0  0  0  0  0  0  0  0  0  0
   -2.4051    0.1294    2.4850 C   0  0  0  0  0  0  0  0  0  0  0  0
   -1.9493   -0.3099    3.6991 C   0  0  0  0  0  0  0  0  0  0  0  0
   -3.0941   -0.5083    4.9980 Cl  0  0  0  0  0  0  0  0  0  0  0  0
   -0.5988   -0.5803    3.8512 C   0  0  0  0  0  0  0  0  0  0  0  0
    0.2799   -0.4132    2.8020 C   0  0  0  0  0  0  0  0  0  0  0  0
   -0.1623    0.0239    1.5765 C   0  0  0  0  0  0  0  0  0  0  0  0
    0.6301    0.2026    0.4708 O   0  0  0  0  0  0  0  0  0  0  0  0
    1.8593   -0.1279    0.0694 C   0  0  0  0  0  0  0  0  0  0  0  0
    2.6777   -1.0450    0.7187 C   0  0  0  0  0  0  0  0  0  0  0  0
    3.9458   -1.3051    0.2200 C   0  0  0  0  0  0  0  0  0  0  0  0
    4.4496   -0.7069   -0.8910 C   0  0  0  0  0  0  0  0  0  0  0  0
    6.0451   -1.0084   -1.5282 S   0  0  0  0  0  6  0  0  0  0  0  0
    5.8793   -1.1572   -3.0317 O   0  0  0  0  0  0  0  0  0  0  0  0
    6.5754   -2.3281   -1.0176 O   0  0  0  0  0  0  0  0  0  0  0  0
    7.1356    0.2424   -1.1959 N   0  0  0  0  0  0  0  0  0  0  0  0
    7.5394    0.6566    0.1382 C   0  0  0  0  0  0  0  0  0  0  0  0
    7.0941    0.0211    1.2688 C   0  0  0  0  0  0  0  0  0  0  0  0
    7.9564    0.9585    2.6072 S   0  0  0  0  0  0  0  0  0  0  0  0
    8.7998    2.0885    1.3376 C   0  0  0  0  0  0  0  0  0  0  0  0
    8.3713    1.6484    0.3661 N   0  0  0  0  0  0  0  0  0  0  0  0
    3.6282    0.1920   -1.5196 C   0  0  0  0  0  0  0  0  0  0  0  0
    2.3464    0.5116   -1.0875 C   0  0  0  0  0  0  0  0  0  0  0  0
    1.6083    1.4710   -1.8513 C   0  0  0  0  0  0  0  0  0  0  0  0
    1.0103    2.2534   -2.4504 N   0  0  0  0  0  0  0  0  0  0  0  0
   -5.3030   -0.5725    0.2492 C   0  0  0  0  0  0  0  0  0  0  0  0
   -8.0557   -0.2248   -0.1769 H   0  0  0  0  0  0  0  0  0  0  0  0
   -8.2372    1.0441   -1.4954 H   0  0  0  0  0  0  0  0  0  0  0  0
   -8.7618   -0.6221   -1.7917 H   0  0  0  0  0  0  0  0  0  0  0  0
   -6.0357    0.6538   -1.8245 H   0  0  0  0  0  0  0  0  0  0  0  0
   -6.6778   -0.7115   -2.8159 H   0  0  0  0  0  0  0  0  0  0  0  0
   -4.4422   -2.6592   -1.4112 H   0  0  0  0  0  0  0  0  0  0  0  0
   -4.2270   -1.0929   -2.3176 H   0  0  0  0  0  0  0  0  0  0  0  0
   -3.3935   -1.6945    0.4514 H   0  0  0  0  0  0  0  0  0  0  0  0
   -2.0870    2.6225   -2.4918 H   0  0  0  0  0  0  0  0  0  0  0  0
   -0.6753    2.4435   -0.2800 H   0  0  0  0  0  0  0  0  0  0  0  0
   -3.4481    0.3420    2.3599 H   0  0  0  0  0  0  0  0  0  0  0  0
   -0.2162   -0.9305    4.8105 H   0  0  0  0  0  0  0  0  0  0  0  0
    1.3521   -0.5914    2.9934 H   0  0  0  0  0  0  0  0  0  0  0  0
    2.3143   -1.5830    1.5705 H   0  0  0  0  0  0  0  0  0  0  0  0
    4.5287   -2.0306    0.7658 H   0  0  0  0  0  0  0  0  0  0  0  0
    7.5461    0.7515   -2.0332 H   0  0  0  0  0  0  0  0  0  0  0  0
    6.4250   -0.8227    1.4737 H   0  0  0  0  0  0  0  0  0  0  0  0
    9.4585    2.8538    1.7616 H   0  0  0  0  0  0  0  0  0  0  0  0
    4.0152    0.6859   -2.4204 H   0  0  0  0  0  0  0  0  0  0  0  0
   -5.5923   -1.1450    1.1717 H   0  0  0  0  0  0  0  0  0  0  0  0
   -5.5826    0.4915    0.2693 H   0  0  0  0  0  0  0  0  0  0  0  0
  1  2  1  0
  2  3  1  0
  3  4  1  0
  4  5  1  0
  5  6  1  0
  6  7  1  0
  7  8  2  0
  8  9  1  0
  9 10  2  0
 10 11  1  0
 11 12  2  0
 12 13  1  0
 13 14  1  0
 13 15  2  0
 15 16  1  0
 16 17  2  0
 17 18  1  0
 18 19  1  0
 19 20  2  0
 20 21  1  0
 21 22  2  0
 22 23  1  0
 23 24  2  0
 23 25  2  0
 23 26  1  0
 26 27  1  0
 27 28  2  0
 28 29  1  0
 29 30  1  0
 30 31  2  0
 22 32  1  0
 32 33  2  0
 33 34  1  0
 34 35  3  0
  5 36  1  0
 36  3  1  0
 10  6  1  0
 17 11  1  0
 33 19  1  0
 31 27  1  0
  1 37  1  0
  1 38  1  0
  1 39  1  0
  2 40  1  0
  2 41  1  0
  4 42  1  0
  4 43  1  0
  5 44  1  0
  8 45  1  0
  9 46  1  0
 12 47  1  0
 15 48  1  0
 16 49  1  0
 20 50  1  0
 21 51  1  0
 26 52  1  0
 28 53  1  0
 30 54  1  0
 32 55  1  0
 36 56  1  0
 36 57  1  0
M  END
$$$$
