
     RDKit          3D

 49 53  0  0  0  0  0  0  0  0999 V2000
   -2.0807    4.1832    2.3019 C   0  0  0  0  0  0  0  0  0  0  0  0
   -2.3914    2.9611    1.5269 C   0  0  0  0  0  0  0  0  0  0  0  0
   -3.6211    2.3824    1.3140 C   0  0  0  0  0  0  0  0  0  0  0  0
   -3.5027    1.2806    0.5587 N   0  0  0  0  0  0  0  0  0  0  0  0
   -4.5614    0.3813    0.1065 C   0  0  0  0  0  0  0  0  0  0  0  0
   -2.1670    1.1459    0.2784 C   0  0  0  0  0  0  0  0  0  0  0  0
   -1.4708    2.1656    0.8626 C   0  0  0  0  0  0  0  0  0  0  0  0
   -0.0762    1.9987    0.5473 C   0  0  0  0  0  0  0  0  0  0  0  0
    0.8093    2.7978    0.9563 O   0  0  0  0  0  0  0  0  0  0  0  0
    0.0575    0.8381   -0.2534 N   0  0  0  0  0  0  0  0  0  0  0  0
    1.3409    0.4542   -0.7208 C   0  0  0  0  0  0  0  0  0  0  0  0
    1.8027    0.9031   -1.9321 C   0  0  0  0  0  0  0  0  0  0  0  0
    3.0532    0.5489   -2.4156 C   0  0  0  0  0  0  0  0  0  0  0  0
    3.6082    0.9977   -3.7100 C   0  0  0  0  0  0  0  0  0  0  0  0
    3.7834   -0.2784   -1.5922 C   0  0  0  0  0  0  0  0  0  0  0  0
    5.0263   -0.7813   -1.8042 N   0  0  0  0  0  0  0  0  0  0  0  0
    5.3518   -1.5266   -0.7662 N   0  0  0  0  0  0  0  0  0  0  0  0
    4.3240   -1.4941    0.0921 C   0  0  0  0  0  0  0  0  0  0  0  0
    4.2506   -2.1793    1.3787 C   0  0  0  0  0  0  0  0  0  0  0  0
    4.1110   -1.3107    2.4426 F   0  0  0  0  0  0  0  0  0  0  0  0
    3.2305   -3.1366    1.3847 F   0  0  0  0  0  0  0  0  0  0  0  0
    3.3283   -0.7156   -0.4076 N   0  0  0  0  0  0  0  0  0  0  0  0
    2.1184   -0.3610    0.0390 C   0  0  0  0  0  0  0  0  0  0  0  0
   -1.2221    0.2726   -0.4358 C   0  0  0  0  0  0  0  0  0  0  0  0
   -1.3823   -1.1172    0.0022 C   0  0  0  0  0  0  0  0  0  0  0  0
   -2.0294   -1.9926   -0.8390 C   0  0  0  0  0  0  0  0  0  0  0  0
   -2.2361   -3.3239   -0.5190 C   0  0  0  0  0  0  0  0  0  0  0  0
   -1.7721   -3.7837    0.6932 C   0  0  0  0  0  0  0  0  0  0  0  0
   -1.9864   -5.4604    1.1912 Cl  0  0  0  0  0  0  0  0  0  0  0  0
   -1.1203   -2.9452    1.5648 C   0  0  0  0  0  0  0  0  0  0  0  0
   -0.9393   -1.6311    1.2015 C   0  0  0  0  0  0  0  0  0  0  0  0
   -1.9679    3.9831    3.3684 H   0  0  0  0  0  0  0  0  0  0  0  0
   -2.9486    4.8878    2.1814 H   0  0  0  0  0  0  0  0  0  0  0  0
   -1.1846    4.6645    1.8534 H   0  0  0  0  0  0  0  0  0  0  0  0
   -4.5520    2.7899    1.7196 H   0  0  0  0  0  0  0  0  0  0  0  0
   -5.4705    0.6363    0.7009 H   0  0  0  0  0  0  0  0  0  0  0  0
   -4.8244    0.5456   -0.9534 H   0  0  0  0  0  0  0  0  0  0  0  0
   -4.3340   -0.6786    0.3431 H   0  0  0  0  0  0  0  0  0  0  0  0
    1.2163    1.5620   -2.5836 H   0  0  0  0  0  0  0  0  0  0  0  0
    2.7948    1.2830   -4.4068 H   0  0  0  0  0  0  0  0  0  0  0  0
    4.2069    1.9273   -3.5306 H   0  0  0  0  0  0  0  0  0  0  0  0
    4.2927    0.2449   -4.1375 H   0  0  0  0  0  0  0  0  0  0  0  0
    5.1890   -2.7430    1.5472 H   0  0  0  0  0  0  0  0  0  0  0  0
    1.7937   -0.7325    0.9950 H   0  0  0  0  0  0  0  0  0  0  0  0
   -1.4977    0.3123   -1.5374 H   0  0  0  0  0  0  0  0  0  0  0  0
   -2.4160   -1.6697   -1.8153 H   0  0  0  0  0  0  0  0  0  0  0  0
   -2.7381   -4.0234   -1.1601 H   0  0  0  0  0  0  0  0  0  0  0  0
   -0.7628   -3.3234    2.5121 H   0  0  0  0  0  0  0  0  0  0  0  0
   -0.4334   -0.9395    1.8567 H   0  0  0  0  0  0  0  0  0  0  0  0
  1  2  1  0
  2  3  2  0
  3  4  1  0
  4  5  1  0
  4  6  1  0
  6  7  2  0
  7  8  1  0
  8  9  2  0
  8 10  1  0
 10 11  1  0
 11 12  1  0
 12 13  2  0
 13 14  1  0
 13 15  1  0
 15 16  2  0
 16 17  1  0
 17 18  2  0
 18 19  1  0
 19 20  1  0
 19 21  1  0
 18 22  1  0
 22 23  1  0
 10 24  1  0
 24 25  1  0
 25 26  2  0
 26 27  1  0
 27 28  2  0
 28 29  1  0
 28 30  1  0
 30 31  2  0
  7  2  1  0
 23 11  2  0
 31 25  1  0
 24  6  1  0
 22 15  1  0
  1 32  1  0
  1 33  1  0
  1 34  1  0
  3 35  1  0
  5 36  1  0
  5 37  1  0
  5 38  1  0
 12 39  1  0
 14 40  1  0
 14 41  1  0
 14 42  1  0
 19 43  1  0
 23 44  1  0
 24 45  1  0
 26 46  1  0
 27 47  1  0
 30 48  1  0
 31 49  1  0
M  END
$$$$
