@<TRIPOS>MOLECULE
*****
 49 53 0 0 0
SMALL
GASTEIGER

@<TRIPOS>ATOM
      1 C          -2.0807    4.1832    2.3019 C.3     1  UNL1       -0.0376
      2 C          -2.3914    2.9611    1.5269 C.ar    1  UNL1       -0.0205
      3 C          -3.6211    2.3824    1.3140 C.ar    1  UNL1        0.0082
      4 N          -3.5027    1.2806    0.5587 N.ar    1  UNL1       -0.3508
      5 C          -4.5614    0.3813    0.1065 C.3     1  UNL1        0.0117
      6 C          -2.1670    1.1459    0.2784 C.ar    1  UNL1        0.0564
      7 C          -1.4708    2.1656    0.8626 C.ar    1  UNL1        0.0630
      8 C          -0.0762    1.9987    0.5473 C.2     1  UNL1        0.2538
      9 O           0.8093    2.7978    0.9563 O.2     1  UNL1       -0.2695
     10 N           0.0575    0.8381   -0.2534 N.am    1  UNL1       -0.2530
     11 C           1.3409    0.4542   -0.7208 C.ar    1  UNL1        0.0545
     12 C           1.8027    0.9031   -1.9321 C.ar    1  UNL1       -0.0324
     13 C           3.0532    0.5489   -2.4156 C.ar    1  UNL1       -0.0041
     14 C           3.6082    0.9977   -3.7100 C.3     1  UNL1       -0.0361
     15 C           3.7834   -0.2784   -1.5922 C.ar    1  UNL1        0.1642
     16 N           5.0263   -0.7813   -1.8042 N.ar    1  UNL1       -0.1290
     17 N           5.3518   -1.5266   -0.7662 N.ar    1  UNL1       -0.1278
     18 C           4.3240   -1.4941    0.0921 C.ar    1  UNL1        0.2041
     19 C           4.2506   -2.1793    1.3787 C.3     1  UNL1        0.2980
     20 F           4.1110   -1.3107    2.4426 F       1  UNL1       -0.2005
     21 F           3.2305   -3.1366    1.3847 F       1  UNL1       -0.2005
     22 N           3.3283   -0.7156   -0.4076 N.ar    1  UNL1       -0.2798
     23 C           2.1184   -0.3610    0.0390 C.ar    1  UNL1        0.0345
     24 C          -1.2221    0.2726   -0.4358 C.3     1  UNL1        0.0972
     25 C          -1.3823   -1.1172    0.0022 C.ar    1  UNL1       -0.0208
     26 C          -2.0294   -1.9926   -0.8390 C.ar    1  UNL1       -0.0550
     27 C          -2.2361   -3.3239   -0.5190 C.ar    1  UNL1       -0.0431
     28 C          -1.7721   -3.7837    0.6932 C.ar    1  UNL1        0.0410
     29 CL         -1.9864   -5.4604    1.1912 Cl      1  UNL1       -0.0835
     30 C          -1.1203   -2.9452    1.5648 C.ar    1  UNL1       -0.0431
     31 C          -0.9393   -1.6311    1.2015 C.ar    1  UNL1       -0.0550
     32 H          -1.9679    3.9831    3.3684 H       1  UNL1        0.0278
     33 H          -2.9486    4.8878    2.1814 H       1  UNL1        0.0278
     34 H          -1.1846    4.6645    1.8534 H       1  UNL1        0.0278
     35 H          -4.5520    2.7899    1.7196 H       1  UNL1        0.0812
     36 H          -5.4705    0.6363    0.7009 H       1  UNL1        0.0456
     37 H          -4.8244    0.5456   -0.9534 H       1  UNL1        0.0456
     38 H          -4.3340   -0.6786    0.3431 H       1  UNL1        0.0456
     39 H           1.2163    1.5620   -2.5836 H       1  UNL1        0.0640
     40 H           2.7948    1.2830   -4.4068 H       1  UNL1        0.0279
     41 H           4.2069    1.9273   -3.5306 H       1  UNL1        0.0279
     42 H           4.2927    0.2449   -4.1375 H       1  UNL1        0.0279
     43 H           5.1890   -2.7430    1.5472 H       1  UNL1        0.1105
     44 H           1.7937   -0.7325    0.9950 H       1  UNL1        0.0833
     45 H          -1.4977    0.3123   -1.5374 H       1  UNL1        0.0619
     46 H          -2.4160   -1.6697   -1.8153 H       1  UNL1        0.0621
     47 H          -2.7381   -4.0234   -1.1601 H       1  UNL1        0.0632
     48 H          -0.7628   -3.3234    2.5121 H       1  UNL1        0.0632
     49 H          -0.4334   -0.9395    1.8567 H       1  UNL1        0.0621
@<TRIPOS>BOND
     1     1     2    1
     2     2     3   ar
     3     3     4   ar
     4     4     5    1
     5     4     6   ar
     6     6     7   ar
     7     7     8    1
     8     8     9    2
     9     8    10   am
    10    10    11    1
    11    11    12   ar
    12    12    13   ar
    13    13    14    1
    14    13    15   ar
    15    15    16   ar
    16    16    17   ar
    17    17    18   ar
    18    18    19    1
    19    19    20    1
    20    19    21    1
    21    18    22   ar
    22    22    23   ar
    23    10    24    1
    24    24    25    1
    25    25    26   ar
    26    26    27   ar
    27    27    28   ar
    28    28    29    1
    29    28    30   ar
    30    30    31   ar
    31     7     2   ar
    32    23    11   ar
    33    31    25   ar
    34    24     6    1
    35    22    15   ar
    36     1    32    1
    37     1    33    1
    38     1    34    1
    39     3    35    1
    40     5    36    1
    41     5    37    1
    42     5    38    1
    43    12    39    1
    44    14    40    1
    45    14    41    1
    46    14    42    1
    47    19    43    1
    48    23    44    1
    49    24    45    1
    50    26    46    1
    51    27    47    1
    52    30    48    1
    53    31    49    1
