@<TRIPOS>MOLECULE
*****
 17 16 0 0 0
SMALL
GASTEIGER

@<TRIPOS>ATOM
      1 C1          2.9593   -0.5588    0.0406 C.3     1  <1>        -0.0180
      2 S1          1.2616   -0.7945   -0.5558 S.3     1  <1>        -0.1620
      3 C2          0.2626    0.5751    0.0940 C.3     1  <1>         0.0190
      4 C3         -1.1768    0.4696   -0.3489 C.3     1  <1>         0.1123
      5 N1         -1.9896    1.5581    0.1630 N.3     1  <1>        -0.3178
      6 C4         -1.7651   -0.8446    0.0174 C.2     1  <1>         0.3225
      7 O1         -1.1074   -1.9927   -0.3973 O.3     1  <1>        -0.4795
      8 O2         -2.8300   -0.8180    0.6852 O.2     1  <1>        -0.2492
      9 H1          3.2065   -1.2793    0.8293 H       1  <1>         0.0340
     10 H2          3.6328   -0.6844   -0.8294 H       1  <1>         0.0340
     11 H3          3.1145    0.4927    0.3879 H       1  <1>         0.0340
     12 H4          0.3090    0.5209    1.1978 H       1  <1>         0.0397
     13 H5          0.7241    1.4941   -0.3243 H       1  <1>         0.0397
     14 H6         -1.2051    0.5245   -1.4575 H       1  <1>         0.0582
     15 H7         -2.4780    2.0879   -0.5972 H       1  <1>         0.1190
     16 H8         -1.4129    2.1463    0.7943 H       1  <1>         0.1190
     17 H9         -1.5054   -2.8972   -0.1052 H       1  <1>         0.2951
@<TRIPOS>BOND
     1     1     2    1
     2     2     3    1
     3     3     4    1
     4     4     5    1
     5     4     6    1
     6     6     7    1
     7     6     8    2
     8     1     9    1
     9     1    10    1
    10     1    11    1
    11     3    12    1
    12     3    13    1
    13     4    14    1
    14     5    15    1
    15     5    16    1
    16     7    17    1
