
     RDKit          3D

 17 16  0  0  0  0  0  0  0  0999 V2000
    2.9593   -0.5588    0.0406 C   0  0  0  0  0  0  0  0  0  0  0  0
    1.2616   -0.7945   -0.5558 S   0  0  0  0  0  0  0  0  0  0  0  0
    0.2626    0.5751    0.0940 C   0  0  0  0  0  0  0  0  0  0  0  0
   -1.1768    0.4696   -0.3489 C   0  0  2  0  0  0  0  0  0  0  0  0
   -1.9896    1.5581    0.1630 N   0  0  0  0  0  0  0  0  0  0  0  0
   -1.7651   -0.8446    0.0174 C   0  0  0  0  0  0  0  0  0  0  0  0
   -1.1074   -1.9927   -0.3973 O   0  0  0  0  0  0  0  0  0  0  0  0
   -2.8300   -0.8180    0.6852 O   0  0  0  0  0  0  0  0  0  0  0  0
    3.2065   -1.2793    0.8293 H   0  0  0  0  0  0  0  0  0  0  0  0
    3.6328   -0.6844   -0.8294 H   0  0  0  0  0  0  0  0  0  0  0  0
    3.1145    0.4927    0.3879 H   0  0  0  0  0  0  0  0  0  0  0  0
    0.3090    0.5209    1.1978 H   0  0  0  0  0  0  0  0  0  0  0  0
    0.7241    1.4941   -0.3243 H   0  0  0  0  0  0  0  0  0  0  0  0
   -1.2051    0.5245   -1.4575 H   0  0  0  0  0  0  0  0  0  0  0  0
   -2.4780    2.0879   -0.5972 H   0  0  0  0  0  0  0  0  0  0  0  0
   -1.4129    2.1463    0.7943 H   0  0  0  0  0  0  0  0  0  0  0  0
   -1.5054   -2.8972   -0.1052 H   0  0  0  0  0  0  0  0  0  0  0  0
  1  2  1  0
  2  3  1  0
  3  4  1  0
  4  5  1  0
  4  6  1  0
  6  7  1  0
  6  8  2  0
  1  9  1  0
  1 10  1  0
  1 11  1  0
  3 12  1  0
  3 13  1  0
  4 14  1  6
  5 15  1  0
  5 16  1  0
  7 17  1  0
M  END
$$$$
