@<TRIPOS>MOLECULE
*****
 53 56 0 0 0
SMALL
GASTEIGER

@<TRIPOS>ATOM
      1 O5*        -5.0570   -1.7127   -0.4885 O.3     1  UNL1       -0.3924
      2 C5*        -5.6345   -1.5113    0.7531 C.3     1  UNL1        0.0730
      3 C4*        -5.2655   -0.1544    1.3308 C.3     1  UNL1        0.1126
      4 O4*        -3.9183   -0.0319    1.4818 O.3     1  UNL1       -0.3457
      5 C1*        -3.4852    1.2372    1.1212 C.3     1  UNL1        0.1667
      6 C2*        -4.7455    2.0644    0.9377 C.3     1  UNL1        0.1285
      7 O2*        -5.3064    2.4372    2.1660 O.3     1  UNL1       -0.3847
      8 C3*        -5.6521    0.9549    0.3794 C.3     1  UNL1        0.1135
      9 O3*        -6.9862    1.2967    0.4225 O.3     1  UNL1       -0.3864
     10 N          -2.8084    1.2007   -0.1661 N.ar    1  UNL1       -0.2855
     11 C          -3.0453    1.7937   -1.3452 C.ar    1  UNL1        0.1004
     12 N          -2.1399    1.4468   -2.2771 N.ar    1  UNL1       -0.2306
     13 C          -1.2697    0.5903   -1.6880 C.ar    1  UNL1        0.1474
     14 C          -0.1698   -0.0443   -2.2203 C.ar    1  UNL1        0.1491
     15 N           0.2073    0.1512   -3.5747 N.pl3   1  UNL1       -0.3413
     16 N           0.4791   -0.8371   -1.3471 N.ar    1  UNL1       -0.1963
     17 C           0.0823   -0.9953   -0.0539 C.ar    1  UNL1        0.2387
     18 N           0.9850   -1.8988    0.5846 N.pl3   1  UNL1       -0.2053
     19 N           2.1036   -1.1136    0.9764 N.2     1  UNL1       -0.1922
     20 C           2.9806   -0.8425    0.0516 C.2     1  UNL1        0.0262
     21 C           4.2337   -0.0550    0.1592 C.3     1  UNL1       -0.0041
     22 C           4.9331   -0.1990    1.4751 C.3     1  UNL1       -0.0453
     23 C           6.1555    0.7225    1.4177 C.3     1  UNL1       -0.0525
     24 C           7.1490    0.0981    0.4850 C.3     1  UNL1       -0.0530
     25 C           6.5384   -0.8135   -0.5331 C.3     1  UNL1       -0.0525
     26 C           5.1736   -0.3886   -0.9768 C.3     1  UNL1       -0.0453
     27 N          -1.0028   -0.3625    0.4511 N.ar    1  UNL1       -0.1933
     28 C          -1.7015    0.4461   -0.3645 C.ar    1  UNL1        0.1693
     29 H5*        -5.7969   -1.7544   -1.1413 H       1  UNL1        0.2095
     30 H5*1       -5.2985   -2.2866    1.4706 H       1  UNL1        0.0584
     31 H5*2       -6.7552   -1.5848    0.7158 H       1  UNL1        0.0584
     32 H4*        -5.7986    0.0358    2.2789 H       1  UNL1        0.0647
     33 H1*        -2.8025    1.6424    1.8815 H       1  UNL1        0.0866
     34 H2*        -4.6530    2.9013    0.2546 H       1  UNL1        0.0665
     35 H2*        -4.7766    3.1344    2.6288 H       1  UNL1        0.2101
     36 H3*        -5.2717    0.7576   -0.6546 H       1  UNL1        0.0647
     37 H3*        -7.2542    1.5156   -0.5265 H       1  UNL1        0.2100
     38 H          -3.8616    2.4703   -1.5360 H       1  UNL1        0.1030
     39 H          -0.5004   -0.1787   -4.2650 H       1  UNL1        0.1438
     40 H           1.1455    0.5969   -3.5147 H       1  UNL1        0.1438
     41 H           0.9516   -2.9277    0.7827 H       1  UNL1        0.1774
     42 H           2.7792   -1.2457   -0.9555 H       1  UNL1        0.0801
     43 H           3.9563    1.0333    0.0693 H       1  UNL1        0.0358
     44 H           5.2774   -1.2612    1.6131 H       1  UNL1        0.0271
     45 H           4.2437    0.1104    2.2897 H       1  UNL1        0.0271
     46 H           5.7883    1.6688    0.9305 H       1  UNL1        0.0265
     47 H           6.5258    0.9011    2.4377 H       1  UNL1        0.0265
     48 H           7.6597    0.9240   -0.0792 H       1  UNL1        0.0265
     49 H           7.8855   -0.4935    1.0717 H       1  UNL1        0.0265
     50 H           6.5641   -1.8835   -0.2096 H       1  UNL1        0.0265
     51 H           7.1809   -0.7938   -1.4606 H       1  UNL1        0.0265
     52 H           5.2430    0.4258   -1.7036 H       1  UNL1        0.0271
     53 H           4.7351   -1.2567   -1.5363 H       1  UNL1        0.0271
@<TRIPOS>BOND
     1     1     2    1
     2     2     3    1
     3     3     4    1
     4     4     5    1
     5     5     6    1
     6     6     7    1
     7     6     8    1
     8     8     9    1
     9     5    10    1
    10    10    11   ar
    11    11    12   ar
    12    12    13   ar
    13    13    14   ar
    14    14    15    1
    15    14    16   ar
    16    16    17   ar
    17    17    18    1
    18    18    19    1
    19    19    20    2
    20    20    21    1
    21    21    22    1
    22    22    23    1
    23    23    24    1
    24    24    25    1
    25    25    26    1
    26    17    27   ar
    27    27    28   ar
    28     8     3    1
    29    28    10   ar
    30    28    13   ar
    31    26    21    1
    32     1    29    1
    33     2    30    1
    34     2    31    1
    35     3    32    1
    36     5    33    1
    37     6    34    1
    38     7    35    1
    39     8    36    1
    40     9    37    1
    41    11    38    1
    42    15    39    1
    43    15    40    1
    44    18    41    1
    45    20    42    1
    46    21    43    1
    47    22    44    1
    48    22    45    1
    49    23    46    1
    50    23    47    1
    51    24    48    1
    52    24    49    1
    53    25    50    1
    54    25    51    1
    55    26    52    1
    56    26    53    1
