@<TRIPOS>MOLECULE
*****
 54 56 0 0 0
SMALL
GASTEIGER

@<TRIPOS>ATOM
      1 C          -2.3538   -1.6982    1.3346 C.3     1  UNL1       -0.0392
      2 C          -1.9896   -0.2807    0.9660 C.3     1  UNL1        0.0881
      3 N          -0.7458   -0.1867    0.2641 N.am    1  UNL1       -0.3014
      4 C           0.3757    0.5635    0.7120 C.2     1  UNL1        0.2460
      5 O           0.2849    1.1924    1.7948 O.2     1  UNL1       -0.2701
      6 C           1.6347    0.6436   -0.0220 C.ar    1  UNL1        0.0558
      7 C           2.4219   -0.4627   -0.2604 C.ar    1  UNL1       -0.0447
      8 C           3.6200   -0.3686   -0.9623 C.ar    1  UNL1       -0.0186
      9 C           4.0756    0.8365   -1.4519 C.ar    1  UNL1        0.1342
     10 O           5.2620    0.9847   -2.1582 O.3     1  UNL1       -0.4853
     11 C           6.1658   -0.0168   -2.4763 C.3     1  UNL1        0.1313
     12 C           6.7677   -0.6999   -1.2954 C.ar    1  UNL1        0.0784
     13 C           6.6452   -0.1826   -0.0250 C.ar    1  UNL1       -0.0370
     14 C           7.1968   -0.7855    1.0827 C.ar    1  UNL1       -0.0585
     15 C           7.9035   -1.9634    0.8989 C.ar    1  UNL1       -0.0436
     16 C           7.9925   -2.4318   -0.3906 C.ar    1  UNL1        0.0280
     17 N           7.4528   -1.8374   -1.4569 N.ar    1  UNL1       -0.2565
     18 C           3.2716    1.9430   -1.2040 C.ar    1  UNL1        0.1153
     19 C           3.7566    3.2537   -1.7308 C.3     1  UNL1        0.4222
     20 F           4.9810    3.4938   -1.1392 F       1  UNL1       -0.1657
     21 F           2.8630    4.2607   -1.4558 F       1  UNL1       -0.1657
     22 F           3.9482    3.1282   -3.1088 F       1  UNL1       -0.1657
     23 C           2.0838    1.8527   -0.5089 C.ar    1  UNL1        0.0682
     24 CL          1.1023    3.2718   -0.2185 Cl      1  UNL1       -0.0821
     25 C          -3.0745    0.2570    0.1267 C.2     1  UNL1        0.2372
     26 O          -2.8595    0.7152   -1.0228 O.2     1  UNL1       -0.2852
     27 C          -4.4619    0.2703    0.6247 C.2     1  UNL1        0.2867
     28 O          -4.7345   -0.1782    1.7736 O.2     1  UNL1       -0.2666
     29 N          -5.5317    0.7740   -0.1413 N.am    1  UNL1       -0.2625
     30 C          -6.8718    0.7842    0.3452 C.ar    1  UNL1        0.1471
     31 C          -7.4620    1.8076    1.0552 C.ar    1  UNL1       -0.0021
     32 C          -8.7635    1.4677    1.3584 C.ar    1  UNL1        0.0270
     33 N          -8.9350    0.2402    0.8232 N.ar    1  UNL1       -0.2727
     34 C         -10.1969   -0.4847    0.9252 C.3     1  UNL1        0.0302
     35 N          -7.8170   -0.1611    0.2257 N.ar    1  UNL1       -0.1562
     36 H          -2.9400   -2.2063    0.5344 H       1  UNL1        0.0252
     37 H          -1.4365   -2.3261    1.5210 H       1  UNL1        0.0252
     38 H          -2.9541   -1.7180    2.2641 H       1  UNL1        0.0252
     39 H          -1.9144    0.3189    1.8932 H       1  UNL1        0.0580
     40 H          -0.6066   -0.6966   -0.6596 H       1  UNL1        0.1497
     41 H           2.0977   -1.4152    0.1062 H       1  UNL1        0.0627
     42 H           4.2295   -1.2583   -1.1461 H       1  UNL1        0.0654
     43 H           7.0023    0.4473   -3.0403 H       1  UNL1        0.0763
     44 H           5.7421   -0.7882   -3.1835 H       1  UNL1        0.0763
     45 H           6.0802    0.7491    0.0718 H       1  UNL1        0.0637
     46 H           7.0859   -0.3544    2.0851 H       1  UNL1        0.0619
     47 H           8.3564   -2.4839    1.7097 H       1  UNL1        0.0633
     48 H           8.5520   -3.3637   -0.5342 H       1  UNL1        0.0829
     49 H          -5.3082    1.1508   -1.1045 H       1  UNL1        0.1567
     50 H          -7.0162    2.7461    1.3510 H       1  UNL1        0.0668
     51 H          -9.5052    2.0489    1.9081 H       1  UNL1        0.0827
     52 H          -9.9283   -1.5750    1.0309 H       1  UNL1        0.0473
     53 H         -10.7204   -0.2163    1.8682 H       1  UNL1        0.0473
     54 H         -10.8246   -0.3096    0.0424 H       1  UNL1        0.0473
@<TRIPOS>BOND
     1     1     2    1
     2     2     3    1
     3     3     4   am
     4     4     5    2
     5     4     6    1
     6     6     7   ar
     7     7     8   ar
     8     8     9   ar
     9     9    10    1
    10    10    11    1
    11    11    12    1
    12    12    13   ar
    13    13    14   ar
    14    14    15   ar
    15    15    16   ar
    16    16    17   ar
    17     9    18   ar
    18    18    19    1
    19    19    20    1
    20    19    21    1
    21    19    22    1
    22    18    23   ar
    23    23    24    1
    24     2    25    1
    25    25    26    2
    26    25    27    1
    27    27    28    2
    28    27    29   am
    29    29    30    1
    30    30    31   ar
    31    31    32   ar
    32    32    33   ar
    33    33    34    1
    34    33    35   ar
    35    23     6   ar
    36    35    30   ar
    37    17    12   ar
    38     1    36    1
    39     1    37    1
    40     1    38    1
    41     2    39    1
    42     3    40    1
    43     7    41    1
    44     8    42    1
    45    11    43    1
    46    11    44    1
    47    13    45    1
    48    14    46    1
    49    15    47    1
    50    16    48    1
    51    29    49    1
    52    31    50    1
    53    32    51    1
    54    34    52    1
    55    34    53    1
    56    34    54    1
