@<TRIPOS>MOLECULE
*****
 78 82 0 0 0
SMALL
GASTEIGER

@<TRIPOS>ATOM
      1 N          12.9120    0.0061    0.4955 N.am    1  UNL1       -0.3256
      2 C          11.7201    0.4464   -0.1345 C.2     1  UNL1        0.2390
      3 O          11.9226    1.1585   -1.1728 O.2     1  UNL1       -0.2707
      4 C          10.3740    0.1340    0.3326 C.2     1  UNL1        0.0318
      5 C           9.3734    0.6283   -0.3777 C.2     1  UNL1        0.0071
      6 N           8.0611    0.3105    0.0968 N.pl3   1  UNL1       -0.2846
      7 C           7.7870   -0.4722    1.2387 C.2     1  UNL1       -0.0049
      8 C           8.8581   -0.9156    1.8743 C.2     1  UNL1       -0.0654
      9 C          10.2913   -0.7021    1.5503 C.3     1  UNL1       -0.0019
     10 C           6.9511    0.8451   -0.6710 C.3     1  UNL1        0.1574
     11 O           5.7241    0.4646   -0.1904 O.3     1  UNL1       -0.3476
     12 C           4.9085    0.1653   -1.2543 C.3     1  UNL1        0.1132
     13 C           3.7326   -0.6865   -0.8265 C.3     1  UNL1        0.0879
     14 O           3.0106    0.0342    0.1225 O.3     1  UNL1       -0.2837
     15 P           1.6688   -0.8290    0.6701 P.3     1  UNL1        0.4835
     16 O           1.4488   -0.5747    2.3252 O.3     1  UNL1       -0.3022
     17 O           1.8581   -2.3128    0.4415 O.2     1  UNL1       -0.2269
     18 O           0.2529   -0.3930   -0.1220 O.3     1  UNL1       -0.1861
     19 P          -0.6973    0.6660    0.7544 P.3     1  UNL1        0.4835
     20 O          -1.0100    2.0526   -0.1850 O.3     1  UNL1       -0.3022
     21 O           0.0341    1.0420    2.0185 O.2     1  UNL1       -0.2269
     22 O          -2.2351   -0.0046    1.0863 O.3     1  UNL1       -0.2837
     23 C          -2.9213   -0.0954   -0.0979 C.3     1  UNL1        0.0879
     24 C          -4.3064   -0.6786    0.0655 C.3     1  UNL1        0.1134
     25 O          -5.1065    0.0838    0.9190 O.3     1  UNL1       -0.3456
     26 C          -6.3787   -0.4684    0.6444 C.3     1  UNL1        0.1675
     27 C          -6.4293   -0.2126   -0.8653 C.3     1  UNL1        0.1433
     28 O          -7.3751   -0.9721   -1.5091 O.3     1  UNL1       -0.2762
     29 P          -8.4378   -0.0245   -2.4213 P.3     1  UNL1        0.4728
     30 O          -7.9308    1.5808   -2.5339 O.3     1  UNL1       -0.3026
     31 O          -8.5534   -0.6428   -3.9954 O.3     1  UNL1       -0.3026
     32 O          -9.8089   -0.1333   -1.8026 O.2     1  UNL1       -0.2275
     33 C          -5.0430   -0.7410   -1.2530 C.3     1  UNL1        0.1144
     34 O          -5.1676   -2.0521   -1.7115 O.3     1  UNL1       -0.3864
     35 N          -7.4354    0.1862    1.3504 N.ar    1  UNL1       -0.2855
     36 C          -7.5236    1.4949    1.5642 C.ar    1  UNL1        0.1004
     37 N          -8.6358    1.7806    2.2574 N.ar    1  UNL1       -0.2306
     38 C          -9.2757    0.6394    2.4950 C.ar    1  UNL1        0.1473
     39 C          -8.5287   -0.3755    1.9278 C.ar    1  UNL1        0.1674
     40 N          -8.9509   -1.6542    2.0196 N.ar    1  UNL1       -0.2159
     41 C         -10.1070   -1.9729    2.6642 C.ar    1  UNL1        0.1205
     42 N         -10.8565   -0.9906    3.2289 N.ar    1  UNL1       -0.2188
     43 C         -10.4548    0.3013    3.1508 C.ar    1  UNL1        0.1472
     44 N         -11.1692    1.3979    3.7088 N.pl3   1  UNL1       -0.3413
     45 C           5.8624   -0.6232   -2.1410 C.3     1  UNL1        0.1133
     46 O           5.3987   -0.8034   -3.4224 O.3     1  UNL1       -0.3864
     47 C           7.0902    0.2748   -2.0694 C.3     1  UNL1        0.1265
     48 O           6.9036    1.3106   -2.9836 O.3     1  UNL1       -0.3849
     49 H          13.4452    0.7295    1.0405 H       1  UNL1        0.1452
     50 H          13.4738    0.6933    1.0483 H       1  UNL1        0.1452
     51 H           9.5496    1.2291   -1.2538 H       1  UNL1        0.0788
     52 H           6.8050   -0.7093    1.5928 H       1  UNL1        0.0781
     53 H           8.8131   -1.5244    2.7608 H       1  UNL1        0.0588
     54 H          10.8192   -0.2378    2.4105 H       1  UNL1        0.0358
     55 H          10.7474   -1.6919    1.2784 H       1  UNL1        0.0358
     56 H           7.0085    1.9515   -0.7099 H       1  UNL1        0.0840
     57 H           4.5749    1.0439   -1.8235 H       1  UNL1        0.0647
     58 H           4.0774   -1.6707   -0.4534 H       1  UNL1        0.0592
     59 H           3.0458   -0.8166   -1.6976 H       1  UNL1        0.0592
     60 H           0.6986   -1.1090    2.6504 H       1  UNL1        0.2220
     61 H          -1.2198    1.7521   -1.1051 H       1  UNL1        0.2220
     62 H          -2.9980    0.8579   -0.6520 H       1  UNL1        0.0592
     63 H          -2.3774   -0.7900   -0.7783 H       1  UNL1        0.0592
     64 H          -4.2792   -1.7032    0.4873 H       1  UNL1        0.0647
     65 H          -6.3141   -1.5457    0.8537 H       1  UNL1        0.0867
     66 H          -6.5077    0.8607   -1.0376 H       1  UNL1        0.0674
     67 H          -8.3901    2.0720   -1.8094 H       1  UNL1        0.2220
     68 H          -8.6929    0.0715   -4.6718 H       1  UNL1        0.2220
     69 H          -4.5898   -0.0704   -2.0112 H       1  UNL1        0.0648
     70 H          -4.5613   -2.6619   -1.2128 H       1  UNL1        0.2100
     71 H          -6.8769    2.3147    1.2829 H       1  UNL1        0.1030
     72 H         -10.5009   -2.9742    2.7736 H       1  UNL1        0.1048
     73 H         -11.0494    1.9567    4.5887 H       1  UNL1        0.1438
     74 H         -11.9629    1.6612    3.0772 H       1  UNL1        0.1438
     75 H           6.1461   -1.5673   -1.6363 H       1  UNL1        0.0647
     76 H           4.9158   -1.6672   -3.4394 H       1  UNL1        0.2100
     77 H           8.0283   -0.2788   -2.2302 H       1  UNL1        0.0663
     78 H           6.3666    2.0432   -2.6100 H       1  UNL1        0.2101
@<TRIPOS>BOND
     1     1     2   am
     2     2     3    2
     3     2     4    1
     4     4     5    2
     5     5     6    1
     6     6     7    1
     7     7     8    2
     8     8     9    1
     9     6    10    1
    10    10    11    1
    11    11    12    1
    12    12    13    1
    13    13    14    1
    14    14    15    1
    15    15    16    1
    16    15    17    2
    17    15    18    1
    18    18    19    1
    19    19    20    1
    20    19    21    2
    21    19    22    1
    22    22    23    1
    23    23    24    1
    24    24    25    1
    25    25    26    1
    26    26    27    1
    27    27    28    1
    28    28    29    1
    29    29    30    1
    30    29    31    1
    31    29    32    2
    32    27    33    1
    33    33    34    1
    34    26    35    1
    35    35    36   ar
    36    36    37   ar
    37    37    38   ar
    38    38    39   ar
    39    39    40   ar
    40    40    41   ar
    41    41    42   ar
    42    42    43   ar
    43    43    44    1
    44    12    45    1
    45    45    46    1
    46    45    47    1
    47    47    48    1
    48     9     4    1
    49    47    10    1
    50    33    24    1
    51    39    35   ar
    52    43    38   ar
    53     1    49    1
    54     1    50    1
    55     5    51    1
    56     7    52    1
    57     8    53    1
    58     9    54    1
    59     9    55    1
    60    10    56    1
    61    12    57    1
    62    13    58    1
    63    13    59    1
    64    16    60    1
    65    20    61    1
    66    23    62    1
    67    23    63    1
    68    24    64    1
    69    26    65    1
    70    27    66    1
    71    30    67    1
    72    31    68    1
    73    33    69    1
    74    34    70    1
    75    36    71    1
    76    41    72    1
    77    44    73    1
    78    44    74    1
    79    45    75    1
    80    46    76    1
    81    47    77    1
    82    48    78    1
