
     RDKit          3D

 77 78  0  0  0  0  0  0  0  0999 V2000
   -6.8816   -0.1629   -3.1539 O   0  0  0  0  0  0  0  0  0  0  0  0
   -6.0284   -1.6122   -3.0831 S   0  0  0  0  0  0  0  0  0  0  0  0
   -6.9891   -2.7767   -3.0718 O   0  0  0  0  0  0  0  0  0  0  0  0
   -5.1968   -1.7899   -4.3403 O   0  0  0  0  0  0  0  0  0  0  0  0
   -4.9701   -1.6587   -1.7886 O   0  0  0  0  0  0  0  0  0  0  0  0
   -4.5876   -0.3886   -1.3682 C   0  0  0  0  0  0  0  0  0  0  0  0
   -3.6496   -0.5805   -0.2003 C   0  0  1  0  0  0  0  0  0  0  0  0
   -2.5724   -1.3017   -0.6045 O   0  0  0  0  0  0  0  0  0  0  0  0
   -1.4596   -0.9745    0.2170 C   0  0  1  0  0  0  0  0  0  0  0  0
   -1.3161   -2.2693    1.0520 C   0  0  0  0  0  0  0  0  0  0  0  0
   -2.5098   -2.4722    1.7650 O   0  0  0  0  0  0  0  0  0  0  0  0
   -2.4433   -3.8464    2.7282 S   0  0  0  0  0  0  0  0  0  0  0  0
   -1.2728   -4.8830    2.1259 O   0  0  0  0  0  0  0  0  0  0  0  0
   -3.7437   -4.5949    2.7433 O   0  0  0  0  0  0  0  0  0  0  0  0
   -2.1325   -3.4686    4.1570 O   0  0  0  0  0  0  0  0  0  0  0  0
   -0.4457   -0.8050   -0.6493 O   0  0  0  0  0  0  0  0  0  0  0  0
    0.8012   -0.4746   -0.2464 C   0  0  1  0  0  0  0  0  0  0  0  0
    1.7139   -1.4970   -0.5605 O   0  0  0  0  0  0  0  0  0  0  0  0
    2.9841   -1.2695   -0.1360 C   0  0  2  0  0  0  0  0  0  0  0  0
    3.2076   -1.1803    1.3341 C   0  0  0  0  0  0  0  0  0  0  0  0
    4.5916   -0.9505    1.5105 O   0  0  0  0  0  0  0  0  0  0  0  0
    4.9655   -0.8263    3.1406 S   0  0  0  0  0  0  0  0  0  0  0  0
    5.6197   -2.2462    3.7484 O   0  0  0  0  0  0  0  0  0  0  0  0
    3.7838   -0.4530    3.9572 O   0  0  0  0  0  0  0  0  0  0  0  0
    5.9991    0.2420    3.2977 O   0  0  0  0  0  0  0  0  0  0  0  0
    3.5780   -0.1134   -0.9016 C   0  0  1  0  0  0  0  0  0  0  0  0
    3.5953   -0.4693   -2.2497 O   0  0  0  0  0  0  0  0  0  0  0  0
    5.1453   -0.3790   -2.8882 S   0  0  0  0  0  0  0  0  0  0  0  0
    6.2191    0.1537   -1.7075 O   0  0  0  0  0  0  0  0  0  0  0  0
    5.5269   -1.7697   -3.3321 O   0  0  0  0  0  0  0  0  0  0  0  0
    5.1666    0.4891   -4.1057 O   0  0  0  0  0  0  0  0  0  0  0  0
    2.6768    1.1012   -0.7802 C   0  0  2  0  0  0  0  0  0  0  0  0
    2.8462    1.8084    0.3903 O   0  0  0  0  0  0  0  0  0  0  0  0
    3.4230    3.3562    0.0953 S   0  0  0  0  0  0  0  0  0  0  0  0
    4.8269    3.3210   -0.8107 O   0  0  0  0  0  0  0  0  0  0  0  0
    2.3933    4.1297   -0.6586 O   0  0  0  0  0  0  0  0  0  0  0  0
    3.7184    3.9650    1.4448 O   0  0  0  0  0  0  0  0  0  0  0  0
    1.2337    0.7334   -1.0374 C   0  0  1  0  0  0  0  0  0  0  0  0
    1.0450    0.4512   -2.4121 O   0  0  0  0  0  0  0  0  0  0  0  0
   -0.0357    1.5564   -3.0241 S   0  0  0  0  0  0  0  0  0  0  0  0
    0.6752    2.2798   -4.3677 O   0  0  0  0  0  0  0  0  0  0  0  0
   -1.3188    0.8783   -3.4272 O   0  0  0  0  0  0  0  0  0  0  0  0
   -0.3869    2.6494   -2.0566 O   0  0  0  0  0  0  0  0  0  0  0  0
   -1.8857    0.1452    1.0831 C   0  0  1  0  0  0  0  0  0  0  0  0
   -1.0030    1.1568    1.3172 O   0  0  0  0  0  0  0  0  0  0  0  0
   -0.9618    1.5425    2.9499 S   0  0  0  0  0  0  0  0  0  0  0  0
    0.5722    1.2685    3.5897 O   0  0  0  0  0  0  0  0  0  0  0  0
   -1.2936    2.9982    3.0858 O   0  0  0  0  0  0  0  0  0  0  0  0
   -1.9812    0.7673    3.7270 O   0  0  0  0  0  0  0  0  0  0  0  0
   -3.0497    0.7275    0.2657 C   0  0  2  0  0  0  0  0  0  0  0  0
   -3.9100    1.4460    1.0678 O   0  0  0  0  0  0  0  0  0  0  0  0
   -3.9823    3.0170    0.5187 S   0  0  0  0  0  0  0  0  0  0  0  0
   -5.2952    3.2969   -0.4868 O   0  0  0  0  0  0  0  0  0  0  0  0
   -2.7459    3.4411   -0.2136 O   0  0  0  0  0  0  0  0  0  0  0  0
   -4.1163    3.9406    1.7056 O   0  0  0  0  0  0  0  0  0  0  0  0
   -7.5034   -0.1902   -2.3613 H   0  0  0  0  0  0  0  0  0  0  0  0
   -5.4773    0.2072   -1.1089 H   0  0  0  0  0  0  0  0  0  0  0  0
   -4.0259    0.0705   -2.2016 H   0  0  0  0  0  0  0  0  0  0  0  0
   -4.2127   -1.0037    0.6456 H   0  0  0  0  0  0  0  0  0  0  0  0
   -0.5018   -2.2068    1.7743 H   0  0  0  0  0  0  0  0  0  0  0  0
   -1.2536   -3.1409    0.3660 H   0  0  0  0  0  0  0  0  0  0  0  0
   -1.6473   -5.5528    1.4975 H   0  0  0  0  0  0  0  0  0  0  0  0
    0.9441   -0.2868    0.8128 H   0  0  0  0  0  0  0  0  0  0  0  0
    3.5912   -2.1680   -0.4769 H   0  0  0  0  0  0  0  0  0  0  0  0
    2.9189   -2.1784    1.7694 H   0  0  0  0  0  0  0  0  0  0  0  0
    2.6399   -0.4284    1.8778 H   0  0  0  0  0  0  0  0  0  0  0  0
    5.7698   -2.9192    3.0439 H   0  0  0  0  0  0  0  0  0  0  0  0
    4.5895    0.1542   -0.5416 H   0  0  0  0  0  0  0  0  0  0  0  0
    6.5251   -0.6178   -1.1574 H   0  0  0  0  0  0  0  0  0  0  0  0
    2.9805    1.7848   -1.6022 H   0  0  0  0  0  0  0  0  0  0  0  0
    4.6644    3.1910   -1.7672 H   0  0  0  0  0  0  0  0  0  0  0  0
    0.5911    1.5781   -0.8054 H   0  0  0  0  0  0  0  0  0  0  0  0
    1.4873    1.8053   -4.6468 H   0  0  0  0  0  0  0  0  0  0  0  0
   -2.3942   -0.2101    2.0302 H   0  0  0  0  0  0  0  0  0  0  0  0
    0.9228    2.0369    4.0933 H   0  0  0  0  0  0  0  0  0  0  0  0
   -2.5958    1.3229   -0.5512 H   0  0  0  0  0  0  0  0  0  0  0  0
   -6.1559    3.1036   -0.0447 H   0  0  0  0  0  0  0  0  0  0  0  0
  1  2  1  0
  2  3  2  0
  2  4  2  0
  2  5  1  0
  5  6  1  0
  6  7  1  0
  7  8  1  0
  8  9  1  0
  9 10  1  0
 10 11  1  0
 11 12  1  0
 12 13  1  0
 12 14  2  0
 12 15  2  0
  9 16  1  6
 16 17  1  0
 17 18  1  0
 18 19  1  0
 19 20  1  0
 20 21  1  0
 21 22  1  0
 22 23  1  0
 22 24  2  0
 22 25  2  0
 19 26  1  0
 26 27  1  0
 27 28  1  0
 28 29  1  0
 28 30  2  0
 28 31  2  0
 26 32  1  0
 32 33  1  0
 33 34  1  0
 34 35  1  0
 34 36  2  0
 34 37  2  0
 32 38  1  0
 38 39  1  0
 39 40  1  0
 40 41  1  0
 40 42  2  0
 40 43  2  0
  9 44  1  0
 44 45  1  0
 45 46  1  0
 46 47  1  0
 46 48  2  0
 46 49  2  0
 44 50  1  0
 50 51  1  0
 51 52  1  0
 52 53  1  0
 52 54  2  0
 52 55  2  0
 50  7  1  0
 38 17  1  0
  1 56  1  0
  6 57  1  0
  6 58  1  0
  7 59  1  1
 10 60  1  0
 10 61  1  0
 13 62  1  0
 17 63  1  1
 19 64  1  6
 20 65  1  0
 20 66  1  0
 23 67  1  0
 26 68  1  1
 29 69  1  0
 32 70  1  6
 35 71  1  0
 38 72  1  1
 41 73  1  0
 44 74  1  1
 47 75  1  0
 50 76  1  6
 53 77  1  0
M  END
$$$$
