@<TRIPOS>MOLECULE
*****
 77 78 0 0 0
SMALL
GASTEIGER

@<TRIPOS>ATOM
      1 O          -6.8816   -0.1629   -3.1539 O.3     1  UNL1       -0.2311
      2 S          -6.0284   -1.6122   -3.0831 S.O2    1  UNL1        0.2076
      3 O          -6.9891   -2.7767   -3.0718 O.2     1  UNL1       -0.1181
      4 O          -5.1968   -1.7899   -4.3403 O.2     1  UNL1       -0.1181
      5 O          -4.9701   -1.6587   -1.7886 O.3     1  UNL1       -0.2131
      6 C          -4.5876   -0.3886   -1.3682 C.3     1  UNL1        0.1077
      7 C          -3.6496   -0.5805   -0.2003 C.3     1  UNL1        0.1188
      8 O          -2.5724   -1.3017   -0.6045 O.3     1  UNL1       -0.3359
      9 C          -1.4596   -0.9745    0.2170 C.3     1  UNL1        0.2306
     10 C          -1.3161   -2.2693    1.0520 C.3     1  UNL1        0.1355
     11 O          -2.5098   -2.4722    1.7650 O.3     1  UNL1       -0.2103
     12 S          -2.4433   -3.8464    2.7282 S.O2    1  UNL1        0.2077
     13 O          -1.2728   -4.8830    2.1259 O.3     1  UNL1       -0.2311
     14 O          -3.7437   -4.5949    2.7433 O.2     1  UNL1       -0.1181
     15 O          -2.1325   -3.4686    4.1570 O.2     1  UNL1       -0.1181
     16 O          -0.4457   -0.8050   -0.6493 O.3     1  UNL1       -0.3122
     17 C           0.8012   -0.4746   -0.2464 C.3     1  UNL1        0.1940
     18 O           1.7139   -1.4970   -0.5605 O.3     1  UNL1       -0.3401
     19 C           2.9841   -1.2695   -0.1360 C.3     1  UNL1        0.1183
     20 C           3.2076   -1.1803    1.3341 C.3     1  UNL1        0.1077
     21 O           4.5916   -0.9505    1.5105 O.3     1  UNL1       -0.2131
     22 S           4.9655   -0.8263    3.1406 S.O2    1  UNL1        0.2076
     23 O           5.6197   -2.2462    3.7484 O.3     1  UNL1       -0.2311
     24 O           3.7838   -0.4530    3.9572 O.2     1  UNL1       -0.1181
     25 O           5.9991    0.2420    3.2977 O.2     1  UNL1       -0.1181
     26 C           3.5780   -0.1134   -0.9016 C.3     1  UNL1        0.1490
     27 O           3.5953   -0.4693   -2.2497 O.3     1  UNL1       -0.2070
     28 S           5.1453   -0.3790   -2.8882 S.O2    1  UNL1        0.2079
     29 O           6.2191    0.1537   -1.7075 O.3     1  UNL1       -0.2311
     30 O           5.5269   -1.7697   -3.3321 O.2     1  UNL1       -0.1181
     31 O           5.1666    0.4891   -4.1057 O.2     1  UNL1       -0.1181
     32 C           2.6768    1.1012   -0.7802 C.3     1  UNL1        0.1537
     33 O           2.8462    1.8084    0.3903 O.3     1  UNL1       -0.2068
     34 S           3.4230    3.3562    0.0953 S.O2    1  UNL1        0.2079
     35 O           4.8269    3.3210   -0.8107 O.3     1  UNL1       -0.2311
     36 O           2.3933    4.1297   -0.6586 O.2     1  UNL1       -0.1181
     37 O           3.7184    3.9650    1.4448 O.2     1  UNL1       -0.1181
     38 C           1.2337    0.7334   -1.0374 C.3     1  UNL1        0.1712
     39 O           1.0450    0.4512   -2.4121 O.3     1  UNL1       -0.2046
     40 S          -0.0357    1.5564   -3.0241 S.O2    1  UNL1        0.2080
     41 O           0.6752    2.2798   -4.3677 O.3     1  UNL1       -0.2311
     42 O          -1.3188    0.8783   -3.4272 O.2     1  UNL1       -0.1181
     43 O          -0.3869    2.6494   -2.0566 O.2     1  UNL1       -0.1181
     44 C          -1.8857    0.1452    1.0831 C.3     1  UNL1        0.1764
     45 O          -1.0030    1.1568    1.3172 O.3     1  UNL1       -0.2042
     46 S          -0.9618    1.5425    2.9499 S.O2    1  UNL1        0.2080
     47 O           0.5722    1.2685    3.5897 O.3     1  UNL1       -0.2311
     48 O          -1.2936    2.9982    3.0858 O.2     1  UNL1       -0.1181
     49 O          -1.9812    0.7673    3.7270 O.2     1  UNL1       -0.1181
     50 C          -3.0497    0.7275    0.2657 C.3     1  UNL1        0.1515
     51 O          -3.9100    1.4460    1.0678 O.3     1  UNL1       -0.2069
     52 S          -3.9823    3.0170    0.5187 S.O2    1  UNL1        0.2079
     53 O          -5.2952    3.2969   -0.4868 O.3     1  UNL1       -0.2311
     54 O          -2.7459    3.4411   -0.2136 O.2     1  UNL1       -0.1181
     55 O          -4.1163    3.9406    1.7056 O.2     1  UNL1       -0.1181
     56 H          -7.5034   -0.1902   -2.3613 H       1  UNL1        0.2469
     57 H          -5.4773    0.2072   -1.1089 H       1  UNL1        0.0611
     58 H          -4.0259    0.0705   -2.2016 H       1  UNL1        0.0611
     59 H          -4.2127   -1.0037    0.6456 H       1  UNL1        0.0649
     60 H          -0.5018   -2.2068    1.7743 H       1  UNL1        0.0640
     61 H          -1.2536   -3.1409    0.3660 H       1  UNL1        0.0640
     62 H          -1.6473   -5.5528    1.4975 H       1  UNL1        0.2469
     63 H           0.9441   -0.2868    0.8128 H       1  UNL1        0.0939
     64 H           3.5912   -2.1680   -0.4769 H       1  UNL1        0.0648
     65 H           2.9189   -2.1784    1.7694 H       1  UNL1        0.0611
     66 H           2.6399   -0.4284    1.8778 H       1  UNL1        0.0611
     67 H           5.7698   -2.9192    3.0439 H       1  UNL1        0.2469
     68 H           4.5895    0.1542   -0.5416 H       1  UNL1        0.0676
     69 H           6.5251   -0.6178   -1.1574 H       1  UNL1        0.2469
     70 H           2.9805    1.7848   -1.6022 H       1  UNL1        0.0677
     71 H           4.6644    3.1910   -1.7672 H       1  UNL1        0.2469
     72 H           0.5911    1.5781   -0.8054 H       1  UNL1        0.0700
     73 H           1.4873    1.8053   -4.6468 H       1  UNL1        0.2469
     74 H          -2.3942   -0.2101    2.0302 H       1  UNL1        0.0704
     75 H           0.9228    2.0369    4.0933 H       1  UNL1        0.2469
     76 H          -2.5958    1.3229   -0.5512 H       1  UNL1        0.0677
     77 H          -6.1559    3.1036   -0.0447 H       1  UNL1        0.2469
@<TRIPOS>BOND
     1     1     2    1
     2     2     3    2
     3     2     4    2
     4     2     5    1
     5     5     6    1
     6     6     7    1
     7     7     8    1
     8     8     9    1
     9     9    10    1
    10    10    11    1
    11    11    12    1
    12    12    13    1
    13    12    14    2
    14    12    15    2
    15     9    16    1
    16    16    17    1
    17    17    18    1
    18    18    19    1
    19    19    20    1
    20    20    21    1
    21    21    22    1
    22    22    23    1
    23    22    24    2
    24    22    25    2
    25    19    26    1
    26    26    27    1
    27    27    28    1
    28    28    29    1
    29    28    30    2
    30    28    31    2
    31    26    32    1
    32    32    33    1
    33    33    34    1
    34    34    35    1
    35    34    36    2
    36    34    37    2
    37    32    38    1
    38    38    39    1
    39    39    40    1
    40    40    41    1
    41    40    42    2
    42    40    43    2
    43     9    44    1
    44    44    45    1
    45    45    46    1
    46    46    47    1
    47    46    48    2
    48    46    49    2
    49    44    50    1
    50    50    51    1
    51    51    52    1
    52    52    53    1
    53    52    54    2
    54    52    55    2
    55    50     7    1
    56    38    17    1
    57     1    56    1
    58     6    57    1
    59     6    58    1
    60     7    59    1
    61    10    60    1
    62    10    61    1
    63    13    62    1
    64    17    63    1
    65    19    64    1
    66    20    65    1
    67    20    66    1
    68    23    67    1
    69    26    68    1
    70    29    69    1
    71    32    70    1
    72    35    71    1
    73    38    72    1
    74    41    73    1
    75    44    74    1
    76    47    75    1
    77    50    76    1
    78    53    77    1
