
     RDKit          3D

 36 39  0  0  0  0  0  0  0  0999 V2000
   -0.2942    0.3688    0.9514 O   0  0  0  0  0  0  0  0  0  0  0  0
    0.1244    0.1598   -0.2066 C   0  0  0  0  0  0  0  0  0  0  0  0
   -0.7676    0.3534   -1.4021 C   0  0  0  0  0  0  0  0  0  0  0  0
   -2.1062    0.8043   -0.8897 C   0  0  0  0  0  0  0  0  0  0  0  0
   -2.5044    2.1222   -0.9612 C   0  0  0  0  0  0  0  0  0  0  0  0
   -3.7326    2.5396   -0.4787 C   0  0  0  0  0  0  0  0  0  0  0  0
   -4.5804    1.6120    0.0885 C   0  0  0  0  0  0  0  0  0  0  0  0
   -4.2140    0.2790    0.1770 C   0  0  0  0  0  0  0  0  0  0  0  0
   -5.0616   -0.6482    0.7436 C   0  0  0  0  0  0  0  0  0  0  0  0
   -4.6812   -1.9269    0.8144 N   0  0  0  0  0  0  0  0  0  0  0  0
   -3.4924   -2.3406    0.3487 C   0  0  0  0  0  0  0  0  0  0  0  0
   -2.6127   -1.4261   -0.2298 C   0  0  0  0  0  0  0  0  0  0  0  0
   -2.9782   -0.1076   -0.3150 C   0  0  0  0  0  0  0  0  0  0  0  0
    1.4920   -0.2761   -0.4042 N   0  0  0  0  0  0  0  0  0  0  0  0
    2.2908   -0.4450    0.7255 C   0  0  0  0  0  0  0  0  0  0  0  0
    1.5146   -0.6641    2.3996 S   0  0  0  0  0  0  0  0  0  0  0  0
    3.1341   -0.8280    3.2392 C   0  0  0  0  0  0  0  0  0  0  0  0
    3.9422   -0.7072    2.2590 N   0  0  0  0  0  0  0  0  0  0  0  0
    3.6119   -0.5188    1.0200 C   0  0  0  0  0  0  0  0  0  0  0  0
    4.6751   -0.2807   -0.0392 C   0  0  0  0  0  0  0  0  0  0  0  0
    4.3854    0.1300   -1.3547 C   0  0  0  0  0  0  0  0  0  0  0  0
    6.0667    0.3320   -2.1183 S   0  0  0  0  0  0  0  0  0  0  0  0
    6.9047   -0.1784   -0.5076 C   0  0  0  0  0  0  0  0  0  0  0  0
    5.9631   -0.3632    0.1515 N   0  0  0  0  0  0  0  0  0  0  0  0
   -0.8630   -0.5822   -1.9932 H   0  0  0  0  0  0  0  0  0  0  0  0
   -0.3657    1.1240   -2.0886 H   0  0  0  0  0  0  0  0  0  0  0  0
   -1.8448    2.8559   -1.4058 H   0  0  0  0  0  0  0  0  0  0  0  0
   -4.0737    3.5633   -0.5183 H   0  0  0  0  0  0  0  0  0  0  0  0
   -5.5529    1.9368    0.4738 H   0  0  0  0  0  0  0  0  0  0  0  0
   -6.0072   -0.3368    1.1179 H   0  0  0  0  0  0  0  0  0  0  0  0
   -3.2407   -3.3946    0.4344 H   0  0  0  0  0  0  0  0  0  0  0  0
   -1.6826   -1.8221   -0.5807 H   0  0  0  0  0  0  0  0  0  0  0  0
    1.7763   -0.4801   -1.3667 H   0  0  0  0  0  0  0  0  0  0  0  0
    3.2315   -0.9853    4.3108 H   0  0  0  0  0  0  0  0  0  0  0  0
    3.5296    0.3197   -1.8563 H   0  0  0  0  0  0  0  0  0  0  0  0
    8.0137   -0.1889   -0.5387 H   0  0  0  0  0  0  0  0  0  0  0  0
  1  2  2  0
  2  3  1  0
  3  4  1  0
  4  5  2  0
  5  6  1  0
  6  7  2  0
  7  8  1  0
  8  9  2  0
  9 10  1  0
 10 11  2  0
 11 12  1  0
 12 13  2  0
  2 14  1  0
 14 15  1  0
 15 16  1  0
 16 17  1  0
 17 18  2  0
 18 19  1  0
 19 20  1  0
 20 21  2  0
 21 22  1  0
 22 23  1  0
 23 24  2  0
 13  4  1  0
 19 15  2  0
 24 20  1  0
 13  8  1  0
  3 25  1  0
  3 26  1  0
  5 27  1  0
  6 28  1  0
  7 29  1  0
  9 30  1  0
 11 31  1  0
 12 32  1  0
 14 33  1  0
 17 34  1  0
 21 35  1  0
 23 36  1  0
M  END
$$$$
