@<TRIPOS>MOLECULE
*****
 36 39 0 0 0
SMALL
GASTEIGER

@<TRIPOS>ATOM
      1 O          -0.2942    0.3688    0.9514 O.2     1  UNL1       -0.2751
      2 C           0.1244    0.1598   -0.2066 C.2     1  UNL1        0.2220
      3 C          -0.7676    0.3534   -1.4021 C.3     1  UNL1        0.0500
      4 C          -2.1062    0.8043   -0.8897 C.ar    1  UNL1       -0.0308
      5 C          -2.5044    2.1222   -0.9612 C.ar    1  UNL1       -0.0575
      6 C          -3.7326    2.5396   -0.4787 C.ar    1  UNL1       -0.0609
      7 C          -4.5804    1.6120    0.0885 C.ar    1  UNL1       -0.0526
      8 C          -4.2140    0.2790    0.1770 C.ar    1  UNL1        0.0005
      9 C          -5.0616   -0.6482    0.7436 C.ar    1  UNL1        0.0353
     10 N          -4.6812   -1.9269    0.8144 N.ar    1  UNL1       -0.2626
     11 C          -3.4924   -2.3406    0.3487 C.ar    1  UNL1        0.0282
     12 C          -2.6127   -1.4261   -0.2298 C.ar    1  UNL1       -0.0356
     13 C          -2.9782   -0.1076   -0.3150 C.ar    1  UNL1       -0.0114
     14 N           1.4920   -0.2761   -0.4042 N.am    1  UNL1       -0.2780
     15 C           2.2908   -0.4450    0.7255 C.ar    1  UNL1        0.1009
     16 S           1.5146   -0.6641    2.3996 S.2     1  UNL1       -0.0600
     17 C           3.1341   -0.8280    3.2392 C.ar    1  UNL1        0.0672
     18 N           3.9422   -0.7072    2.2590 N.ar    1  UNL1       -0.2439
     19 C           3.6119   -0.5188    1.0200 C.ar    1  UNL1        0.1182
     20 C           4.6751   -0.2807   -0.0392 C.ar    1  UNL1        0.0986
     21 C           4.3854    0.1300   -1.3547 C.ar    1  UNL1        0.0047
     22 S           6.0667    0.3320   -2.1183 S.2     1  UNL1       -0.0832
     23 C           6.9047   -0.1784   -0.5076 C.ar    1  UNL1        0.0654
     24 N           5.9631   -0.3632    0.1515 N.ar    1  UNL1       -0.2458
     25 H          -0.8630   -0.5822   -1.9932 H       1  UNL1        0.0407
     26 H          -0.3657    1.1240   -2.0886 H       1  UNL1        0.0407
     27 H          -1.8448    2.8559   -1.4058 H       1  UNL1        0.0621
     28 H          -4.0737    3.5633   -0.5183 H       1  UNL1        0.0618
     29 H          -5.5529    1.9368    0.4738 H       1  UNL1        0.0624
     30 H          -6.0072   -0.3368    1.1179 H       1  UNL1        0.0836
     31 H          -3.2407   -3.3946    0.4344 H       1  UNL1        0.0830
     32 H          -1.6826   -1.8221   -0.5807 H       1  UNL1        0.0639
     33 H           1.7763   -0.4801   -1.3667 H       1  UNL1        0.1554
     34 H           3.2315   -0.9853    4.3108 H       1  UNL1        0.0908
     35 H           3.5296    0.3197   -1.8563 H       1  UNL1        0.0716
     36 H           8.0137   -0.1889   -0.5387 H       1  UNL1        0.0907
@<TRIPOS>BOND
     1     1     2    2
     2     2     3    1
     3     3     4    1
     4     4     5   ar
     5     5     6   ar
     6     6     7   ar
     7     7     8   ar
     8     8     9   ar
     9     9    10   ar
    10    10    11   ar
    11    11    12   ar
    12    12    13   ar
    13     2    14   am
    14    14    15    1
    15    15    16   ar
    16    16    17   ar
    17    17    18   ar
    18    18    19   ar
    19    19    20    1
    20    20    21   ar
    21    21    22   ar
    22    22    23   ar
    23    23    24   ar
    24    13     4   ar
    25    19    15   ar
    26    24    20   ar
    27    13     8   ar
    28     3    25    1
    29     3    26    1
    30     5    27    1
    31     6    28    1
    32     7    29    1
    33     9    30    1
    34    11    31    1
    35    12    32    1
    36    14    33    1
    37    17    34    1
    38    21    35    1
    39    23    36    1
