@<TRIPOS>MOLECULE
*****
 59 63 0 0 0
SMALL
GASTEIGER

@<TRIPOS>ATOM
      1 C           0.7718   -1.9390   -2.0306 C.3     1  UNL1        0.0165
      2 C           1.1307   -2.9031   -3.1436 C.3     1  UNL1       -0.0358
      3 C           0.9215   -4.2353   -2.4472 C.3     1  UNL1       -0.0387
      4 C           1.3259   -3.9771   -1.0219 C.3     1  UNL1       -0.0002
      5 N           1.4347   -2.5623   -0.8970 N.3     1  UNL1       -0.2914
      6 C           0.6801   -2.0541    0.2682 C.3     1  UNL1        0.0473
      7 C           1.3082   -0.8377    0.6728 C.ar    1  UNL1       -0.0295
      8 C           0.7357    0.3573    1.0137 C.ar    1  UNL1       -0.0567
      9 C           1.4142    1.5077    1.3996 C.ar    1  UNL1       -0.0555
     10 C           2.7972    1.4321    1.4412 C.ar    1  UNL1       -0.0166
     11 C           3.4298    0.2390    1.1036 C.ar    1  UNL1       -0.0555
     12 C           2.7122   -0.8821    0.7250 C.ar    1  UNL1       -0.0567
     13 C           3.5305    2.6616    1.8540 C.3     1  UNL1        0.0799
     14 N           2.9036    3.7555    1.1209 N.3     1  UNL1       -0.3120
     15 N           3.5500    2.8857    3.2635 N.3     1  UNL1       -0.3120
     16 C          -0.6556   -2.2004   -0.1943 C.3     1  UNL1        0.0615
     17 C          -1.7810   -1.4346    0.2722 C.2     1  UNL1        0.2216
     18 O          -2.1789   -1.6126    1.4741 O.2     1  UNL1       -0.2752
     19 N          -2.2811   -0.5558   -0.7651 N.am    1  UNL1       -0.2881
     20 C          -3.4897    0.2124   -0.5306 C.3     1  UNL1        0.0402
     21 C          -3.2357    1.5470    0.0731 C.ar    1  UNL1       -0.0299
     22 C          -3.2229    1.6180    1.4619 C.ar    1  UNL1       -0.0544
     23 C          -2.9992    2.7936    2.1509 C.ar    1  UNL1       -0.0261
     24 C          -2.7756    3.9651    1.4638 C.ar    1  UNL1        0.1234
     25 F          -2.5545    5.1274    2.1251 F       1  UNL1       -0.2055
     26 C          -2.7862    3.9056    0.0967 C.ar    1  UNL1       -0.0261
     27 C          -3.0089    2.7349   -0.5943 C.ar    1  UNL1       -0.0544
     28 C          -1.4024   -0.6482   -1.8788 C.3     1  UNL1        0.0916
     29 C          -2.0356   -0.5773   -3.2384 C.3     1  UNL1        0.2578
     30 F          -2.7028    0.6220   -3.4010 F       1  UNL1       -0.2072
     31 F          -2.7799   -1.6587   -3.5911 F       1  UNL1       -0.2072
     32 C          -0.6975   -1.9605   -1.6981 C.3     1  UNL1        0.0114
     33 H           1.1865   -0.9391   -2.1805 H       1  UNL1        0.0466
     34 H           0.5210   -2.8069   -4.0399 H       1  UNL1        0.0281
     35 H           2.2225   -2.8020   -3.3032 H       1  UNL1        0.0281
     36 H          -0.1390   -4.4901   -2.4993 H       1  UNL1        0.0278
     37 H           1.5752   -4.9830   -2.9384 H       1  UNL1        0.0278
     38 H           0.6841   -4.4789   -0.2880 H       1  UNL1        0.0427
     39 H           2.3424   -4.4467   -0.8870 H       1  UNL1        0.0427
     40 H           0.9264   -2.8225    1.0613 H       1  UNL1        0.0520
     41 H          -0.3195    0.4109    0.9810 H       1  UNL1        0.0621
     42 H           0.8603    2.4077    1.6506 H       1  UNL1        0.0621
     43 H           4.5120    0.2133    1.1464 H       1  UNL1        0.0621
     44 H           3.2978   -1.7640    0.4810 H       1  UNL1        0.0621
     45 H           4.5929    2.6378    1.4900 H       1  UNL1        0.0676
     46 H           3.1993    3.7741    0.1283 H       1  UNL1        0.1199
     47 H           3.1017    4.6112    1.6474 H       1  UNL1        0.1199
     48 H           3.1849    2.1230    3.8438 H       1  UNL1        0.1199
     49 H           4.4401    3.3073    3.5498 H       1  UNL1        0.1199
     50 H          -0.9614   -3.2865   -0.0919 H       1  UNL1        0.0417
     51 H          -4.0878    0.3175   -1.4835 H       1  UNL1        0.0514
     52 H          -4.1942   -0.3303    0.1336 H       1  UNL1        0.0514
     53 H          -3.3843    0.7730    2.1191 H       1  UNL1        0.0622
     54 H          -2.9866    2.8630    3.2306 H       1  UNL1        0.0646
     55 H          -2.6106    4.8254   -0.4563 H       1  UNL1        0.0646
     56 H          -3.0212    2.6677   -1.6697 H       1  UNL1        0.0622
     57 H          -0.6102    0.1530   -1.8833 H       1  UNL1        0.0560
     58 H          -1.1851   -0.5170   -3.9627 H       1  UNL1        0.1037
     59 H          -1.2057   -2.7439   -2.2640 H       1  UNL1        0.0344
@<TRIPOS>BOND
     1     1     2    1
     2     2     3    1
     3     3     4    1
     4     4     5    1
     5     5     6    1
     6     6     7    1
     7     7     8   ar
     8     8     9   ar
     9     9    10   ar
    10    10    11   ar
    11    11    12   ar
    12    10    13    1
    13    13    14    1
    14    13    15    1
    15     6    16    1
    16    16    17    1
    17    17    18    2
    18    17    19   am
    19    19    20    1
    20    20    21    1
    21    21    22   ar
    22    22    23   ar
    23    23    24   ar
    24    24    25    1
    25    24    26   ar
    26    26    27   ar
    27    19    28    1
    28    28    29    1
    29    29    30    1
    30    29    31    1
    31    28    32    1
    32     5     1    1
    33    12     7   ar
    34    32    16    1
    35    32     1    1
    36    27    21   ar
    37     1    33    1
    38     2    34    1
    39     2    35    1
    40     3    36    1
    41     3    37    1
    42     4    38    1
    43     4    39    1
    44     6    40    1
    45     8    41    1
    46     9    42    1
    47    11    43    1
    48    12    44    1
    49    13    45    1
    50    14    46    1
    51    14    47    1
    52    15    48    1
    53    15    49    1
    54    16    50    1
    55    20    51    1
    56    20    52    1
    57    22    53    1
    58    23    54    1
    59    26    55    1
    60    27    56    1
    61    28    57    1
    62    29    58    1
    63    32    59    1
