
     RDKit          3D

 59 63  0  0  0  0  0  0  0  0999 V2000
    0.7718   -1.9390   -2.0306 C   0  0  2  0  0  0  0  0  0  0  0  0
    1.1307   -2.9031   -3.1436 C   0  0  0  0  0  0  0  0  0  0  0  0
    0.9215   -4.2353   -2.4472 C   0  0  0  0  0  0  0  0  0  0  0  0
    1.3259   -3.9771   -1.0219 C   0  0  0  0  0  0  0  0  0  0  0  0
    1.4347   -2.5623   -0.8970 N   0  0  0  0  0  0  0  0  0  0  0  0
    0.6801   -2.0541    0.2682 C   0  0  1  0  0  0  0  0  0  0  0  0
    1.3082   -0.8377    0.6728 C   0  0  0  0  0  0  0  0  0  0  0  0
    0.7357    0.3573    1.0137 C   0  0  0  0  0  0  0  0  0  0  0  0
    1.4142    1.5077    1.3996 C   0  0  0  0  0  0  0  0  0  0  0  0
    2.7972    1.4321    1.4412 C   0  0  0  0  0  0  0  0  0  0  0  0
    3.4298    0.2390    1.1036 C   0  0  0  0  0  0  0  0  0  0  0  0
    2.7122   -0.8821    0.7250 C   0  0  0  0  0  0  0  0  0  0  0  0
    3.5305    2.6616    1.8540 C   0  0  0  0  0  0  0  0  0  0  0  0
    2.9036    3.7555    1.1209 N   0  0  0  0  0  0  0  0  0  0  0  0
    3.5500    2.8857    3.2635 N   0  0  0  0  0  0  0  0  0  0  0  0
   -0.6556   -2.2004   -0.1943 C   0  0  1  0  0  0  0  0  0  0  0  0
   -1.7810   -1.4346    0.2722 C   0  0  0  0  0  0  0  0  0  0  0  0
   -2.1789   -1.6126    1.4741 O   0  0  0  0  0  0  0  0  0  0  0  0
   -2.2811   -0.5558   -0.7651 N   0  0  0  0  0  0  0  0  0  0  0  0
   -3.4897    0.2124   -0.5306 C   0  0  0  0  0  0  0  0  0  0  0  0
   -3.2357    1.5470    0.0731 C   0  0  0  0  0  0  0  0  0  0  0  0
   -3.2229    1.6180    1.4619 C   0  0  0  0  0  0  0  0  0  0  0  0
   -2.9992    2.7936    2.1509 C   0  0  0  0  0  0  0  0  0  0  0  0
   -2.7756    3.9651    1.4638 C   0  0  0  0  0  0  0  0  0  0  0  0
   -2.5545    5.1274    2.1251 F   0  0  0  0  0  0  0  0  0  0  0  0
   -2.7862    3.9056    0.0967 C   0  0  0  0  0  0  0  0  0  0  0  0
   -3.0089    2.7349   -0.5943 C   0  0  0  0  0  0  0  0  0  0  0  0
   -1.4024   -0.6482   -1.8788 C   0  0  2  0  0  0  0  0  0  0  0  0
   -2.0356   -0.5773   -3.2384 C   0  0  0  0  0  0  0  0  0  0  0  0
   -2.7028    0.6220   -3.4010 F   0  0  0  0  0  0  0  0  0  0  0  0
   -2.7799   -1.6587   -3.5911 F   0  0  0  0  0  0  0  0  0  0  0  0
   -0.6975   -1.9605   -1.6981 C   0  0  1  0  0  0  0  0  0  0  0  0
    1.1865   -0.9391   -2.1805 H   0  0  0  0  0  0  0  0  0  0  0  0
    0.5210   -2.8069   -4.0399 H   0  0  0  0  0  0  0  0  0  0  0  0
    2.2225   -2.8020   -3.3032 H   0  0  0  0  0  0  0  0  0  0  0  0
   -0.1390   -4.4901   -2.4993 H   0  0  0  0  0  0  0  0  0  0  0  0
    1.5752   -4.9830   -2.9384 H   0  0  0  0  0  0  0  0  0  0  0  0
    0.6841   -4.4789   -0.2880 H   0  0  0  0  0  0  0  0  0  0  0  0
    2.3424   -4.4467   -0.8870 H   0  0  0  0  0  0  0  0  0  0  0  0
    0.9264   -2.8225    1.0613 H   0  0  0  0  0  0  0  0  0  0  0  0
   -0.3195    0.4109    0.9810 H   0  0  0  0  0  0  0  0  0  0  0  0
    0.8603    2.4077    1.6506 H   0  0  0  0  0  0  0  0  0  0  0  0
    4.5120    0.2133    1.1464 H   0  0  0  0  0  0  0  0  0  0  0  0
    3.2978   -1.7640    0.4810 H   0  0  0  0  0  0  0  0  0  0  0  0
    4.5929    2.6378    1.4900 H   0  0  0  0  0  0  0  0  0  0  0  0
    3.1993    3.7741    0.1283 H   0  0  0  0  0  0  0  0  0  0  0  0
    3.1017    4.6112    1.6474 H   0  0  0  0  0  0  0  0  0  0  0  0
    3.1849    2.1230    3.8438 H   0  0  0  0  0  0  0  0  0  0  0  0
    4.4401    3.3073    3.5498 H   0  0  0  0  0  0  0  0  0  0  0  0
   -0.9614   -3.2865   -0.0919 H   0  0  0  0  0  0  0  0  0  0  0  0
   -4.0878    0.3175   -1.4835 H   0  0  0  0  0  0  0  0  0  0  0  0
   -4.1942   -0.3303    0.1336 H   0  0  0  0  0  0  0  0  0  0  0  0
   -3.3843    0.7730    2.1191 H   0  0  0  0  0  0  0  0  0  0  0  0
   -2.9866    2.8630    3.2306 H   0  0  0  0  0  0  0  0  0  0  0  0
   -2.6106    4.8254   -0.4563 H   0  0  0  0  0  0  0  0  0  0  0  0
   -3.0212    2.6677   -1.6697 H   0  0  0  0  0  0  0  0  0  0  0  0
   -0.6102    0.1530   -1.8833 H   0  0  0  0  0  0  0  0  0  0  0  0
   -1.1851   -0.5170   -3.9627 H   0  0  0  0  0  0  0  0  0  0  0  0
   -1.2057   -2.7439   -2.2640 H   0  0  0  0  0  0  0  0  0  0  0  0
  1  2  1  0
  2  3  1  0
  3  4  1  0
  4  5  1  0
  5  6  1  0
  6  7  1  0
  7  8  2  0
  8  9  1  0
  9 10  2  0
 10 11  1  0
 11 12  2  0
 10 13  1  0
 13 14  1  0
 13 15  1  0
  6 16  1  0
 16 17  1  0
 17 18  2  0
 17 19  1  0
 19 20  1  0
 20 21  1  0
 21 22  2  0
 22 23  1  0
 23 24  2  0
 24 25  1  0
 24 26  1  0
 26 27  2  0
 19 28  1  0
 28 29  1  0
 29 30  1  0
 29 31  1  0
 28 32  1  0
  5  1  1  0
 12  7  1  0
 32 16  1  0
 32  1  1  0
 27 21  1  0
  1 33  1  6
  2 34  1  0
  2 35  1  0
  3 36  1  0
  3 37  1  0
  4 38  1  0
  4 39  1  0
  6 40  1  1
  8 41  1  0
  9 42  1  0
 11 43  1  0
 12 44  1  0
 13 45  1  0
 14 46  1  0
 14 47  1  0
 15 48  1  0
 15 49  1  0
 16 50  1  6
 20 51  1  0
 20 52  1  0
 22 53  1  0
 23 54  1  0
 26 55  1  0
 27 56  1  0
 28 57  1  1
 29 58  1  0
 32 59  1  6
M  END
$$$$
