@<TRIPOS>MOLECULE
*****
 55 56 0 0 0
SMALL
GASTEIGER

@<TRIPOS>ATOM
      1 C          -2.6413   -1.4678    1.4951 C.3     1  UNL1       -0.0497
      2 C          -2.9275   -0.0261    1.1592 C.3     1  UNL1        0.0050
      3 C          -2.6677    0.8368    2.3805 C.3     1  UNL1       -0.0497
      4 N          -2.4321    0.4915   -0.0350 N.3     1  UNL1       -0.2975
      5 C          -1.0893    0.5728   -0.3627 C.3     1  UNL1        0.0003
      6 C          -0.4052   -0.7130   -0.6621 C.3     1  UNL1       -0.0292
      7 C           1.0662   -0.5265   -1.0013 C.3     1  UNL1        0.0138
      8 C           1.7603   -1.8013   -1.3060 C.ar    1  UNL1       -0.0398
      9 C           3.0331   -1.9688   -0.7978 C.ar    1  UNL1       -0.0580
     10 C           3.7831   -3.1237   -1.0259 C.ar    1  UNL1       -0.0615
     11 C           3.2404   -4.1519   -1.7918 C.ar    1  UNL1       -0.0617
     12 C           1.9672   -3.9766   -2.2960 C.ar    1  UNL1       -0.0615
     13 C           1.2435   -2.8208   -2.0552 C.ar    1  UNL1       -0.0580
     14 C           1.7629    0.2246    0.0819 C.ar    1  UNL1        0.0017
     15 C           1.8263   -0.2606    1.3705 C.ar    1  UNL1        0.1206
     16 O           1.2643   -1.4761    1.7358 O.3     1  UNL1       -0.5065
     17 C           2.4564    0.4175    2.4169 C.ar    1  UNL1       -0.0196
     18 C           3.0373    1.6369    2.1127 C.ar    1  UNL1       -0.0554
     19 C           2.9724    2.1175    0.8269 C.ar    1  UNL1       -0.0499
     20 C           3.6285    3.4439    0.6104 C.3     1  UNL1       -0.0397
     21 C           2.3535    1.4497   -0.1993 C.ar    1  UNL1       -0.0516
     22 C          -3.3976    1.0283   -0.9280 C.3     1  UNL1        0.0050
     23 C          -4.1837    2.1952   -0.4211 C.3     1  UNL1       -0.0497
     24 C          -2.8269    1.3454   -2.2941 C.3     1  UNL1       -0.0497
     25 H          -2.6448   -2.1461    0.6241 H       1  UNL1        0.0245
     26 H          -1.7216   -1.6081    2.1124 H       1  UNL1        0.0245
     27 H          -3.5229   -1.8544    2.1144 H       1  UNL1        0.0245
     28 H          -4.0653    0.0028    1.0626 H       1  UNL1        0.0457
     29 H          -3.5681    1.3852    2.7180 H       1  UNL1        0.0245
     30 H          -2.3204    0.1888    3.2028 H       1  UNL1        0.0245
     31 H          -1.8994    1.6115    2.2020 H       1  UNL1        0.0245
     32 H          -0.5198    1.1192    0.4331 H       1  UNL1        0.0427
     33 H          -0.9852    1.2744   -1.2532 H       1  UNL1        0.0427
     34 H          -0.4474   -1.3862    0.1927 H       1  UNL1        0.0287
     35 H          -0.9247   -1.1676   -1.5493 H       1  UNL1        0.0287
     36 H           1.1002    0.0714   -1.9354 H       1  UNL1        0.0399
     37 H           3.5160   -1.2039   -0.1912 H       1  UNL1        0.0620
     38 H           4.7908   -3.2561   -0.6254 H       1  UNL1        0.0618
     39 H           3.7667   -5.0817   -2.0130 H       1  UNL1        0.0618
     40 H           1.4643   -4.7246   -2.9032 H       1  UNL1        0.0618
     41 H           0.2321   -2.6457   -2.4380 H       1  UNL1        0.0620
     42 H           0.7941   -1.6186    2.6064 H       1  UNL1        0.2921
     43 H           2.4918    0.0164    3.4212 H       1  UNL1        0.0654
     44 H           3.5292    2.1808    2.9116 H       1  UNL1        0.0621
     45 H           3.9605    3.5593   -0.4469 H       1  UNL1        0.0278
     46 H           2.9116    4.2893    0.7874 H       1  UNL1        0.0278
     47 H           4.4915    3.6054    1.2885 H       1  UNL1        0.0278
     48 H           2.3355    1.8825   -1.2033 H       1  UNL1        0.0624
     49 H          -4.1373    0.1936   -1.1240 H       1  UNL1        0.0457
     50 H          -3.5730    2.9176    0.1603 H       1  UNL1        0.0245
     51 H          -4.5469    2.7806   -1.3101 H       1  UNL1        0.0245
     52 H          -5.0987    1.9009    0.1349 H       1  UNL1        0.0245
     53 H          -2.3553    2.3409   -2.3154 H       1  UNL1        0.0245
     54 H          -3.6896    1.3941   -2.9877 H       1  UNL1        0.0245
     55 H          -2.1879    0.5312   -2.6900 H       1  UNL1        0.0245
@<TRIPOS>BOND
     1     1     2    1
     2     2     3    1
     3     2     4    1
     4     4     5    1
     5     5     6    1
     6     6     7    1
     7     7     8    1
     8     8     9   ar
     9     9    10   ar
    10    10    11   ar
    11    11    12   ar
    12    12    13   ar
    13     7    14    1
    14    14    15   ar
    15    15    16    1
    16    15    17   ar
    17    17    18   ar
    18    18    19   ar
    19    19    20    1
    20    19    21   ar
    21     4    22    1
    22    22    23    1
    23    22    24    1
    24    13     8   ar
    25    21    14   ar
    26     1    25    1
    27     1    26    1
    28     1    27    1
    29     2    28    1
    30     3    29    1
    31     3    30    1
    32     3    31    1
    33     5    32    1
    34     5    33    1
    35     6    34    1
    36     6    35    1
    37     7    36    1
    38     9    37    1
    39    10    38    1
    40    11    39    1
    41    12    40    1
    42    13    41    1
    43    16    42    1
    44    17    43    1
    45    18    44    1
    46    20    45    1
    47    20    46    1
    48    20    47    1
    49    21    48    1
    50    22    49    1
    51    23    50    1
    52    23    51    1
    53    23    52    1
    54    24    53    1
    55    24    54    1
    56    24    55    1
