
     RDKit          3D

 48 53  0  0  0  0  0  0  0  0999 V2000
   -2.3125   -0.6485    1.6140 C   0  0  2  0  0  0  0  0  0  0  0  0
   -3.2985    0.3644    1.3079 O   0  0  0  0  0  0  0  0  0  0  0  0
   -3.1827    0.6721   -0.0480 C   0  0  0  0  0  0  0  0  0  0  0  0
   -3.9359    1.1054   -1.1194 C   0  0  0  0  0  0  0  0  0  0  0  0
   -5.2742    1.3398   -0.8487 O   0  0  0  0  0  0  0  0  0  0  0  0
   -3.3300    1.2764   -2.3730 C   0  0  0  0  0  0  0  0  0  0  0  0
   -1.9678    1.0090   -2.5440 C   0  0  0  0  0  0  0  0  0  0  0  0
   -1.1913    0.5810   -1.5124 C   0  0  0  0  0  0  0  0  0  0  0  0
   -1.8439    0.4362   -0.3193 C   0  0  0  0  0  0  0  0  0  0  0  0
   -1.1365   -0.0477    0.8911 C   0  0  1  0  0  0  0  0  0  0  0  0
   -0.5659    1.0869    1.6539 C   0  0  0  0  0  0  0  0  0  0  0  0
    0.8941    1.2707    1.5231 C   0  0  0  0  0  0  0  0  0  0  0  0
    1.5514    0.8361    0.3394 N   0  0  0  0  0  0  0  0  0  0  0  0
    2.9120    0.4179    0.6617 C   0  0  0  0  0  0  0  0  0  0  0  0
    3.7361    0.2549   -0.6044 C   0  0  0  0  0  0  0  0  0  0  0  0
    5.1703   -0.1961   -0.4795 C   0  0  0  0  0  0  0  0  0  0  0  0
    4.8531    1.2521   -0.7168 C   0  0  0  0  0  0  0  0  0  0  0  0
    0.8801   -0.1710   -0.4168 C   0  0  2  0  0  0  0  0  0  0  0  0
    0.2405    0.3029   -1.6838 C   0  0  0  0  0  0  0  0  0  0  0  0
   -0.0608   -0.9673    0.4680 C   0  0  1  0  0  0  0  0  0  0  0  0
    0.6810   -1.2853    1.6350 O   0  0  0  0  0  0  0  0  0  0  0  0
   -0.4957   -2.2538   -0.1443 C   0  0  0  0  0  0  0  0  0  0  0  0
   -1.9373   -2.5823   -0.0832 C   0  0  0  0  0  0  0  0  0  0  0  0
   -2.7174   -1.9124    0.9602 C   0  0  0  0  0  0  0  0  0  0  0  0
   -3.7632   -2.3267    1.3833 O   0  0  0  0  0  0  0  0  0  0  0  0
   -2.1898   -0.7070    2.6971 H   0  0  0  0  0  0  0  0  0  0  0  0
   -5.6567    2.2670   -0.9834 H   0  0  0  0  0  0  0  0  0  0  0  0
   -3.9985    1.6224   -3.1614 H   0  0  0  0  0  0  0  0  0  0  0  0
   -1.5880    1.1672   -3.5425 H   0  0  0  0  0  0  0  0  0  0  0  0
   -0.8248    0.8828    2.7404 H   0  0  0  0  0  0  0  0  0  0  0  0
   -1.1402    2.0014    1.4120 H   0  0  0  0  0  0  0  0  0  0  0  0
    1.0975    2.3834    1.5814 H   0  0  0  0  0  0  0  0  0  0  0  0
    1.4158    0.8430    2.4007 H   0  0  0  0  0  0  0  0  0  0  0  0
    2.8261   -0.5847    1.1472 H   0  0  0  0  0  0  0  0  0  0  0  0
    3.3876    1.1253    1.3766 H   0  0  0  0  0  0  0  0  0  0  0  0
    3.2167   -0.0368   -1.5293 H   0  0  0  0  0  0  0  0  0  0  0  0
    5.4490   -0.5744    0.5289 H   0  0  0  0  0  0  0  0  0  0  0  0
    5.6544   -0.7417   -1.3222 H   0  0  0  0  0  0  0  0  0  0  0  0
    5.0927    1.6948   -1.7027 H   0  0  0  0  0  0  0  0  0  0  0  0
    5.0494    1.8937    0.1912 H   0  0  0  0  0  0  0  0  0  0  0  0
    1.6563   -0.9318   -0.7312 H   0  0  0  0  0  0  0  0  0  0  0  0
    0.3533   -0.4552   -2.4941 H   0  0  0  0  0  0  0  0  0  0  0  0
    0.7527    1.2115   -2.0173 H   0  0  0  0  0  0  0  0  0  0  0  0
    0.0222   -1.4179    2.3540 H   0  0  0  0  0  0  0  0  0  0  0  0
   -0.1484   -2.2384   -1.2198 H   0  0  0  0  0  0  0  0  0  0  0  0
    0.0941   -3.1245    0.2796 H   0  0  0  0  0  0  0  0  0  0  0  0
   -2.0460   -3.7025    0.0478 H   0  0  0  0  0  0  0  0  0  0  0  0
   -2.3805   -2.3921   -1.0926 H   0  0  0  0  0  0  0  0  0  0  0  0
  1  2  1  0
  2  3  1  0
  3  4  2  0
  4  5  1  0
  4  6  1  0
  6  7  2  0
  7  8  1  0
  8  9  2  0
  9 10  1  0
 10 11  1  1
 11 12  1  0
 12 13  1  0
 13 14  1  0
 14 15  1  0
 15 16  1  0
 16 17  1  0
 13 18  1  0
 18 19  1  0
 18 20  1  0
 20 21  1  1
 20 22  1  0
 22 23  1  0
 23 24  1  0
 24 25  2  0
 10  1  1  0
 20 10  1  0
 24  1  1  0
  9  3  1  0
 17 15  1  0
 19  8  1  0
  1 26  1  1
  5 27  1  0
  6 28  1  0
  7 29  1  0
 11 30  1  0
 11 31  1  0
 12 32  1  0
 12 33  1  0
 14 34  1  0
 14 35  1  0
 15 36  1  0
 16 37  1  0
 16 38  1  0
 17 39  1  0
 17 40  1  0
 18 41  1  6
 19 42  1  0
 19 43  1  0
 21 44  1  0
 22 45  1  0
 22 46  1  0
 23 47  1  0
 23 48  1  0
M  END
$$$$
