@<TRIPOS>MOLECULE
*****
 48 53 0 0 0
SMALL
GASTEIGER

@<TRIPOS>ATOM
      1 C          -2.3125   -0.6485    1.6140 C.3     1  UNL1        0.1701
      2 O          -3.2985    0.3644    1.3079 O.3     1  UNL1       -0.4764
      3 C          -3.1827    0.6721   -0.0480 C.ar    1  UNL1        0.1669
      4 C          -3.9359    1.1054   -1.1194 C.ar    1  UNL1        0.1588
      5 O          -5.2742    1.3398   -0.8487 O.3     1  UNL1       -0.5033
      6 C          -3.3300    1.2764   -2.3730 C.ar    1  UNL1       -0.0162
      7 C          -1.9678    1.0090   -2.5440 C.ar    1  UNL1       -0.0546
      8 C          -1.1913    0.5810   -1.5124 C.ar    1  UNL1       -0.0382
      9 C          -1.8439    0.4362   -0.3193 C.ar    1  UNL1        0.0141
     10 C          -1.1365   -0.0477    0.8911 C.3     1  UNL1        0.0746
     11 C          -0.5659    1.0869    1.6539 C.3     1  UNL1       -0.0238
     12 C           0.8941    1.2707    1.5231 C.3     1  UNL1        0.0003
     13 N           1.5514    0.8361    0.3394 N.3     1  UNL1       -0.2960
     14 C           2.9120    0.4179    0.6617 C.3     1  UNL1        0.0021
     15 C           3.7361    0.2549   -0.6044 C.3     1  UNL1       -0.0282
     16 C           5.1703   -0.1961   -0.4795 C.3     1  UNL1       -0.0488
     17 C           4.8531    1.2521   -0.7168 C.3     1  UNL1       -0.0488
     18 C           0.8801   -0.1710   -0.4168 C.3     1  UNL1        0.0441
     19 C           0.2405    0.3029   -1.6838 C.3     1  UNL1       -0.0089
     20 C          -0.0608   -0.9673    0.4680 C.3     1  UNL1        0.0957
     21 O           0.6810   -1.2853    1.6350 O.3     1  UNL1       -0.3860
     22 C          -0.4957   -2.2538   -0.1443 C.3     1  UNL1       -0.0147
     23 C          -1.9373   -2.5823   -0.0832 C.3     1  UNL1        0.0123
     24 C          -2.7174   -1.9124    0.9602 C.2     1  UNL1        0.1745
     25 O          -3.7632   -2.3267    1.3833 O.2     1  UNL1       -0.2934
     26 H          -2.1898   -0.7070    2.6971 H       1  UNL1        0.0824
     27 H          -5.6567    2.2670   -0.9834 H       1  UNL1        0.2923
     28 H          -3.9985    1.6224   -3.1614 H       1  UNL1        0.0655
     29 H          -1.5880    1.1672   -3.5425 H       1  UNL1        0.0622
     30 H          -0.8248    0.8828    2.7404 H       1  UNL1        0.0288
     31 H          -1.1402    2.0014    1.4120 H       1  UNL1        0.0288
     32 H           1.0975    2.3834    1.5814 H       1  UNL1        0.0427
     33 H           1.4158    0.8430    2.4007 H       1  UNL1        0.0427
     34 H           2.8261   -0.5847    1.1472 H       1  UNL1        0.0429
     35 H           3.3876    1.1253    1.3766 H       1  UNL1        0.0429
     36 H           3.2167   -0.0368   -1.5293 H       1  UNL1        0.0313
     37 H           5.4490   -0.5744    0.5289 H       1  UNL1        0.0268
     38 H           5.6544   -0.7417   -1.3222 H       1  UNL1        0.0268
     39 H           5.0927    1.6948   -1.7027 H       1  UNL1        0.0268
     40 H           5.0494    1.8937    0.1912 H       1  UNL1        0.0268
     41 H           1.6563   -0.9318   -0.7312 H       1  UNL1        0.0494
     42 H           0.3533   -0.4552   -2.4941 H       1  UNL1        0.0329
     43 H           0.7527    1.2115   -2.0173 H       1  UNL1        0.0329
     44 H           0.0222   -1.4179    2.3540 H       1  UNL1        0.2103
     45 H          -0.1484   -2.2384   -1.2198 H       1  UNL1        0.0298
     46 H           0.0941   -3.1245    0.2796 H       1  UNL1        0.0298
     47 H          -2.0460   -3.7025    0.0478 H       1  UNL1        0.0344
     48 H          -2.3805   -2.3921   -1.0926 H       1  UNL1        0.0344
@<TRIPOS>BOND
     1     1     2    1
     2     2     3    1
     3     3     4   ar
     4     4     5    1
     5     4     6   ar
     6     6     7   ar
     7     7     8   ar
     8     8     9   ar
     9     9    10    1
    10    10    11    1
    11    11    12    1
    12    12    13    1
    13    13    14    1
    14    14    15    1
    15    15    16    1
    16    16    17    1
    17    13    18    1
    18    18    19    1
    19    18    20    1
    20    20    21    1
    21    20    22    1
    22    22    23    1
    23    23    24    1
    24    24    25    2
    25    10     1    1
    26    20    10    1
    27    24     1    1
    28     9     3   ar
    29    17    15    1
    30    19     8    1
    31     1    26    1
    32     5    27    1
    33     6    28    1
    34     7    29    1
    35    11    30    1
    36    11    31    1
    37    12    32    1
    38    12    33    1
    39    14    34    1
    40    14    35    1
    41    15    36    1
    42    16    37    1
    43    16    38    1
    44    17    39    1
    45    17    40    1
    46    18    41    1
    47    19    42    1
    48    19    43    1
    49    21    44    1
    50    22    45    1
    51    22    46    1
    52    23    47    1
    53    23    48    1
