
     RDKit          3D

 69 73  0  0  0  0  0  0  0  0999 V2000
   -8.3422   -2.2916    0.8061 C   0  0  0  0  0  0  0  0  0  0  0  0
   -7.2507   -1.6690    1.6231 C   0  0  0  0  0  0  0  0  0  0  0  0
   -7.4960   -1.4044    2.9353 C   0  0  0  0  0  0  0  0  0  0  0  0
   -6.4995   -0.8436    3.6538 N   0  0  0  0  0  0  0  0  0  0  0  0
   -5.3162   -0.5492    3.1319 C   0  0  0  0  0  0  0  0  0  0  0  0
   -5.0343   -0.8066    1.7957 C   0  0  0  0  0  0  0  0  0  0  0  0
   -3.7183   -0.4927    1.2685 C   0  0  0  0  0  0  0  0  0  0  0  0
   -2.6121   -1.0318    1.8991 C   0  0  0  0  0  0  0  0  0  0  0  0
   -1.3817   -0.8401    1.4908 N   0  0  0  0  0  0  0  0  0  0  0  0
   -1.0609   -0.0740    0.3795 C   0  0  0  0  0  0  0  0  0  0  0  0
    0.2691    0.0699    0.0446 N   0  0  0  0  0  0  0  0  0  0  0  0
    1.0354    0.5932   -0.9705 C   0  0  2  0  0  0  0  0  0  0  0  0
    0.9769   -0.1121   -2.3206 C   0  0  0  0  0  0  0  0  0  0  0  0
    1.7366    0.7896   -3.2678 C   0  0  0  0  0  0  0  0  0  0  0  0
    2.3285    1.9036   -2.5654 N   0  0  0  0  0  0  0  0  0  0  0  0
    3.2072    1.5608   -1.5012 C   0  0  0  0  0  0  0  0  0  0  0  0
    2.5760    0.4728   -0.6416 C   0  0  1  0  0  0  0  0  0  0  0  0
    2.8237    0.6344    0.6825 O   0  0  0  0  0  0  0  0  0  0  0  0
    3.4871   -0.3703    1.3434 C   0  0  0  0  0  0  0  0  0  0  0  0
    4.8672   -0.5255    0.7431 C   0  0  0  0  0  0  0  0  0  0  0  0
    5.6477   -1.6315    1.4452 C   0  0  0  0  0  0  0  0  0  0  0  0
    6.8628   -1.9109    0.5867 C   0  0  0  0  0  0  0  0  0  0  0  0
    7.8710   -0.4597    0.3989 S   0  0  0  0  0  6  0  0  0  0  0  0
    8.8347   -0.6545   -0.7205 O   0  0  0  0  0  0  0  0  0  0  0  0
    8.5406   -0.0762    1.6778 O   0  0  0  0  0  0  0  0  0  0  0  0
    6.7553    0.8785   -0.0354 C   0  0  0  0  0  0  0  0  0  0  0  0
    5.5797    0.7789    0.8909 C   0  0  0  0  0  0  0  0  0  0  0  0
   -2.1399    0.4707   -0.2564 C   0  0  0  0  0  0  0  0  0  0  0  0
   -2.0038    1.2663   -1.3266 N   0  0  0  0  0  0  0  0  0  0  0  0
   -3.0643    1.8366   -1.9537 C   0  0  0  0  0  0  0  0  0  0  0  0
   -2.8381    2.5656   -2.9488 O   0  0  0  0  0  0  0  0  0  0  0  0
   -4.3488    1.6592   -1.5614 C   0  0  0  0  0  0  0  0  0  0  0  0
   -5.5122    2.2762   -2.2388 C   0  0  0  0  0  0  0  0  0  0  0  0
   -4.5395    0.8430   -0.4537 C   0  0  0  0  0  0  0  0  0  0  0  0
   -3.4689    0.2742    0.1695 C   0  0  0  0  0  0  0  0  0  0  0  0
   -6.0236   -1.3738    1.0455 C   0  0  0  0  0  0  0  0  0  0  0  0
   -9.3063   -1.7770    1.0710 H   0  0  0  0  0  0  0  0  0  0  0  0
   -8.1448   -2.1442   -0.2841 H   0  0  0  0  0  0  0  0  0  0  0  0
   -8.4889   -3.3606    1.0658 H   0  0  0  0  0  0  0  0  0  0  0  0
   -8.4583   -1.6341    3.3947 H   0  0  0  0  0  0  0  0  0  0  0  0
   -4.5395   -0.0968    3.7487 H   0  0  0  0  0  0  0  0  0  0  0  0
   -2.7958   -1.6443    2.7792 H   0  0  0  0  0  0  0  0  0  0  0  0
    0.9171   -0.3550    0.8491 H   0  0  0  0  0  0  0  0  0  0  0  0
    0.9046    1.6791   -1.1495 H   0  0  0  0  0  0  0  0  0  0  0  0
    1.5589   -1.0725   -2.1751 H   0  0  0  0  0  0  0  0  0  0  0  0
   -0.0349   -0.3688   -2.6457 H   0  0  0  0  0  0  0  0  0  0  0  0
    2.4915    0.2334   -3.8607 H   0  0  0  0  0  0  0  0  0  0  0  0
    1.0097    1.2055   -3.9850 H   0  0  0  0  0  0  0  0  0  0  0  0
    2.7393    2.5461   -3.2662 H   0  0  0  0  0  0  0  0  0  0  0  0
    3.3409    2.4306   -0.8059 H   0  0  0  0  0  0  0  0  0  0  0  0
    4.2275    1.2855   -1.8256 H   0  0  0  0  0  0  0  0  0  0  0  0
    2.9132   -0.5259   -0.9772 H   0  0  0  0  0  0  0  0  0  0  0  0
    2.9702   -1.3433    1.3865 H   0  0  0  0  0  0  0  0  0  0  0  0
    3.6333    0.0169    2.3981 H   0  0  0  0  0  0  0  0  0  0  0  0
    4.7480   -0.8818   -0.2947 H   0  0  0  0  0  0  0  0  0  0  0  0
    5.9619   -1.3508    2.4583 H   0  0  0  0  0  0  0  0  0  0  0  0
    5.0290   -2.5558    1.4153 H   0  0  0  0  0  0  0  0  0  0  0  0
    6.5256   -2.1897   -0.4450 H   0  0  0  0  0  0  0  0  0  0  0  0
    7.4984   -2.7131    0.9714 H   0  0  0  0  0  0  0  0  0  0  0  0
    7.2774    1.8413    0.0860 H   0  0  0  0  0  0  0  0  0  0  0  0
    6.4193    0.6913   -1.0601 H   0  0  0  0  0  0  0  0  0  0  0  0
    4.9046    1.6687    0.8452 H   0  0  0  0  0  0  0  0  0  0  0  0
    6.0046    0.8184    1.9374 H   0  0  0  0  0  0  0  0  0  0  0  0
   -1.0534    1.4536   -1.6505 H   0  0  0  0  0  0  0  0  0  0  0  0
   -5.8359    3.2176   -1.7219 H   0  0  0  0  0  0  0  0  0  0  0  0
   -5.3145    2.4838   -3.3106 H   0  0  0  0  0  0  0  0  0  0  0  0
   -6.3987    1.5988   -2.1736 H   0  0  0  0  0  0  0  0  0  0  0  0
   -5.5666    0.7046   -0.1249 H   0  0  0  0  0  0  0  0  0  0  0  0
   -5.8859   -1.6177   -0.0052 H   0  0  0  0  0  0  0  0  0  0  0  0
  1  2  1  0
  2  3  2  0
  3  4  1  0
  4  5  2  0
  5  6  1  0
  6  7  1  0
  7  8  2  0
  8  9  1  0
  9 10  2  0
 10 11  1  0
 11 12  1  0
 12 13  1  0
 13 14  1  0
 14 15  1  0
 15 16  1  0
 16 17  1  0
 17 18  1  0
 18 19  1  0
 19 20  1  0
 20 21  1  0
 21 22  1  0
 22 23  1  0
 23 24  2  0
 23 25  2  0
 23 26  1  0
 26 27  1  0
 10 28  1  0
 28 29  1  0
 29 30  1  0
 30 31  2  0
 30 32  1  0
 32 33  1  0
 32 34  2  0
 34 35  1  0
  6 36  2  0
 36  2  1  0
 35  7  1  0
 17 12  1  0
 27 20  1  0
 35 28  2  0
  1 37  1  0
  1 38  1  0
  1 39  1  0
  3 40  1  0
  5 41  1  0
  8 42  1  0
 11 43  1  0
 12 44  1  6
 13 45  1  0
 13 46  1  0
 14 47  1  0
 14 48  1  0
 15 49  1  0
 16 50  1  0
 16 51  1  0
 17 52  1  6
 19 53  1  0
 19 54  1  0
 20 55  1  0
 21 56  1  0
 21 57  1  0
 22 58  1  0
 22 59  1  0
 26 60  1  0
 26 61  1  0
 27 62  1  0
 27 63  1  0
 29 64  1  0
 33 65  1  0
 33 66  1  0
 33 67  1  0
 34 68  1  0
 36 69  1  0
M  END
$$$$
