@<TRIPOS>MOLECULE
*****
 69 73 0 0 0
SMALL
GASTEIGER

@<TRIPOS>ATOM
      1 C          -8.3422   -2.2916    0.8061 C.3     1  UNL1       -0.0383
      2 C          -7.2507   -1.6690    1.6231 C.ar    1  UNL1       -0.0318
      3 C          -7.4960   -1.4044    2.9353 C.ar    1  UNL1        0.0305
      4 N          -6.4995   -0.8436    3.6538 N.ar    1  UNL1       -0.2624
      5 C          -5.3162   -0.5492    3.1319 C.ar    1  UNL1        0.0353
      6 C          -5.0343   -0.8066    1.7957 C.ar    1  UNL1        0.0025
      7 C          -3.7183   -0.4927    1.2685 C.ar    1  UNL1        0.0109
      8 C          -2.6121   -1.0318    1.8991 C.ar    1  UNL1        0.0381
      9 N          -1.3817   -0.8401    1.4908 N.ar    1  UNL1       -0.2378
     10 C          -1.0609   -0.0740    0.3795 C.ar    1  UNL1        0.1432
     11 N           0.2691    0.0699    0.0446 N.pl3   1  UNL1       -0.3220
     12 C           1.0354    0.5932   -0.9705 C.3     1  UNL1        0.0505
     13 C           0.9769   -0.1121   -2.3206 C.3     1  UNL1       -0.0195
     14 C           1.7366    0.7896   -3.2678 C.3     1  UNL1       -0.0023
     15 N           2.3285    1.9036   -2.5654 N.3     1  UNL1       -0.3134
     16 C           3.2072    1.5608   -1.5012 C.3     1  UNL1        0.0240
     17 C           2.5760    0.4728   -0.6416 C.3     1  UNL1        0.0893
     18 O           2.8237    0.6344    0.6825 O.3     1  UNL1       -0.3732
     19 C           3.4871   -0.3703    1.3434 C.3     1  UNL1        0.0511
     20 C           4.8672   -0.5255    0.7431 C.3     1  UNL1       -0.0146
     21 C           5.6477   -1.6315    1.4452 C.3     1  UNL1       -0.0286
     22 C           6.8628   -1.9109    0.5867 C.3     1  UNL1        0.0661
     23 S           7.8710   -0.4597    0.3989 S.O2    1  UNL1       -0.0310
     24 O           8.8347   -0.6545   -0.7205 O.2     1  UNL1       -0.1744
     25 O           8.5406   -0.0762    1.6778 O.2     1  UNL1       -0.1744
     26 C           6.7553    0.8785   -0.0354 C.3     1  UNL1        0.0661
     27 C           5.5797    0.7789    0.8909 C.3     1  UNL1       -0.0286
     28 C          -2.1399    0.4707   -0.2564 C.ar    1  UNL1        0.0900
     29 N          -2.0038    1.2663   -1.3266 N.ar    1  UNL1       -0.3191
     30 C          -3.0643    1.8366   -1.9537 C.ar    1  UNL1        0.2522
     31 O          -2.8381    2.5656   -2.9488 O.2     1  UNL1       -0.2676
     32 C          -4.3488    1.6592   -1.5614 C.ar    1  UNL1        0.0145
     33 C          -5.5122    2.2762   -2.2388 C.3     1  UNL1       -0.0346
     34 C          -4.5395    0.8430   -0.4537 C.ar    1  UNL1       -0.0438
     35 C          -3.4689    0.2742    0.1695 C.ar    1  UNL1        0.0113
     36 C          -6.0236   -1.3738    1.0455 C.ar    1  UNL1       -0.0482
     37 H          -9.3063   -1.7770    1.0710 H       1  UNL1        0.0278
     38 H          -8.1448   -2.1442   -0.2841 H       1  UNL1        0.0278
     39 H          -8.4889   -3.3606    1.0658 H       1  UNL1        0.0278
     40 H          -8.4583   -1.6341    3.3947 H       1  UNL1        0.0832
     41 H          -4.5395   -0.0968    3.7487 H       1  UNL1        0.0836
     42 H          -2.7958   -1.6443    2.7792 H       1  UNL1        0.0836
     43 H           0.9171   -0.3550    0.8491 H       1  UNL1        0.1479
     44 H           0.9046    1.6791   -1.1495 H       1  UNL1        0.0524
     45 H           1.5589   -1.0725   -2.1751 H       1  UNL1        0.0296
     46 H          -0.0349   -0.3688   -2.6457 H       1  UNL1        0.0296
     47 H           2.4915    0.2334   -3.8607 H       1  UNL1        0.0425
     48 H           1.0097    1.2055   -3.9850 H       1  UNL1        0.0425
     49 H           2.7393    2.5461   -3.2662 H       1  UNL1        0.1220
     50 H           3.3409    2.4306   -0.8059 H       1  UNL1        0.0450
     51 H           4.2275    1.2855   -1.8256 H       1  UNL1        0.0450
     52 H           2.9132   -0.5259   -0.9772 H       1  UNL1        0.0627
     53 H           2.9702   -1.3433    1.3865 H       1  UNL1        0.0563
     54 H           3.6333    0.0169    2.3981 H       1  UNL1        0.0563
     55 H           4.7480   -0.8818   -0.2947 H       1  UNL1        0.0324
     56 H           5.9619   -1.3508    2.4583 H       1  UNL1        0.0284
     57 H           5.0290   -2.5558    1.4153 H       1  UNL1        0.0284
     58 H           6.5256   -2.1897   -0.4450 H       1  UNL1        0.0500
     59 H           7.4984   -2.7131    0.9714 H       1  UNL1        0.0500
     60 H           7.2774    1.8413    0.0860 H       1  UNL1        0.0500
     61 H           6.4193    0.6913   -1.0601 H       1  UNL1        0.0500
     62 H           4.9046    1.6687    0.8452 H       1  UNL1        0.0284
     63 H           6.0046    0.8184    1.9374 H       1  UNL1        0.0284
     64 H          -1.0534    1.4536   -1.6505 H       1  UNL1        0.1690
     65 H          -5.8359    3.2176   -1.7219 H       1  UNL1        0.0279
     66 H          -5.3145    2.4838   -3.3106 H       1  UNL1        0.0279
     67 H          -6.3987    1.5988   -2.1736 H       1  UNL1        0.0279
     68 H          -5.5666    0.7046   -0.1249 H       1  UNL1        0.0629
     69 H          -5.8859   -1.6177   -0.0052 H       1  UNL1        0.0627
@<TRIPOS>BOND
     1     1     2    1
     2     2     3   ar
     3     3     4   ar
     4     4     5   ar
     5     5     6   ar
     6     6     7    1
     7     7     8   ar
     8     8     9   ar
     9     9    10   ar
    10    10    11    1
    11    11    12    1
    12    12    13    1
    13    13    14    1
    14    14    15    1
    15    15    16    1
    16    16    17    1
    17    17    18    1
    18    18    19    1
    19    19    20    1
    20    20    21    1
    21    21    22    1
    22    22    23    1
    23    23    24    2
    24    23    25    2
    25    23    26    1
    26    26    27    1
    27    10    28   ar
    28    28    29   ar
    29    29    30   ar
    30    30    31    2
    31    30    32   ar
    32    32    33    1
    33    32    34   ar
    34    34    35   ar
    35     6    36   ar
    36    36     2   ar
    37    35     7   ar
    38    17    12    1
    39    27    20    1
    40    35    28   ar
    41     1    37    1
    42     1    38    1
    43     1    39    1
    44     3    40    1
    45     5    41    1
    46     8    42    1
    47    11    43    1
    48    12    44    1
    49    13    45    1
    50    13    46    1
    51    14    47    1
    52    14    48    1
    53    15    49    1
    54    16    50    1
    55    16    51    1
    56    17    52    1
    57    19    53    1
    58    19    54    1
    59    20    55    1
    60    21    56    1
    61    21    57    1
    62    22    58    1
    63    22    59    1
    64    26    60    1
    65    26    61    1
    66    27    62    1
    67    27    63    1
    68    29    64    1
    69    33    65    1
    70    33    66    1
    71    33    67    1
    72    34    68    1
    73    36    69    1
