@<TRIPOS>MOLECULE
*****
 21 22 0 0 0
SMALL
GASTEIGER

@<TRIPOS>ATOM
      1 C           3.0367    1.3033    0.2146 C.3     1  UNL1       -0.0397
      2 C           1.9594    0.2680    0.1007 C.ar    1  UNL1       -0.0498
      3 C           2.2247   -1.0768    0.0236 C.ar    1  UNL1       -0.0588
      4 C           1.1744   -1.9916   -0.0812 C.ar    1  UNL1       -0.0609
      5 C          -0.1389   -1.5220   -0.1062 C.ar    1  UNL1       -0.0524
      6 C          -0.4221   -0.1762   -0.0298 C.ar    1  UNL1        0.0039
      7 C          -1.8080    0.3231   -0.0559 C.ar    1  UNL1        0.1123
      8 C          -2.9661   -0.3939   -0.1523 C.ar    1  UNL1        0.0502
      9 N          -3.9703    0.4940   -0.1366 N.ar    1  UNL1       -0.2643
     10 N          -3.4794    1.7139   -0.0355 N.ar    1  UNL1       -0.0678
     11 N          -2.1789    1.6129    0.0131 N.ar    1  UNL1       -0.1297
     12 C           0.6457    0.6895    0.0726 C.ar    1  UNL1       -0.0495
     13 H           3.9106    1.0791   -0.3959 H       1  UNL1        0.0278
     14 H           2.6264    2.2844   -0.1577 H       1  UNL1        0.0278
     15 H           3.2549    1.4675    1.2919 H       1  UNL1        0.0278
     16 H           3.2660   -1.4111    0.0459 H       1  UNL1        0.0620
     17 H           1.4339   -3.0233   -0.1380 H       1  UNL1        0.0618
     18 H          -0.9305   -2.2520   -0.1879 H       1  UNL1        0.0624
     19 H          -3.0577   -1.4635   -0.2265 H       1  UNL1        0.0846
     20 H          -5.0141    0.3260   -0.1920 H       1  UNL1        0.1900
     21 H           0.4332    1.7488    0.1332 H       1  UNL1        0.0627
@<TRIPOS>BOND
     1     1     2    1
     2     2     3   ar
     3     3     4   ar
     4     4     5   ar
     5     5     6   ar
     6     6     7    1
     7     7     8   ar
     8     8     9   ar
     9     9    10   ar
    10    10    11   ar
    11     6    12   ar
    12    12     2   ar
    13    11     7   ar
    14     1    13    1
    15     1    14    1
    16     1    15    1
    17     3    16    1
    18     4    17    1
    19     5    18    1
    20     8    19    1
    21     9    20    1
    22    12    21    1
