
     RDKit          3D

 72 74  0  0  0  0  0  0  0  0999 V2000
    0.6693    1.5338    2.6679 C   0  0  0  0  0  0  0  0  0  0  0  0
    1.1758    1.8683    1.3143 C   0  0  0  0  0  0  0  0  0  0  0  0
    1.1901    0.7002    0.3371 C   0  0  1  0  0  0  0  0  0  0  0  0
    2.0297   -0.4289    0.7790 C   0  0  0  0  0  0  0  0  0  0  0  0
    3.7335   -0.0433    0.9858 S   0  0  0  0  0  6  0  0  0  0  0  0
    3.9383    0.9951    2.0815 O   0  0  0  0  0  0  0  0  0  0  0  0
    4.4533   -1.2823    1.5084 O   0  0  0  0  0  0  0  0  0  0  0  0
    4.5979    0.4952   -0.4164 C   0  0  0  0  0  0  0  0  0  0  0  0
    6.0536    0.7392    0.0437 C   0  0  0  0  0  0  0  0  0  0  0  0
    4.1593    1.7669   -1.0516 C   0  0  0  0  0  0  0  0  0  0  0  0
    4.7082   -0.5475   -1.5084 C   0  0  0  0  0  0  0  0  0  0  0  0
   -0.1217    0.4640   -0.1472 N   0  0  0  0  0  0  0  0  0  0  0  0
   -0.3963    0.8483   -1.5223 C   0  0  0  0  0  0  0  0  0  0  0  0
    0.4349    0.6017   -2.4350 O   0  0  0  0  0  0  0  0  0  0  0  0
   -1.7070    1.5512   -1.8250 C   0  0  1  0  0  0  0  0  0  0  0  0
   -1.7166    2.9676   -1.3469 C   0  0  0  0  0  0  0  0  0  0  0  0
   -1.9118    1.5517   -3.3087 C   0  0  0  0  0  0  0  0  0  0  0  0
   -0.8732    2.2589   -4.0734 C   0  0  0  0  0  0  0  0  0  0  0  0
    0.0885    2.8814   -3.5590 O   0  0  0  0  0  0  0  0  0  0  0  0
   -0.8878    2.2862   -5.4833 O   0  0  0  0  0  0  0  0  0  0  0  0
   -2.8323    0.7510   -1.1902 C   0  0  0  0  0  0  0  0  0  0  0  0
   -2.2699   -0.5031   -0.5594 C   0  0  2  0  0  0  0  0  0  0  0  0
   -3.3268   -1.3396    0.0106 C   0  0  0  0  0  0  0  0  0  0  0  0
   -4.2000   -0.8404    0.9498 C   0  0  0  0  0  0  0  0  0  0  0  0
   -5.1963   -1.6338    1.4875 C   0  0  0  0  0  0  0  0  0  0  0  0
   -5.3106   -2.9431    1.0721 C   0  0  0  0  0  0  0  0  0  0  0  0
   -4.4329   -3.4519    0.1254 C   0  0  0  0  0  0  0  0  0  0  0  0
   -4.5509   -5.1230   -0.4282 Cl  0  0  0  0  0  0  0  0  0  0  0  0
   -3.4535   -2.6487   -0.3941 C   0  0  0  0  0  0  0  0  0  0  0  0
   -1.2462   -0.0912    0.5249 C   0  0  1  0  0  0  0  0  0  0  0  0
   -1.0371   -1.2203    1.4290 C   0  0  0  0  0  0  0  0  0  0  0  0
   -0.4720   -2.3757    0.9586 C   0  0  0  0  0  0  0  0  0  0  0  0
   -0.2495   -3.4755    1.7568 C   0  0  0  0  0  0  0  0  0  0  0  0
   -0.6099   -3.4231    3.1008 C   0  0  0  0  0  0  0  0  0  0  0  0
   -0.3247   -4.8159    4.0977 Cl  0  0  0  0  0  0  0  0  0  0  0  0
   -1.1822   -2.2677    3.5993 C   0  0  0  0  0  0  0  0  0  0  0  0
   -1.3925   -1.1706    2.7571 C   0  0  0  0  0  0  0  0  0  0  0  0
    1.1493    2.2551    3.3968 H   0  0  0  0  0  0  0  0  0  0  0  0
    0.9218    0.5429    3.0445 H   0  0  0  0  0  0  0  0  0  0  0  0
   -0.4169    1.7199    2.7917 H   0  0  0  0  0  0  0  0  0  0  0  0
    0.4926    2.6326    0.8714 H   0  0  0  0  0  0  0  0  0  0  0  0
    2.1643    2.3659    1.3924 H   0  0  0  0  0  0  0  0  0  0  0  0
    1.7961    1.1457   -0.5145 H   0  0  0  0  0  0  0  0  0  0  0  0
    1.9829   -1.2254    0.0094 H   0  0  0  0  0  0  0  0  0  0  0  0
    1.7259   -0.8740    1.7559 H   0  0  0  0  0  0  0  0  0  0  0  0
    6.7449    0.7406   -0.8018 H   0  0  0  0  0  0  0  0  0  0  0  0
    6.3232    0.0411    0.8463 H   0  0  0  0  0  0  0  0  0  0  0  0
    6.0483    1.7585    0.4831 H   0  0  0  0  0  0  0  0  0  0  0  0
    3.5794    1.5500   -1.9775 H   0  0  0  0  0  0  0  0  0  0  0  0
    5.0926    2.2705   -1.4684 H   0  0  0  0  0  0  0  0  0  0  0  0
    3.7295    2.5133   -0.3878 H   0  0  0  0  0  0  0  0  0  0  0  0
    5.5252   -0.2169   -2.1842 H   0  0  0  0  0  0  0  0  0  0  0  0
    4.9198   -1.5575   -1.1127 H   0  0  0  0  0  0  0  0  0  0  0  0
    3.7759   -0.5198   -2.1148 H   0  0  0  0  0  0  0  0  0  0  0  0
   -2.2910    3.6505   -2.0027 H   0  0  0  0  0  0  0  0  0  0  0  0
   -0.6747    3.3872   -1.3326 H   0  0  0  0  0  0  0  0  0  0  0  0
   -2.1846    3.0750   -0.3300 H   0  0  0  0  0  0  0  0  0  0  0  0
   -2.0707    0.5242   -3.7071 H   0  0  0  0  0  0  0  0  0  0  0  0
   -2.8765    2.1039   -3.5201 H   0  0  0  0  0  0  0  0  0  0  0  0
   -0.4741    3.0767   -5.9577 H   0  0  0  0  0  0  0  0  0  0  0  0
   -3.6227    0.4652   -1.8917 H   0  0  0  0  0  0  0  0  0  0  0  0
   -3.2699    1.3651   -0.3849 H   0  0  0  0  0  0  0  0  0  0  0  0
   -1.6832   -1.0679   -1.3088 H   0  0  0  0  0  0  0  0  0  0  0  0
   -4.1383    0.1809    1.2970 H   0  0  0  0  0  0  0  0  0  0  0  0
   -5.8938   -1.2569    2.2286 H   0  0  0  0  0  0  0  0  0  0  0  0
   -6.0647   -3.6165    1.4511 H   0  0  0  0  0  0  0  0  0  0  0  0
   -2.7750   -3.0826   -1.1418 H   0  0  0  0  0  0  0  0  0  0  0  0
   -1.7543    0.7158    1.0873 H   0  0  0  0  0  0  0  0  0  0  0  0
   -0.1892   -2.4306   -0.0744 H   0  0  0  0  0  0  0  0  0  0  0  0
    0.1962   -4.3773    1.3718 H   0  0  0  0  0  0  0  0  0  0  0  0
   -1.4749   -2.1895    4.6365 H   0  0  0  0  0  0  0  0  0  0  0  0
   -1.8437   -0.3007    3.2112 H   0  0  0  0  0  0  0  0  0  0  0  0
  1  2  1  0
  2  3  1  0
  3  4  1  0
  4  5  1  0
  5  6  2  0
  5  7  2  0
  5  8  1  0
  8  9  1  0
  8 10  1  0
  8 11  1  0
  3 12  1  0
 12 13  1  0
 13 14  2  0
 13 15  1  0
 15 16  1  1
 15 17  1  0
 17 18  1  0
 18 19  2  0
 18 20  1  0
 15 21  1  0
 21 22  1  0
 22 23  1  0
 23 24  2  0
 24 25  1  0
 25 26  2  0
 26 27  1  0
 27 28  1  0
 27 29  2  0
 22 30  1  0
 30 31  1  0
 31 32  2  0
 32 33  1  0
 33 34  2  0
 34 35  1  0
 34 36  1  0
 36 37  2  0
 30 12  1  0
 37 31  1  0
 29 23  1  0
  1 38  1  0
  1 39  1  0
  1 40  1  0
  2 41  1  0
  2 42  1  0
  3 43  1  6
  4 44  1  0
  4 45  1  0
  9 46  1  0
  9 47  1  0
  9 48  1  0
 10 49  1  0
 10 50  1  0
 10 51  1  0
 11 52  1  0
 11 53  1  0
 11 54  1  0
 16 55  1  0
 16 56  1  0
 16 57  1  0
 17 58  1  0
 17 59  1  0
 20 60  1  0
 21 61  1  0
 21 62  1  0
 22 63  1  6
 24 64  1  0
 25 65  1  0
 26 66  1  0
 29 67  1  0
 30 68  1  1
 32 69  1  0
 33 70  1  0
 36 71  1  0
 37 72  1  0
M  END
$$$$
