@<TRIPOS>MOLECULE
*****
 72 74 0 0 0
SMALL
GASTEIGER

@<TRIPOS>ATOM
      1 C           0.6693    1.5338    2.6679 C.3     1  UNL1       -0.0635
      2 C           1.1758    1.8683    1.3143 C.3     1  UNL1       -0.0356
      3 C           1.1901    0.7002    0.3371 C.3     1  UNL1        0.0457
      4 C           2.0297   -0.4289    0.7790 C.3     1  UNL1        0.0849
      5 S           3.7335   -0.0433    0.9858 S.O2    1  UNL1       -0.0245
      6 O           3.9383    0.9951    2.0815 O.2     1  UNL1       -0.1738
      7 O           4.4533   -1.2823    1.5084 O.2     1  UNL1       -0.1738
      8 C           4.5979    0.4952   -0.4164 C.3     1  UNL1        0.0795
      9 C           6.0536    0.7392    0.0437 C.3     1  UNL1       -0.0405
     10 C           4.1593    1.7669   -1.0516 C.3     1  UNL1       -0.0405
     11 C           4.7082   -0.5475   -1.5084 C.3     1  UNL1       -0.0405
     12 N          -0.1217    0.4640   -0.1472 N.am    1  UNL1       -0.2888
     13 C          -0.3963    0.8483   -1.5223 C.2     1  UNL1        0.2228
     14 O           0.4349    0.6017   -2.4350 O.2     1  UNL1       -0.2750
     15 C          -1.7070    1.5512   -1.8250 C.3     1  UNL1        0.0550
     16 C          -1.7166    2.9676   -1.3469 C.3     1  UNL1       -0.0507
     17 C          -1.9118    1.5517   -3.3087 C.3     1  UNL1        0.0584
     18 C          -0.8732    2.2589   -4.0734 C.2     1  UNL1        0.3057
     19 O           0.0885    2.8814   -3.5590 O.2     1  UNL1       -0.2510
     20 O          -0.8878    2.2862   -5.4833 O.3     1  UNL1       -0.4806
     21 C          -2.8323    0.7510   -1.1902 C.3     1  UNL1       -0.0299
     22 C          -2.2699   -0.5031   -0.5594 C.3     1  UNL1        0.0079
     23 C          -3.3268   -1.3396    0.0106 C.ar    1  UNL1       -0.0408
     24 C          -4.2000   -0.8404    0.9498 C.ar    1  UNL1       -0.0582
     25 C          -5.1963   -1.6338    1.4875 C.ar    1  UNL1       -0.0601
     26 C          -5.3106   -2.9431    1.0721 C.ar    1  UNL1       -0.0434
     27 C          -4.4329   -3.4519    0.1254 C.ar    1  UNL1        0.0412
     28 CL         -4.5509   -5.1230   -0.4282 Cl      1  UNL1       -0.0835
     29 C          -3.4535   -2.6487   -0.3941 C.ar    1  UNL1       -0.0399
     30 C          -1.2462   -0.0912    0.5249 C.3     1  UNL1        0.0583
     31 C          -1.0371   -1.2203    1.4290 C.ar    1  UNL1       -0.0263
     32 C          -0.4720   -2.3757    0.9586 C.ar    1  UNL1       -0.0554
     33 C          -0.2495   -3.4755    1.7568 C.ar    1  UNL1       -0.0431
     34 C          -0.6099   -3.4231    3.1008 C.ar    1  UNL1        0.0410
     35 CL         -0.3247   -4.8159    4.0977 Cl      1  UNL1       -0.0835
     36 C          -1.1822   -2.2677    3.5993 C.ar    1  UNL1       -0.0431
     37 C          -1.3925   -1.1706    2.7571 C.ar    1  UNL1       -0.0554
     38 H           1.1493    2.2551    3.3968 H       1  UNL1        0.0230
     39 H           0.9218    0.5429    3.0445 H       1  UNL1        0.0230
     40 H          -0.4169    1.7199    2.7917 H       1  UNL1        0.0230
     41 H           0.4926    2.6326    0.8714 H       1  UNL1        0.0281
     42 H           2.1643    2.3659    1.3924 H       1  UNL1        0.0281
     43 H           1.7961    1.1457   -0.5145 H       1  UNL1        0.0516
     44 H           1.9829   -1.2254    0.0094 H       1  UNL1        0.0518
     45 H           1.7259   -0.8740    1.7559 H       1  UNL1        0.0518
     46 H           6.7449    0.7406   -0.8018 H       1  UNL1        0.0251
     47 H           6.3232    0.0411    0.8463 H       1  UNL1        0.0251
     48 H           6.0483    1.7585    0.4831 H       1  UNL1        0.0251
     49 H           3.5794    1.5500   -1.9775 H       1  UNL1        0.0251
     50 H           5.0926    2.2705   -1.4684 H       1  UNL1        0.0251
     51 H           3.7295    2.5133   -0.3878 H       1  UNL1        0.0251
     52 H           5.5252   -0.2169   -2.1842 H       1  UNL1        0.0251
     53 H           4.9198   -1.5575   -1.1127 H       1  UNL1        0.0251
     54 H           3.7759   -0.5198   -2.1148 H       1  UNL1        0.0251
     55 H          -2.2910    3.6505   -2.0027 H       1  UNL1        0.0240
     56 H          -0.6747    3.3872   -1.3326 H       1  UNL1        0.0240
     57 H          -2.1846    3.0750   -0.3300 H       1  UNL1        0.0240
     58 H          -2.0707    0.5242   -3.7071 H       1  UNL1        0.0388
     59 H          -2.8765    2.1039   -3.5201 H       1  UNL1        0.0388
     60 H          -0.4741    3.0767   -5.9577 H       1  UNL1        0.2951
     61 H          -3.6227    0.4652   -1.8917 H       1  UNL1        0.0282
     62 H          -3.2699    1.3651   -0.3849 H       1  UNL1        0.0282
     63 H          -1.6832   -1.0679   -1.3088 H       1  UNL1        0.0370
     64 H          -4.1383    0.1809    1.2970 H       1  UNL1        0.0620
     65 H          -5.8938   -1.2569    2.2286 H       1  UNL1        0.0618
     66 H          -6.0647   -3.6165    1.4511 H       1  UNL1        0.0632
     67 H          -2.7750   -3.0826   -1.1418 H       1  UNL1        0.0635
     68 H          -1.7543    0.7158    1.0873 H       1  UNL1        0.0556
     69 H          -0.1892   -2.4306   -0.0744 H       1  UNL1        0.0621
     70 H           0.1962   -4.3773    1.3718 H       1  UNL1        0.0632
     71 H          -1.4749   -2.1895    4.6365 H       1  UNL1        0.0632
     72 H          -1.8437   -0.3007    3.2112 H       1  UNL1        0.0621
@<TRIPOS>BOND
     1     1     2    1
     2     2     3    1
     3     3     4    1
     4     4     5    1
     5     5     6    2
     6     5     7    2
     7     5     8    1
     8     8     9    1
     9     8    10    1
    10     8    11    1
    11     3    12    1
    12    12    13   am
    13    13    14    2
    14    13    15    1
    15    15    16    1
    16    15    17    1
    17    17    18    1
    18    18    19    2
    19    18    20    1
    20    15    21    1
    21    21    22    1
    22    22    23    1
    23    23    24   ar
    24    24    25   ar
    25    25    26   ar
    26    26    27   ar
    27    27    28    1
    28    27    29   ar
    29    22    30    1
    30    30    31    1
    31    31    32   ar
    32    32    33   ar
    33    33    34   ar
    34    34    35    1
    35    34    36   ar
    36    36    37   ar
    37    30    12    1
    38    37    31   ar
    39    29    23   ar
    40     1    38    1
    41     1    39    1
    42     1    40    1
    43     2    41    1
    44     2    42    1
    45     3    43    1
    46     4    44    1
    47     4    45    1
    48     9    46    1
    49     9    47    1
    50     9    48    1
    51    10    49    1
    52    10    50    1
    53    10    51    1
    54    11    52    1
    55    11    53    1
    56    11    54    1
    57    16    55    1
    58    16    56    1
    59    16    57    1
    60    17    58    1
    61    17    59    1
    62    20    60    1
    63    21    61    1
    64    21    62    1
    65    22    63    1
    66    24    64    1
    67    25    65    1
    68    26    66    1
    69    29    67    1
    70    30    68    1
    71    32    69    1
    72    33    70    1
    73    36    71    1
    74    37    72    1
