@<TRIPOS>MOLECULE
*****
 51 52 0 0 0
SMALL
GASTEIGER

@<TRIPOS>ATOM
      1 C          -4.6094   -0.5797   -0.6749 C.3     1  UNL1        0.0600
      2 C          -4.6489   -1.0216    0.7545 C.3     1  UNL1       -0.0427
      3 C          -4.1413   -2.4002    1.0097 C.3     1  UNL1       -0.0645
      4 C          -3.2214   -0.5665   -1.2785 C.3     1  UNL1       -0.0148
      5 C          -2.3076    0.3362   -0.5720 C.ar    1  UNL1       -0.0460
      6 C          -1.4919    0.0312    0.4833 C.ar    1  UNL1       -0.0504
      7 C          -0.6701    0.9652    1.0764 C.ar    1  UNL1        0.0115
      8 C           0.2151    0.6671    2.2156 C.3     1  UNL1        0.0406
      9 N           1.6010    0.5600    1.8569 N.am    1  UNL1       -0.3070
     10 C           2.1304   -0.3649    0.9526 C.2     1  UNL1        0.2471
     11 O           1.1996   -1.1090    0.4860 O.2     1  UNL1       -0.2701
     12 C           3.5097   -0.5357    0.5394 C.ar    1  UNL1        0.0718
     13 C           4.6259    0.1640    0.9195 C.ar    1  UNL1        0.1360
     14 F           4.4229    1.1574    1.8054 F       1  UNL1       -0.2047
     15 C           5.9039   -0.0741    0.4694 C.ar    1  UNL1       -0.0141
     16 C           6.1213   -1.0876   -0.4362 C.ar    1  UNL1        0.0576
     17 C           5.0296   -1.8201   -0.8490 C.ar    1  UNL1       -0.0492
     18 C           3.7616   -1.5576   -0.3800 C.ar    1  UNL1       -0.0463
     19 C           7.4764   -1.3894   -0.9551 C.3     1  UNL1        0.4175
     20 F           7.8689   -2.6991   -0.7071 F       1  UNL1       -0.1659
     21 F           8.3787   -0.5402   -0.3082 F       1  UNL1       -0.1659
     22 F           7.5110   -1.0923   -2.3011 F       1  UNL1       -0.1659
     23 C          -0.6288    2.2812    0.6258 C.ar    1  UNL1        0.1248
     24 O           0.1918    3.2355    1.2098 O.3     1  UNL1       -0.4948
     25 C           0.2139    4.5696    0.7303 C.3     1  UNL1        0.0788
     26 C          -1.4346    2.6480   -0.4415 C.ar    1  UNL1       -0.0194
     27 C          -2.2351    1.6697   -0.9935 C.ar    1  UNL1       -0.0551
     28 C          -5.5671   -1.3094   -1.5421 C.2     1  UNL1        0.3081
     29 O          -5.5229   -2.6758   -1.7149 O.3     1  UNL1       -0.4804
     30 O          -6.4989   -0.7414   -2.1917 O.2     1  UNL1       -0.2507
     31 H          -4.9301    0.5044   -0.6608 H       1  UNL1        0.0416
     32 H          -4.0263   -0.3062    1.3284 H       1  UNL1        0.0271
     33 H          -5.6928   -0.8889    1.1047 H       1  UNL1        0.0271
     34 H          -3.9516   -2.9629    0.0620 H       1  UNL1        0.0230
     35 H          -3.2418   -2.4241    1.6513 H       1  UNL1        0.0230
     36 H          -4.9634   -2.9722    1.5326 H       1  UNL1        0.0230
     37 H          -2.8104   -1.5949   -1.3657 H       1  UNL1        0.0321
     38 H          -3.3357   -0.2010   -2.3198 H       1  UNL1        0.0321
     39 H          -1.5139   -0.9830    0.8430 H       1  UNL1        0.0625
     40 H           0.0538    1.3539    3.0694 H       1  UNL1        0.0513
     41 H          -0.0714   -0.3449    2.6205 H       1  UNL1        0.0513
     42 H           2.2499    1.2264    2.3107 H       1  UNL1        0.1493
     43 H           6.7136    0.5409    0.8367 H       1  UNL1        0.0652
     44 H           5.1556   -2.6257   -1.5601 H       1  UNL1        0.0623
     45 H           2.9435   -2.1717   -0.7452 H       1  UNL1        0.0626
     46 H           0.9377    5.1385    1.3357 H       1  UNL1        0.0660
     47 H           0.4369    4.5681   -0.3566 H       1  UNL1        0.0660
     48 H          -0.8200    4.9664    0.9102 H       1  UNL1        0.0660
     49 H          -1.4591    3.6483   -0.8481 H       1  UNL1        0.0654
     50 H          -2.8670    1.9746   -1.8371 H       1  UNL1        0.0621
     51 H          -5.9913   -3.1659   -2.4883 H       1  UNL1        0.2951
@<TRIPOS>BOND
     1     1     2    1
     2     2     3    1
     3     1     4    1
     4     4     5    1
     5     5     6   ar
     6     6     7   ar
     7     7     8    1
     8     8     9    1
     9     9    10   am
    10    10    11    2
    11    10    12    1
    12    12    13   ar
    13    13    14    1
    14    13    15   ar
    15    15    16   ar
    16    16    17   ar
    17    17    18   ar
    18    16    19    1
    19    19    20    1
    20    19    21    1
    21    19    22    1
    22     7    23   ar
    23    23    24    1
    24    24    25    1
    25    23    26   ar
    26    26    27   ar
    27     1    28    1
    28    28    29    1
    29    28    30    2
    30    27     5   ar
    31    18    12   ar
    32     1    31    1
    33     2    32    1
    34     2    33    1
    35     3    34    1
    36     3    35    1
    37     3    36    1
    38     4    37    1
    39     4    38    1
    40     6    39    1
    41     8    40    1
    42     8    41    1
    43     9    42    1
    44    15    43    1
    45    17    44    1
    46    18    45    1
    47    25    46    1
    48    25    47    1
    49    25    48    1
    50    26    49    1
    51    27    50    1
    52    29    51    1
