
     RDKit          3D

 51 52  0  0  0  0  0  0  0  0999 V2000
   -4.6094   -0.5797   -0.6749 C   0  0  1  0  0  0  0  0  0  0  0  0
   -4.6489   -1.0216    0.7545 C   0  0  0  0  0  0  0  0  0  0  0  0
   -4.1413   -2.4002    1.0097 C   0  0  0  0  0  0  0  0  0  0  0  0
   -3.2214   -0.5665   -1.2785 C   0  0  0  0  0  0  0  0  0  0  0  0
   -2.3076    0.3362   -0.5720 C   0  0  0  0  0  0  0  0  0  0  0  0
   -1.4919    0.0312    0.4833 C   0  0  0  0  0  0  0  0  0  0  0  0
   -0.6701    0.9652    1.0764 C   0  0  0  0  0  0  0  0  0  0  0  0
    0.2151    0.6671    2.2156 C   0  0  0  0  0  0  0  0  0  0  0  0
    1.6010    0.5600    1.8569 N   0  0  0  0  0  0  0  0  0  0  0  0
    2.1304   -0.3649    0.9526 C   0  0  0  0  0  0  0  0  0  0  0  0
    1.1996   -1.1090    0.4860 O   0  0  0  0  0  0  0  0  0  0  0  0
    3.5097   -0.5357    0.5394 C   0  0  0  0  0  0  0  0  0  0  0  0
    4.6259    0.1640    0.9195 C   0  0  0  0  0  0  0  0  0  0  0  0
    4.4229    1.1574    1.8054 F   0  0  0  0  0  0  0  0  0  0  0  0
    5.9039   -0.0741    0.4694 C   0  0  0  0  0  0  0  0  0  0  0  0
    6.1213   -1.0876   -0.4362 C   0  0  0  0  0  0  0  0  0  0  0  0
    5.0296   -1.8201   -0.8490 C   0  0  0  0  0  0  0  0  0  0  0  0
    3.7616   -1.5576   -0.3800 C   0  0  0  0  0  0  0  0  0  0  0  0
    7.4764   -1.3894   -0.9551 C   0  0  0  0  0  0  0  0  0  0  0  0
    7.8689   -2.6991   -0.7071 F   0  0  0  0  0  0  0  0  0  0  0  0
    8.3787   -0.5402   -0.3082 F   0  0  0  0  0  0  0  0  0  0  0  0
    7.5110   -1.0923   -2.3011 F   0  0  0  0  0  0  0  0  0  0  0  0
   -0.6288    2.2812    0.6258 C   0  0  0  0  0  0  0  0  0  0  0  0
    0.1918    3.2355    1.2098 O   0  0  0  0  0  0  0  0  0  0  0  0
    0.2139    4.5696    0.7303 C   0  0  0  0  0  0  0  0  0  0  0  0
   -1.4346    2.6480   -0.4415 C   0  0  0  0  0  0  0  0  0  0  0  0
   -2.2351    1.6697   -0.9935 C   0  0  0  0  0  0  0  0  0  0  0  0
   -5.5671   -1.3094   -1.5421 C   0  0  0  0  0  0  0  0  0  0  0  0
   -5.5229   -2.6758   -1.7149 O   0  0  0  0  0  0  0  0  0  0  0  0
   -6.4989   -0.7414   -2.1917 O   0  0  0  0  0  0  0  0  0  0  0  0
   -4.9301    0.5044   -0.6608 H   0  0  0  0  0  0  0  0  0  0  0  0
   -4.0263   -0.3062    1.3284 H   0  0  0  0  0  0  0  0  0  0  0  0
   -5.6928   -0.8889    1.1047 H   0  0  0  0  0  0  0  0  0  0  0  0
   -3.9516   -2.9629    0.0620 H   0  0  0  0  0  0  0  0  0  0  0  0
   -3.2418   -2.4241    1.6513 H   0  0  0  0  0  0  0  0  0  0  0  0
   -4.9634   -2.9722    1.5326 H   0  0  0  0  0  0  0  0  0  0  0  0
   -2.8104   -1.5949   -1.3657 H   0  0  0  0  0  0  0  0  0  0  0  0
   -3.3357   -0.2010   -2.3198 H   0  0  0  0  0  0  0  0  0  0  0  0
   -1.5139   -0.9830    0.8430 H   0  0  0  0  0  0  0  0  0  0  0  0
    0.0538    1.3539    3.0694 H   0  0  0  0  0  0  0  0  0  0  0  0
   -0.0714   -0.3449    2.6205 H   0  0  0  0  0  0  0  0  0  0  0  0
    2.2499    1.2264    2.3107 H   0  0  0  0  0  0  0  0  0  0  0  0
    6.7136    0.5409    0.8367 H   0  0  0  0  0  0  0  0  0  0  0  0
    5.1556   -2.6257   -1.5601 H   0  0  0  0  0  0  0  0  0  0  0  0
    2.9435   -2.1717   -0.7452 H   0  0  0  0  0  0  0  0  0  0  0  0
    0.9377    5.1385    1.3357 H   0  0  0  0  0  0  0  0  0  0  0  0
    0.4369    4.5681   -0.3566 H   0  0  0  0  0  0  0  0  0  0  0  0
   -0.8200    4.9664    0.9102 H   0  0  0  0  0  0  0  0  0  0  0  0
   -1.4591    3.6483   -0.8481 H   0  0  0  0  0  0  0  0  0  0  0  0
   -2.8670    1.9746   -1.8371 H   0  0  0  0  0  0  0  0  0  0  0  0
   -5.9913   -3.1659   -2.4883 H   0  0  0  0  0  0  0  0  0  0  0  0
  1  2  1  0
  2  3  1  0
  1  4  1  0
  4  5  1  0
  5  6  2  0
  6  7  1  0
  7  8  1  0
  8  9  1  0
  9 10  1  0
 10 11  2  0
 10 12  1  0
 12 13  2  0
 13 14  1  0
 13 15  1  0
 15 16  2  0
 16 17  1  0
 17 18  2  0
 16 19  1  0
 19 20  1  0
 19 21  1  0
 19 22  1  0
  7 23  2  0
 23 24  1  0
 24 25  1  0
 23 26  1  0
 26 27  2  0
  1 28  1  0
 28 29  1  0
 28 30  2  0
 27  5  1  0
 18 12  1  0
  1 31  1  1
  2 32  1  0
  2 33  1  0
  3 34  1  0
  3 35  1  0
  3 36  1  0
  4 37  1  0
  4 38  1  0
  6 39  1  0
  8 40  1  0
  8 41  1  0
  9 42  1  0
 15 43  1  0
 17 44  1  0
 18 45  1  0
 25 46  1  0
 25 47  1  0
 25 48  1  0
 26 49  1  0
 27 50  1  0
 29 51  1  0
M  END
$$$$
