@<TRIPOS>MOLECULE
*****
 71 75 0 0 0
SMALL
GASTEIGER

@<TRIPOS>ATOM
      1 C          -8.5316   -1.2990    4.7952 C.3     1  UNL1       -0.0524
      2 C          -8.2881   -1.3643    3.3207 C.3     1  UNL1       -0.0039
      3 N          -7.0018   -1.8834    2.9358 N.3     1  UNL1       -0.3002
      4 C          -6.9143   -1.8828    1.5163 C.3     1  UNL1        0.0117
      5 C          -5.5345   -1.9869    0.9605 C.3     1  UNL1        0.0117
      6 N          -4.6935   -1.0119    1.5973 N.3     1  UNL1       -0.2996
      7 C          -5.3022    0.2883    1.5201 C.3     1  UNL1        0.0024
      8 C          -4.4040    1.3631    2.1049 C.3     1  UNL1       -0.0216
      9 C          -3.1251    1.5040    1.3680 C.2     1  UNL1       -0.0822
     10 C          -2.8850    0.8446    0.2736 C.2     1  UNL1       -0.0584
     11 C          -1.6113    0.9970   -0.4478 C.ar    1  UNL1       -0.0233
     12 C          -0.5693    1.7477    0.0069 C.ar    1  UNL1       -0.0539
     13 C           0.6038    1.9225   -0.7514 C.ar    1  UNL1       -0.0502
     14 C           0.7324    1.3308   -1.9872 C.ar    1  UNL1        0.0228
     15 C           1.8909    1.5207   -2.7425 C.ar    1  UNL1        0.0597
     16 N           2.9801    2.2950   -2.2803 N.pl3   1  UNL1       -0.3129
     17 C           4.1332    1.7775   -1.6771 C.ar    1  UNL1        0.0328
     18 C           4.3157    0.4224   -1.6327 C.ar    1  UNL1       -0.0394
     19 C           5.4714   -0.0907   -1.0274 C.ar    1  UNL1       -0.0447
     20 C           6.4161    0.7627   -0.4811 C.ar    1  UNL1        0.0340
     21 S           7.8922    0.1264    0.2705 S.3     1  UNL1       -0.0502
     22 C           9.2273    0.0368   -0.9132 C.ar    1  UNL1        0.1735
     23 N          10.1444    0.9917   -1.1504 N.ar    1  UNL1       -0.2300
     24 C          11.0016    0.6087   -2.1362 C.ar    1  UNL1        0.0466
     25 C          10.5647   -0.6571   -2.5087 C.ar    1  UNL1        0.0247
     26 N           9.5115   -0.9645   -1.7640 N.ar    1  UNL1       -0.3284
     27 C           8.7611   -2.2268   -1.8621 C.3     1  UNL1        0.0137
     28 C           6.2115    2.1142   -0.5369 C.ar    1  UNL1        0.0565
     29 CL          7.3622    3.2405    0.1376 Cl      1  UNL1       -0.0823
     30 C           5.0641    2.6348   -1.1380 C.ar    1  UNL1       -0.0211
     31 C           1.9649    0.9111   -4.0010 C.ar    1  UNL1        0.0915
     32 C           3.1072    1.0377   -4.8571 C.1     1  UNL1        0.1026
     33 N           4.0265    1.1496   -5.5518 N.1     1  UNL1       -0.1908
     34 C           0.8928    0.1618   -4.4103 C.ar    1  UNL1        0.0474
     35 N          -0.2101    0.0026   -3.6509 N.ar    1  UNL1       -0.2536
     36 C          -0.3296    0.5662   -2.4446 C.ar    1  UNL1        0.0734
     37 C          -1.4776    0.3956   -1.7023 C.ar    1  UNL1       -0.0285
     38 C          -4.5813   -1.4361    2.9854 C.3     1  UNL1        0.0117
     39 C          -5.9186   -1.3424    3.6678 C.3     1  UNL1        0.0117
     40 H          -8.2983   -2.2097    5.3465 H       1  UNL1        0.0242
     41 H          -8.0715   -0.3789    5.2340 H       1  UNL1        0.0242
     42 H          -9.6429   -1.1258    4.9231 H       1  UNL1        0.0242
     43 H          -9.0886   -1.9447    2.7818 H       1  UNL1        0.0424
     44 H          -8.3960   -0.3249    2.9107 H       1  UNL1        0.0424
     45 H          -7.3873   -0.9487    1.0873 H       1  UNL1        0.0439
     46 H          -7.4986   -2.7664    1.1497 H       1  UNL1        0.0439
     47 H          -5.5646   -1.8337   -0.1417 H       1  UNL1        0.0439
     48 H          -5.1026   -2.9948    1.2128 H       1  UNL1        0.0439
     49 H          -6.2135    0.2891    2.1409 H       1  UNL1        0.0429
     50 H          -5.5670    0.4684    0.4799 H       1  UNL1        0.0429
     51 H          -4.2593    1.1687    3.1652 H       1  UNL1        0.0320
     52 H          -4.9586    2.3309    1.9481 H       1  UNL1        0.0320
     53 H          -2.3839    2.1954    1.7823 H       1  UNL1        0.0573
     54 H          -3.6301    0.1765   -0.1169 H       1  UNL1        0.0620
     55 H          -0.6127    2.2268    0.9654 H       1  UNL1        0.0624
     56 H           1.4254    2.5036   -0.4028 H       1  UNL1        0.0625
     57 H           2.8953    3.3381   -2.4087 H       1  UNL1        0.1522
     58 H           3.6217   -0.3014   -2.0364 H       1  UNL1        0.0636
     59 H           5.6747   -1.1480   -0.9580 H       1  UNL1        0.0630
     60 H          11.8264    1.1944   -2.5125 H       1  UNL1        0.0845
     61 H          11.0712   -1.2168   -3.2987 H       1  UNL1        0.0825
     62 H           8.2767   -2.3064   -2.8589 H       1  UNL1        0.0456
     63 H           7.9857   -2.2117   -1.0728 H       1  UNL1        0.0456
     64 H           9.4246   -3.0879   -1.7273 H       1  UNL1        0.0456
     65 H           4.8984    3.6897   -1.1886 H       1  UNL1        0.0651
     66 H           0.9591   -0.3210   -5.4013 H       1  UNL1        0.0843
     67 H          -2.3144   -0.1938   -2.0393 H       1  UNL1        0.0645
     68 H          -3.8738   -0.8099    3.5474 H       1  UNL1        0.0439
     69 H          -4.1870   -2.4700    3.0062 H       1  UNL1        0.0439
     70 H          -5.8077   -1.9760    4.6031 H       1  UNL1        0.0439
     71 H          -6.0985   -0.3184    4.0738 H       1  UNL1        0.0439
@<TRIPOS>BOND
     1     1     2    1
     2     2     3    1
     3     3     4    1
     4     4     5    1
     5     5     6    1
     6     6     7    1
     7     7     8    1
     8     8     9    1
     9     9    10    2
    10    10    11    1
    11    11    12   ar
    12    12    13   ar
    13    13    14   ar
    14    14    15   ar
    15    15    16    1
    16    16    17    1
    17    17    18   ar
    18    18    19   ar
    19    19    20   ar
    20    20    21    1
    21    21    22    1
    22    22    23   ar
    23    23    24   ar
    24    24    25   ar
    25    25    26   ar
    26    26    27    1
    27    20    28   ar
    28    28    29    1
    29    28    30   ar
    30    15    31   ar
    31    31    32    1
    32    32    33    3
    33    31    34   ar
    34    34    35   ar
    35    35    36   ar
    36    36    37   ar
    37     6    38    1
    38    38    39    1
    39    39     3    1
    40    37    11   ar
    41    36    14   ar
    42    30    17   ar
    43    26    22   ar
    44     1    40    1
    45     1    41    1
    46     1    42    1
    47     2    43    1
    48     2    44    1
    49     4    45    1
    50     4    46    1
    51     5    47    1
    52     5    48    1
    53     7    49    1
    54     7    50    1
    55     8    51    1
    56     8    52    1
    57     9    53    1
    58    10    54    1
    59    12    55    1
    60    13    56    1
    61    16    57    1
    62    18    58    1
    63    19    59    1
    64    24    60    1
    65    25    61    1
    66    27    62    1
    67    27    63    1
    68    27    64    1
    69    30    65    1
    70    34    66    1
    71    37    67    1
    72    38    68    1
    73    38    69    1
    74    39    70    1
    75    39    71    1
