@<TRIPOS>MOLECULE
*****
 69 73 0 0 0
SMALL
GASTEIGER

@<TRIPOS>ATOM
      1 C           0.1557    1.3411    2.8146 C.3     1  UNL1       -0.0421
      2 C           0.0184    1.5560    1.3232 C.3     1  UNL1        0.0515
      3 C           1.2612    1.1553    0.6650 C.ar    1  UNL1       -0.0271
      4 C           1.3951    1.0406   -0.7106 C.ar    1  UNL1       -0.0562
      5 C           2.6077    0.6561   -1.2912 C.ar    1  UNL1       -0.0522
      6 C           3.6978    0.3824   -0.5084 C.ar    1  UNL1        0.0021
      7 C           4.9946   -0.0290   -1.0824 C.ar    1  UNL1        0.0916
      8 C           5.1665   -0.1618   -2.4352 C.ar    1  UNL1       -0.0289
      9 C           6.3979   -0.5554   -2.9770 C.ar    1  UNL1        0.0064
     10 C           7.4351   -0.8071   -2.1283 C.ar    1  UNL1        0.2675
     11 O           8.5590   -1.1645   -2.5902 O.2     1  UNL1       -0.2662
     12 N           7.2283   -0.6650   -0.7953 N.ar    1  UNL1       -0.2259
     13 C           8.3267   -0.9284    0.1145 C.3     1  UNL1        0.0566
     14 C           9.7007   -0.5027   -0.1936 C.3     1  UNL1       -0.0284
     15 C           8.8749    0.3099    0.7884 C.3     1  UNL1       -0.0284
     16 N           6.0527   -0.2908   -0.3002 N.ar    1  UNL1       -0.1680
     17 C           3.5796    0.4919    0.8566 C.ar    1  UNL1       -0.0522
     18 C           2.3792    0.8709    1.4023 C.ar    1  UNL1       -0.0562
     19 N          -1.1492    0.9290    0.7913 N.am    1  UNL1       -0.2605
     20 C          -1.2731   -0.5102    0.8389 C.3     1  UNL1        0.0224
     21 C          -2.2088   -1.0423   -0.2019 C.3     1  UNL1        0.0076
     22 C          -3.5258   -0.2585   -0.1977 C.3     1  UNL1        0.1440
     23 C          -4.0901   -0.2699    1.1649 C.3     1  UNL1        0.0199
     24 C          -5.3551    0.4610    1.4043 C.3     1  UNL1        0.0645
     25 C          -6.5522    0.0359    0.6265 C.3     1  UNL1       -0.0362
     26 C          -5.1997    1.9693    1.2989 C.3     1  UNL1       -0.0362
     27 O          -5.6839    0.2436    2.7690 O.3     1  UNL1       -0.3890
     28 C          -4.3465   -0.9211   -1.2461 C.ar    1  UNL1       -0.0040
     29 C          -4.9851   -2.0929   -0.9151 C.ar    1  UNL1       -0.0548
     30 C          -5.7742   -2.7935   -1.8047 C.ar    1  UNL1       -0.0614
     31 C          -5.9091   -2.2709   -3.0734 C.ar    1  UNL1       -0.0617
     32 C          -5.2755   -1.0889   -3.4356 C.ar    1  UNL1       -0.0614
     33 C          -4.5047   -0.4347   -2.5140 C.ar    1  UNL1       -0.0548
     34 O          -3.1936    1.0694   -0.5673 O.3     1  UNL1       -0.4387
     35 C          -2.1944    1.6936    0.2102 C.2     1  UNL1        0.4042
     36 O          -2.2310    2.9463    0.3906 O.2     1  UNL1       -0.2262
     37 H           0.8643    2.0289    3.2843 H       1  UNL1        0.0251
     38 H           0.5066    0.3080    2.9844 H       1  UNL1        0.0251
     39 H          -0.8613    1.3915    3.2657 H       1  UNL1        0.0251
     40 H          -0.0311    2.6854    1.2120 H       1  UNL1        0.0549
     41 H           0.5245    1.2613   -1.3022 H       1  UNL1        0.0621
     42 H           2.6543    0.5825   -2.3865 H       1  UNL1        0.0624
     43 H           4.3958    0.0194   -3.1577 H       1  UNL1        0.0641
     44 H           6.5277   -0.6582   -4.0349 H       1  UNL1        0.0673
     45 H           8.1529   -1.8376    0.7379 H       1  UNL1        0.0546
     46 H           9.9826   -0.0184   -1.1351 H       1  UNL1        0.0286
     47 H          10.5071   -1.1145    0.2935 H       1  UNL1        0.0286
     48 H           8.5807    1.3065    0.4611 H       1  UNL1        0.0286
     49 H           9.0843    0.1745    1.8728 H       1  UNL1        0.0286
     50 H           4.4364    0.2767    1.4725 H       1  UNL1        0.0624
     51 H           2.3644    0.9365    2.4977 H       1  UNL1        0.0621
     52 H          -1.6083   -0.8950    1.8293 H       1  UNL1        0.0467
     53 H          -0.2504   -0.9144    0.6665 H       1  UNL1        0.0467
     54 H          -2.3995   -2.1105    0.0364 H       1  UNL1        0.0322
     55 H          -1.7449   -0.9142   -1.2005 H       1  UNL1        0.0322
     56 H          -3.3313    0.1702    1.8532 H       1  UNL1        0.0335
     57 H          -4.2239   -1.3157    1.5490 H       1  UNL1        0.0335
     58 H          -6.8978   -0.9697    0.8730 H       1  UNL1        0.0257
     59 H          -7.3985    0.7131    0.9860 H       1  UNL1        0.0257
     60 H          -6.5060    0.2718   -0.4617 H       1  UNL1        0.0257
     61 H          -4.4678    2.3840    1.9910 H       1  UNL1        0.0257
     62 H          -5.0256    2.3101    0.2758 H       1  UNL1        0.0257
     63 H          -6.2027    2.3857    1.5988 H       1  UNL1        0.0257
     64 H          -4.8899    0.4622    3.2935 H       1  UNL1        0.2101
     65 H          -4.9001   -2.5309    0.0714 H       1  UNL1        0.0622
     66 H          -6.2636   -3.7156   -1.5090 H       1  UNL1        0.0618
     67 H          -6.5308   -2.8065   -3.8022 H       1  UNL1        0.0618
     68 H          -5.4120   -0.7089   -4.4616 H       1  UNL1        0.0618
     69 H          -4.0153    0.4769   -2.7906 H       1  UNL1        0.0622
@<TRIPOS>BOND
     1     1     2    1
     2     2     3    1
     3     3     4   ar
     4     4     5   ar
     5     5     6   ar
     6     6     7    1
     7     7     8   ar
     8     8     9   ar
     9     9    10   ar
    10    10    11    2
    11    10    12   ar
    12    12    13    1
    13    13    14    1
    14    14    15    1
    15    12    16   ar
    16     6    17   ar
    17    17    18   ar
    18     2    19    1
    19    19    20    1
    20    20    21    1
    21    21    22    1
    22    22    23    1
    23    23    24    1
    24    24    25    1
    25    24    26    1
    26    24    27    1
    27    22    28    1
    28    28    29   ar
    29    29    30   ar
    30    30    31   ar
    31    31    32   ar
    32    32    33   ar
    33    22    34    1
    34    34    35    1
    35    35    36    2
    36    18     3   ar
    37    35    19   am
    38    16     7   ar
    39    33    28   ar
    40    15    13    1
    41     1    37    1
    42     1    38    1
    43     1    39    1
    44     2    40    1
    45     4    41    1
    46     5    42    1
    47     8    43    1
    48     9    44    1
    49    13    45    1
    50    14    46    1
    51    14    47    1
    52    15    48    1
    53    15    49    1
    54    17    50    1
    55    18    51    1
    56    20    52    1
    57    20    53    1
    58    21    54    1
    59    21    55    1
    60    23    56    1
    61    23    57    1
    62    25    58    1
    63    25    59    1
    64    25    60    1
    65    26    61    1
    66    26    62    1
    67    26    63    1
    68    27    64    1
    69    29    65    1
    70    30    66    1
    71    31    67    1
    72    32    68    1
    73    33    69    1
