
     RDKit          3D

 69 73  0  0  0  0  0  0  0  0999 V2000
    0.1557    1.3411    2.8146 C   0  0  0  0  0  0  0  0  0  0  0  0
    0.0184    1.5560    1.3232 C   0  0  1  0  0  0  0  0  0  0  0  0
    1.2612    1.1553    0.6650 C   0  0  0  0  0  0  0  0  0  0  0  0
    1.3951    1.0406   -0.7106 C   0  0  0  0  0  0  0  0  0  0  0  0
    2.6077    0.6561   -1.2912 C   0  0  0  0  0  0  0  0  0  0  0  0
    3.6978    0.3824   -0.5084 C   0  0  0  0  0  0  0  0  0  0  0  0
    4.9946   -0.0290   -1.0824 C   0  0  0  0  0  0  0  0  0  0  0  0
    5.1665   -0.1618   -2.4352 C   0  0  0  0  0  0  0  0  0  0  0  0
    6.3979   -0.5554   -2.9770 C   0  0  0  0  0  0  0  0  0  0  0  0
    7.4351   -0.8071   -2.1283 C   0  0  0  0  0  0  0  0  0  0  0  0
    8.5590   -1.1645   -2.5902 O   0  0  0  0  0  0  0  0  0  0  0  0
    7.2283   -0.6650   -0.7953 N   0  0  0  0  0  0  0  0  0  0  0  0
    8.3267   -0.9284    0.1145 C   0  0  0  0  0  0  0  0  0  0  0  0
    9.7007   -0.5027   -0.1936 C   0  0  0  0  0  0  0  0  0  0  0  0
    8.8749    0.3099    0.7884 C   0  0  0  0  0  0  0  0  0  0  0  0
    6.0527   -0.2908   -0.3002 N   0  0  0  0  0  0  0  0  0  0  0  0
    3.5796    0.4919    0.8566 C   0  0  0  0  0  0  0  0  0  0  0  0
    2.3792    0.8709    1.4023 C   0  0  0  0  0  0  0  0  0  0  0  0
   -1.1492    0.9290    0.7913 N   0  0  0  0  0  0  0  0  0  0  0  0
   -1.2731   -0.5102    0.8389 C   0  0  0  0  0  0  0  0  0  0  0  0
   -2.2088   -1.0423   -0.2019 C   0  0  0  0  0  0  0  0  0  0  0  0
   -3.5258   -0.2585   -0.1977 C   0  0  2  0  0  0  0  0  0  0  0  0
   -4.0901   -0.2699    1.1649 C   0  0  0  0  0  0  0  0  0  0  0  0
   -5.3551    0.4610    1.4043 C   0  0  0  0  0  0  0  0  0  0  0  0
   -6.5522    0.0359    0.6265 C   0  0  0  0  0  0  0  0  0  0  0  0
   -5.1997    1.9693    1.2989 C   0  0  0  0  0  0  0  0  0  0  0  0
   -5.6839    0.2436    2.7690 O   0  0  0  0  0  0  0  0  0  0  0  0
   -4.3465   -0.9211   -1.2461 C   0  0  0  0  0  0  0  0  0  0  0  0
   -4.9851   -2.0929   -0.9151 C   0  0  0  0  0  0  0  0  0  0  0  0
   -5.7742   -2.7935   -1.8047 C   0  0  0  0  0  0  0  0  0  0  0  0
   -5.9091   -2.2709   -3.0734 C   0  0  0  0  0  0  0  0  0  0  0  0
   -5.2755   -1.0889   -3.4356 C   0  0  0  0  0  0  0  0  0  0  0  0
   -4.5047   -0.4347   -2.5140 C   0  0  0  0  0  0  0  0  0  0  0  0
   -3.1936    1.0694   -0.5673 O   0  0  0  0  0  0  0  0  0  0  0  0
   -2.1944    1.6936    0.2102 C   0  0  0  0  0  0  0  0  0  0  0  0
   -2.2310    2.9463    0.3906 O   0  0  0  0  0  0  0  0  0  0  0  0
    0.8643    2.0289    3.2843 H   0  0  0  0  0  0  0  0  0  0  0  0
    0.5066    0.3080    2.9844 H   0  0  0  0  0  0  0  0  0  0  0  0
   -0.8613    1.3915    3.2657 H   0  0  0  0  0  0  0  0  0  0  0  0
   -0.0311    2.6854    1.2120 H   0  0  0  0  0  0  0  0  0  0  0  0
    0.5245    1.2613   -1.3022 H   0  0  0  0  0  0  0  0  0  0  0  0
    2.6543    0.5825   -2.3865 H   0  0  0  0  0  0  0  0  0  0  0  0
    4.3958    0.0194   -3.1577 H   0  0  0  0  0  0  0  0  0  0  0  0
    6.5277   -0.6582   -4.0349 H   0  0  0  0  0  0  0  0  0  0  0  0
    8.1529   -1.8376    0.7379 H   0  0  0  0  0  0  0  0  0  0  0  0
    9.9826   -0.0184   -1.1351 H   0  0  0  0  0  0  0  0  0  0  0  0
   10.5071   -1.1145    0.2935 H   0  0  0  0  0  0  0  0  0  0  0  0
    8.5807    1.3065    0.4611 H   0  0  0  0  0  0  0  0  0  0  0  0
    9.0843    0.1745    1.8728 H   0  0  0  0  0  0  0  0  0  0  0  0
    4.4364    0.2767    1.4725 H   0  0  0  0  0  0  0  0  0  0  0  0
    2.3644    0.9365    2.4977 H   0  0  0  0  0  0  0  0  0  0  0  0
   -1.6083   -0.8950    1.8293 H   0  0  0  0  0  0  0  0  0  0  0  0
   -0.2504   -0.9144    0.6665 H   0  0  0  0  0  0  0  0  0  0  0  0
   -2.3995   -2.1105    0.0364 H   0  0  0  0  0  0  0  0  0  0  0  0
   -1.7449   -0.9142   -1.2005 H   0  0  0  0  0  0  0  0  0  0  0  0
   -3.3313    0.1702    1.8532 H   0  0  0  0  0  0  0  0  0  0  0  0
   -4.2239   -1.3157    1.5490 H   0  0  0  0  0  0  0  0  0  0  0  0
   -6.8978   -0.9697    0.8730 H   0  0  0  0  0  0  0  0  0  0  0  0
   -7.3985    0.7131    0.9860 H   0  0  0  0  0  0  0  0  0  0  0  0
   -6.5060    0.2718   -0.4617 H   0  0  0  0  0  0  0  0  0  0  0  0
   -4.4678    2.3840    1.9910 H   0  0  0  0  0  0  0  0  0  0  0  0
   -5.0256    2.3101    0.2758 H   0  0  0  0  0  0  0  0  0  0  0  0
   -6.2027    2.3857    1.5988 H   0  0  0  0  0  0  0  0  0  0  0  0
   -4.8899    0.4622    3.2935 H   0  0  0  0  0  0  0  0  0  0  0  0
   -4.9001   -2.5309    0.0714 H   0  0  0  0  0  0  0  0  0  0  0  0
   -6.2636   -3.7156   -1.5090 H   0  0  0  0  0  0  0  0  0  0  0  0
   -6.5308   -2.8065   -3.8022 H   0  0  0  0  0  0  0  0  0  0  0  0
   -5.4120   -0.7089   -4.4616 H   0  0  0  0  0  0  0  0  0  0  0  0
   -4.0153    0.4769   -2.7906 H   0  0  0  0  0  0  0  0  0  0  0  0
  1  2  1  0
  2  3  1  0
  3  4  2  0
  4  5  1  0
  5  6  2  0
  6  7  1  0
  7  8  1  0
  8  9  2  0
  9 10  1  0
 10 11  2  0
 10 12  1  0
 12 13  1  0
 13 14  1  0
 14 15  1  0
 12 16  1  0
  6 17  1  0
 17 18  2  0
  2 19  1  0
 19 20  1  0
 20 21  1  0
 21 22  1  0
 22 23  1  1
 23 24  1  0
 24 25  1  0
 24 26  1  0
 24 27  1  0
 22 28  1  0
 28 29  2  0
 29 30  1  0
 30 31  2  0
 31 32  1  0
 32 33  2  0
 22 34  1  0
 34 35  1  0
 35 36  2  0
 18  3  1  0
 35 19  1  0
 16  7  2  0
 33 28  1  0
 15 13  1  0
  1 37  1  0
  1 38  1  0
  1 39  1  0
  2 40  1  1
  4 41  1  0
  5 42  1  0
  8 43  1  0
  9 44  1  0
 13 45  1  0
 14 46  1  0
 14 47  1  0
 15 48  1  0
 15 49  1  0
 17 50  1  0
 18 51  1  0
 20 52  1  0
 20 53  1  0
 21 54  1  0
 21 55  1  0
 23 56  1  0
 23 57  1  0
 25 58  1  0
 25 59  1  0
 25 60  1  0
 26 61  1  0
 26 62  1  0
 26 63  1  0
 27 64  1  0
 29 65  1  0
 30 66  1  0
 31 67  1  0
 32 68  1  0
 33 69  1  0
M  END
$$$$
