
     RDKit          3D

 64 68  0  0  0  0  0  0  0  0999 V2000
  -10.5441    0.3349    3.3209 C   0  0  0  0  0  0  0  0  0  0  0  0
   -9.3321   -0.3116    3.5417 O   0  0  0  0  0  0  0  0  0  0  0  0
   -8.1133   -0.0122    2.9654 C   0  0  0  0  0  0  0  0  0  0  0  0
   -7.9474    1.0157    2.0605 C   0  0  0  0  0  0  0  0  0  0  0  0
   -6.7044    1.2911    1.4974 C   0  0  0  0  0  0  0  0  0  0  0  0
   -6.5166    2.2822    0.6155 N   0  0  0  0  0  0  0  0  0  0  0  0
   -5.2874    2.5233    0.0824 C   0  0  0  0  0  0  0  0  0  0  0  0
   -4.1943    1.7642    0.4249 C   0  0  0  0  0  0  0  0  0  0  0  0
   -4.3464    0.7458    1.3209 C   0  0  0  0  0  0  0  0  0  0  0  0
   -3.3288   -0.0782    1.7405 O   0  0  0  0  0  0  0  0  0  0  0  0
   -2.0472    0.1109    1.2819 C   0  0  0  0  0  0  0  0  0  0  0  0
   -1.4320   -0.8775    0.5534 C   0  0  0  0  0  0  0  0  0  0  0  0
   -0.1204   -0.7211    0.0688 C   0  0  0  0  0  0  0  0  0  0  0  0
    0.5899    0.3970    0.2944 C   0  0  0  0  0  0  0  0  0  0  0  0
    1.9107    0.6117   -0.1536 N   0  0  0  0  0  0  0  0  0  0  0  0
    2.7015   -0.2961   -0.8640 C   0  0  0  0  0  0  0  0  0  0  0  0
    2.1830   -1.4407   -1.1448 O   0  0  0  0  0  0  0  0  0  0  0  0
    4.0629   -0.1046   -1.3357 C   0  0  0  0  0  0  0  0  0  0  0  0
    4.9144    0.9266   -1.1245 C   0  0  0  0  0  0  0  0  0  0  0  0
    4.7337    2.1653   -0.3287 C   0  0  0  0  0  0  0  0  0  0  0  0
    6.0872    0.6534   -1.7954 N   0  0  0  0  0  0  0  0  0  0  0  0
    7.2798    1.4802   -1.8513 C   0  0  0  0  0  0  0  0  0  0  0  0
    5.9898   -0.4993   -2.4068 N   0  0  0  0  0  0  0  0  0  0  0  0
    6.9922   -1.1362   -3.2099 C   0  0  0  0  0  0  0  0  0  0  0  0
    6.7298   -1.3774   -4.5507 C   0  0  0  0  0  0  0  0  0  0  0  0
    7.6810   -1.9962   -5.3449 C   0  0  0  0  0  0  0  0  0  0  0  0
    8.8997   -2.3830   -4.8253 C   0  0  0  0  0  0  0  0  0  0  0  0
    9.1652   -2.1452   -3.4923 C   0  0  0  0  0  0  0  0  0  0  0  0
    8.2144   -1.5294   -2.7087 C   0  0  0  0  0  0  0  0  0  0  0  0
    4.7714   -1.0000   -2.1552 C   0  0  0  0  0  0  0  0  0  0  0  0
    4.3280   -2.0898   -2.5785 O   0  0  0  0  0  0  0  0  0  0  0  0
   -0.0352    1.4156    1.0414 C   0  0  0  0  0  0  0  0  0  0  0  0
   -1.3111    1.2501    1.5067 C   0  0  0  0  0  0  0  0  0  0  0  0
   -1.8396    2.2816    2.2379 F   0  0  0  0  0  0  0  0  0  0  0  0
   -5.6215    0.5167    1.8559 C   0  0  0  0  0  0  0  0  0  0  0  0
   -5.7632   -0.5213    2.7627 C   0  0  0  0  0  0  0  0  0  0  0  0
   -7.0134   -0.7749    3.3095 C   0  0  0  0  0  0  0  0  0  0  0  0
   -7.2022   -1.8066    4.2227 O   0  0  0  0  0  0  0  0  0  0  0  0
   -6.0829   -2.5944    4.5793 C   0  0  0  0  0  0  0  0  0  0  0  0
  -11.3264   -0.4757    3.2241 H   0  0  0  0  0  0  0  0  0  0  0  0
  -10.5522    1.0043    2.4572 H   0  0  0  0  0  0  0  0  0  0  0  0
  -10.8320    0.8603    4.2788 H   0  0  0  0  0  0  0  0  0  0  0  0
   -8.7538    1.6349    1.7586 H   0  0  0  0  0  0  0  0  0  0  0  0
   -5.2093    3.3384   -0.6219 H   0  0  0  0  0  0  0  0  0  0  0  0
   -3.2123    1.9395    0.0017 H   0  0  0  0  0  0  0  0  0  0  0  0
   -1.9550   -1.7914    0.3444 H   0  0  0  0  0  0  0  0  0  0  0  0
    0.2540   -1.5481   -0.4848 H   0  0  0  0  0  0  0  0  0  0  0  0
    2.3654    1.5656    0.0575 H   0  0  0  0  0  0  0  0  0  0  0  0
    4.4868    1.9759    0.7329 H   0  0  0  0  0  0  0  0  0  0  0  0
    4.0273    2.8153   -0.8754 H   0  0  0  0  0  0  0  0  0  0  0  0
    5.7181    2.7160   -0.3055 H   0  0  0  0  0  0  0  0  0  0  0  0
    7.9603    1.1650   -2.6624 H   0  0  0  0  0  0  0  0  0  0  0  0
    7.8480    1.4860   -0.9178 H   0  0  0  0  0  0  0  0  0  0  0  0
    7.0001    2.5412   -2.0559 H   0  0  0  0  0  0  0  0  0  0  0  0
    5.7799   -1.0705   -4.9347 H   0  0  0  0  0  0  0  0  0  0  0  0
    7.4766   -2.1852   -6.3936 H   0  0  0  0  0  0  0  0  0  0  0  0
    9.6126   -2.8606   -5.4722 H   0  0  0  0  0  0  0  0  0  0  0  0
   10.1381   -2.4606   -3.1029 H   0  0  0  0  0  0  0  0  0  0  0  0
    8.4318   -1.3431   -1.6513 H   0  0  0  0  0  0  0  0  0  0  0  0
    0.5290    2.3070    1.2212 H   0  0  0  0  0  0  0  0  0  0  0  0
   -4.9254   -1.1204    3.0407 H   0  0  0  0  0  0  0  0  0  0  0  0
   -5.2523   -2.0128    4.9908 H   0  0  0  0  0  0  0  0  0  0  0  0
   -6.3858   -3.4549    5.2324 H   0  0  0  0  0  0  0  0  0  0  0  0
   -5.6748   -3.0965    3.6523 H   0  0  0  0  0  0  0  0  0  0  0  0
  1  2  1  0
  2  3  1  0
  3  4  2  0
  4  5  1  0
  5  6  2  0
  6  7  1  0
  7  8  2  0
  8  9  1  0
  9 10  1  0
 10 11  1  0
 11 12  2  0
 12 13  1  0
 13 14  2  0
 14 15  1  0
 15 16  1  0
 16 17  2  0
 16 18  1  0
 18 19  2  0
 19 20  1  0
 19 21  1  0
 21 22  1  0
 21 23  1  0
 23 24  1  0
 24 25  2  0
 25 26  1  0
 26 27  2  0
 27 28  1  0
 28 29  2  0
 23 30  1  0
 30 31  2  0
 14 32  1  0
 32 33  2  0
 33 34  1  0
  9 35  2  0
 35 36  1  0
 36 37  2  0
 37 38  1  0
 38 39  1  0
 37  3  1  0
 35  5  1  0
 33 11  1  0
 30 18  1  0
 29 24  1  0
  1 40  1  0
  1 41  1  0
  1 42  1  0
  4 43  1  0
  7 44  1  0
  8 45  1  0
 12 46  1  0
 13 47  1  0
 15 48  1  0
 20 49  1  0
 20 50  1  0
 20 51  1  0
 22 52  1  0
 22 53  1  0
 22 54  1  0
 25 55  1  0
 26 56  1  0
 27 57  1  0
 28 58  1  0
 29 59  1  0
 32 60  1  0
 36 61  1  0
 39 62  1  0
 39 63  1  0
 39 64  1  0
M  END
$$$$
