@<TRIPOS>MOLECULE
*****
 64 68 0 0 0
SMALL
GASTEIGER

@<TRIPOS>ATOM
      1 C         -10.5441    0.3349    3.3209 C.3     1  UNL1        0.0790
      2 O          -9.3321   -0.3116    3.5417 O.3     1  UNL1       -0.4914
      3 C          -8.1133   -0.0122    2.9654 C.ar    1  UNL1        0.1635
      4 C          -7.9474    1.0157    2.0605 C.ar    1  UNL1        0.0098
      5 C          -6.7044    1.2911    1.4974 C.ar    1  UNL1        0.0782
      6 N          -6.5166    2.2822    0.6155 N.ar    1  UNL1       -0.2546
      7 C          -5.2874    2.5233    0.0824 C.ar    1  UNL1        0.0318
      8 C          -4.1943    1.7642    0.4249 C.ar    1  UNL1       -0.0006
      9 C          -4.3464    0.7458    1.3209 C.ar    1  UNL1        0.1393
     10 O          -3.3288   -0.0782    1.7405 O.3     1  UNL1       -0.4524
     11 C          -2.0472    0.1109    1.2819 C.ar    1  UNL1        0.1636
     12 C          -1.4320   -0.8775    0.5534 C.ar    1  UNL1       -0.0147
     13 C          -0.1204   -0.7211    0.0688 C.ar    1  UNL1       -0.0368
     14 C           0.5899    0.3970    0.2944 C.ar    1  UNL1        0.0366
     15 N           1.9107    0.6117   -0.1536 N.am    1  UNL1       -0.2812
     16 C           2.7015   -0.2961   -0.8640 C.2     1  UNL1        0.2553
     17 O           2.1830   -1.4407   -1.1448 O.2     1  UNL1       -0.2696
     18 C           4.0629   -0.1046   -1.3357 C.ar    1  UNL1        0.1235
     19 C           4.9144    0.9266   -1.1245 C.ar    1  UNL1        0.0504
     20 C           4.7337    2.1653   -0.3287 C.3     1  UNL1       -0.0219
     21 N           6.0872    0.6534   -1.7954 N.ar    1  UNL1       -0.2833
     22 C           7.2798    1.4802   -1.8513 C.3     1  UNL1        0.0291
     23 N           5.9898   -0.4993   -2.4068 N.ar    1  UNL1       -0.2166
     24 C           6.9922   -1.1362   -3.2099 C.ar    1  UNL1        0.0673
     25 C           6.7298   -1.3774   -4.5507 C.ar    1  UNL1       -0.0362
     26 C           7.6810   -1.9962   -5.3449 C.ar    1  UNL1       -0.0598
     27 C           8.8997   -2.3830   -4.8253 C.ar    1  UNL1       -0.0616
     28 C           9.1652   -2.1452   -3.4923 C.ar    1  UNL1       -0.0598
     29 C           8.2144   -1.5294   -2.7087 C.ar    1  UNL1       -0.0362
     30 C           4.7714   -1.0000   -2.1552 C.ar    1  UNL1        0.2843
     31 O           4.3280   -2.0898   -2.5785 O.2     1  UNL1       -0.2650
     32 C          -0.0352    1.4156    1.0414 C.ar    1  UNL1       -0.0015
     33 C          -1.3111    1.2501    1.5067 C.ar    1  UNL1        0.1672
     34 F          -1.8396    2.2816    2.2379 F       1  UNL1       -0.2016
     35 C          -5.6215    0.5167    1.8559 C.ar    1  UNL1        0.0463
     36 C          -5.7632   -0.5213    2.7627 C.ar    1  UNL1       -0.0036
     37 C          -7.0134   -0.7749    3.3095 C.ar    1  UNL1        0.1623
     38 O          -7.2022   -1.8066    4.2227 O.3     1  UNL1       -0.4914
     39 C          -6.0829   -2.5944    4.5793 C.3     1  UNL1        0.0790
     40 H         -11.3264   -0.4757    3.2241 H       1  UNL1        0.0660
     41 H         -10.5522    1.0043    2.4572 H       1  UNL1        0.0660
     42 H         -10.8320    0.8603    4.2788 H       1  UNL1        0.0660
     43 H          -8.7538    1.6349    1.7586 H       1  UNL1        0.0677
     44 H          -5.2093    3.3384   -0.6219 H       1  UNL1        0.0831
     45 H          -3.2123    1.9395    0.0017 H       1  UNL1        0.0670
     46 H          -1.9550   -1.7914    0.3444 H       1  UNL1        0.0656
     47 H           0.2540   -1.5481   -0.4848 H       1  UNL1        0.0637
     48 H           2.3654    1.5656    0.0575 H       1  UNL1        0.1551
     49 H           4.4868    1.9759    0.7329 H       1  UNL1        0.0293
     50 H           4.0273    2.8153   -0.8754 H       1  UNL1        0.0293
     51 H           5.7181    2.7160   -0.3055 H       1  UNL1        0.0293
     52 H           7.9603    1.1650   -2.6624 H       1  UNL1        0.0472
     53 H           7.8480    1.4860   -0.9178 H       1  UNL1        0.0472
     54 H           7.0001    2.5412   -2.0559 H       1  UNL1        0.0472
     55 H           5.7799   -1.0705   -4.9347 H       1  UNL1        0.0639
     56 H           7.4766   -2.1852   -6.3936 H       1  UNL1        0.0618
     57 H           9.6126   -2.8606   -5.4722 H       1  UNL1        0.0618
     58 H          10.1381   -2.4606   -3.1029 H       1  UNL1        0.0618
     59 H           8.4318   -1.3431   -1.6513 H       1  UNL1        0.0639
     60 H           0.5290    2.3070    1.2212 H       1  UNL1        0.0666
     61 H          -4.9254   -1.1204    3.0407 H       1  UNL1        0.0663
     62 H          -5.2523   -2.0128    4.9908 H       1  UNL1        0.0660
     63 H          -6.3858   -3.4549    5.2324 H       1  UNL1        0.0660
     64 H          -5.6748   -3.0965    3.6523 H       1  UNL1        0.0660
@<TRIPOS>BOND
     1     1     2    1
     2     2     3    1
     3     3     4   ar
     4     4     5   ar
     5     5     6   ar
     6     6     7   ar
     7     7     8   ar
     8     8     9   ar
     9     9    10    1
    10    10    11    1
    11    11    12   ar
    12    12    13   ar
    13    13    14   ar
    14    14    15    1
    15    15    16   am
    16    16    17    2
    17    16    18    1
    18    18    19   ar
    19    19    20    1
    20    19    21   ar
    21    21    22    1
    22    21    23   ar
    23    23    24    1
    24    24    25   ar
    25    25    26   ar
    26    26    27   ar
    27    27    28   ar
    28    28    29   ar
    29    23    30   ar
    30    30    31    2
    31    14    32   ar
    32    32    33   ar
    33    33    34    1
    34     9    35   ar
    35    35    36   ar
    36    36    37   ar
    37    37    38    1
    38    38    39    1
    39    37     3   ar
    40    35     5   ar
    41    33    11   ar
    42    30    18   ar
    43    29    24   ar
    44     1    40    1
    45     1    41    1
    46     1    42    1
    47     4    43    1
    48     7    44    1
    49     8    45    1
    50    12    46    1
    51    13    47    1
    52    15    48    1
    53    20    49    1
    54    20    50    1
    55    20    51    1
    56    22    52    1
    57    22    53    1
    58    22    54    1
    59    25    55    1
    60    26    56    1
    61    27    57    1
    62    28    58    1
    63    29    59    1
    64    32    60    1
    65    36    61    1
    66    39    62    1
    67    39    63    1
    68    39    64    1
