
     RDKit          3D

269281  0  0  0  0  0  0  0  0999 V2000
   10.1589   -1.2498    3.2299 C   0  0  0  0  0  0  0  0  0  0  0  0
   10.2193   -0.1139    2.4189 O   0  0  0  0  0  0  0  0  0  0  0  0
    9.2604   -0.2809    1.4143 C   0  0  1  0  0  0  0  0  0  0  0  0
    8.2342    0.8055    1.4112 C   0  0  0  0  0  0  0  0  0  0  0  0
    7.4997    0.7772    0.0935 C   0  0  1  0  0  0  0  0  0  0  0  0
    8.3211    1.1062   -0.9737 O   0  0  0  0  0  0  0  0  0  0  0  0
    9.6564    0.8532   -0.7825 C   0  0  1  0  0  0  0  0  0  0  0  0
   10.4278    2.0570   -0.2994 C   0  0  0  0  0  0  0  0  0  0  0  0
    9.9069   -0.3858    0.0495 C   0  0  2  0  0  0  0  0  0  0  0  0
    9.4978   -1.4963   -0.6555 O   0  0  0  0  0  0  0  0  0  0  0  0
    6.7795   -0.3996   -0.1075 O   0  0  0  0  0  0  0  0  0  0  0  0
    5.4334   -0.1508   -0.1975 C   0  0  1  0  0  0  0  0  0  0  0  0
    4.8978   -0.7062   -1.5035 C   0  0  2  0  0  0  0  0  0  0  0  0
    5.2605    0.3385   -2.5684 C   0  0  0  0  0  0  0  0  0  0  0  0
    3.5493   -0.8653   -1.5569 O   0  0  0  0  0  0  0  0  0  0  0  0
    2.8213   -0.0910   -0.6753 C   0  0  2  0  0  0  0  0  0  0  0  0
    3.2303   -0.2768    0.7616 C   0  0  0  0  0  0  0  0  0  0  0  0
    4.6148   -0.8720    0.8855 C   0  0  2  0  0  0  0  0  0  0  0  0
    5.0895   -0.6256    2.1586 O   0  0  0  0  0  0  0  0  0  0  0  0
    5.4870   -1.8881    2.6583 C   0  0  0  0  0  0  0  0  0  0  0  0
    1.4642   -0.2373   -0.7902 O   0  0  0  0  0  0  0  0  0  0  0  0
    0.7336    0.8107   -1.1881 C   0  0  1  0  0  0  0  0  0  0  0  0
    0.0707    0.6093   -2.5008 C   0  0  1  0  0  0  0  0  0  0  0  0
    0.9666    0.3717   -3.6382 C   0  0  0  0  0  0  0  0  0  0  0  0
   -1.0856   -0.3164   -2.4963 C   0  0  0  0  0  0  0  0  0  0  0  0
   -1.2013   -1.2246   -1.5567 C   0  0  0  0  0  0  0  0  0  0  0  0
   -1.9794   -2.3131   -0.9934 C   0  0  0  0  0  0  0  0  0  0  0  0
   -2.0154   -3.2085   -0.0541 C   0  0  0  0  0  0  0  0  0  0  0  0
   -1.3425   -3.8441    1.1396 C   0  0  0  0  0  0  0  0  0  0  0  0
   -1.4873   -5.2330    0.8031 O   0  0  0  0  0  0  0  0  0  0  0  0
   -2.8134   -5.3240    0.4573 C   0  0  2  0  0  0  0  0  0  0  0  0
   -3.0447   -6.2639   -0.6866 C   0  0  2  0  0  0  0  0  0  0  0  0
   -2.2699   -5.9116   -1.7741 O   0  0  0  0  0  0  0  0  0  0  0  0
   -4.5273   -6.2416   -1.0264 C   0  0  0  0  0  0  0  0  0  0  0  0
   -5.2826   -7.5088   -1.2672 C   0  0  0  0  0  0  0  0  0  0  0  0
   -5.1321   -5.0407   -1.1042 C   0  0  0  0  0  0  0  0  0  0  0  0
   -4.3381   -3.7761   -0.8607 C   0  0  1  0  0  0  0  0  0  0  0  0
   -5.2798   -2.7049   -0.3366 C   0  0  0  0  0  0  0  0  0  0  0  0
   -6.4782   -2.3366   -0.1663 O   0  0  0  0  0  0  0  0  0  0  0  0
   -4.6147   -1.6827    0.1824 O   0  0  0  0  0  0  0  0  0  0  0  0
   -4.7552   -0.4753    0.7895 C   0  0  1  0  0  0  0  0  0  0  0  0
   -3.3092    0.0906    0.8944 C   0  0  0  0  0  0  0  0  0  0  0  0
   -3.3662    1.3362    1.6845 C   0  0  1  0  0  0  0  0  0  0  0  0
   -1.9736    1.9599    1.6958 C   0  0  0  0  0  0  0  0  0  0  0  0
   -0.9861    1.1266    0.9046 C   0  0  0  0  0  0  0  0  0  0  0  0
   -0.2676    1.3733   -0.2059 C   0  0  0  0  0  0  0  0  0  0  0  0
   -0.7047    2.7792   -0.5917 C   0  0  0  0  0  0  0  0  0  0  0  0
   -4.3721    2.1974    1.3508 O   0  0  0  0  0  0  0  0  0  0  0  0
   -5.1960    1.9491    0.3216 C   0  0  2  0  0  0  0  0  0  0  0  0
   -4.8622    2.7087   -0.9730 C   0  0  0  0  0  0  0  0  0  0  0  0
   -4.7307    4.1528   -0.6578 C   0  0  0  0  0  0  0  0  0  0  0  0
   -5.5694    4.6800    0.4411 C   0  0  2  0  0  0  0  0  0  0  0  0
   -4.6321    5.3044    1.4861 C   0  0  0  0  0  0  0  0  0  0  0  0
   -6.5089    3.7189    1.0799 C   0  0  1  0  0  0  0  0  0  0  0  0
   -7.9578    4.1249    0.8842 C   0  0  0  0  0  0  0  0  0  0  0  0
   -8.2137    4.1599   -0.6017 C   0  0  0  0  0  0  0  0  0  0  0  0
   -8.2867    5.4271    1.5570 C   0  0  0  0  0  0  0  0  0  0  0  0
   -6.4612    2.4227    0.6561 O   0  0  0  0  0  0  0  0  0  0  0  0
   -5.4236    0.5301   -0.1066 C   0  0  0  0  0  0  0  0  0  0  0  0
   -3.3021   -3.9484    0.1657 C   0  0  2  0  0  0  0  0  0  0  0  0
   -3.7941   -3.4668    1.4381 O   0  0  0  0  0  0  0  0  0  0  0  0
   -9.3943   -2.6555   -0.6350 C   0  0  0  0  0  0  0  0  0  0  0  0
   -7.9591   -2.4447   -0.1507 C   0  0  0  0  0  0  0  0  0  0  0  0
   -7.1950   -3.7386   -0.2305 C   0  0  1  0  0  0  0  0  0  0  0  0
   -7.2188   -4.1621   -1.6887 C   0  0  0  0  0  0  0  0  0  0  0  0
   -5.7848   -3.6561    0.2966 C   0  0  1  0  0  0  0  0  0  0  0  0
   -5.1033   -2.7070   -0.4467 O   0  0  0  0  0  0  0  0  0  0  0  0
   -3.8170   -2.4393    0.0552 C   0  0  1  0  0  0  0  0  0  0  0  0
   -3.4555   -3.4322    1.1681 C   0  0  0  0  0  0  0  0  0  0  0  0
   -4.4042   -3.2069    2.3165 C   0  0  0  0  0  0  0  0  0  0  0  0
   -5.8129   -3.4216    1.7660 C   0  0  2  0  0  0  0  0  0  0  0  0
   -6.3166   -4.7246    2.4007 C   0  0  0  0  0  0  0  0  0  0  0  0
   -2.9255   -2.6116   -0.9307 O   0  0  0  0  0  0  0  0  0  0  0  0
   -2.5527   -1.6148   -1.7677 C   0  0  2  0  0  0  0  0  0  0  0  0
   -1.1716   -1.8305   -2.3347 C   0  0  0  0  0  0  0  0  0  0  0  0
   -0.1681   -0.8782   -1.8495 C   0  0  0  0  0  0  0  0  0  0  0  0
    0.6776   -0.0007   -2.4383 C   0  0  0  0  0  0  0  0  0  0  0  0
    0.5920    0.0248   -3.9203 C   0  0  0  0  0  0  0  0  0  0  0  0
    1.5581    0.8041   -1.5795 C   0  0  1  0  0  0  0  0  0  0  0  0
    2.9076    0.6037   -1.7608 O   0  0  0  0  0  0  0  0  0  0  0  0
    3.6129    0.2729   -0.6245 C   0  0  2  0  0  0  0  0  0  0  0  0
    4.5842    1.2151   -0.3044 O   0  0  0  0  0  0  0  0  0  0  0  0
    5.3578    0.8672    0.7661 C   0  0  1  0  0  0  0  0  0  0  0  0
    4.4247    0.6452    1.9642 C   0  0  0  0  0  0  0  0  0  0  0  0
    6.1525   -0.3703    0.4498 C   0  0  2  0  0  0  0  0  0  0  0  0
    7.5238   -0.1454    0.5289 O   0  0  0  0  0  0  0  0  0  0  0  0
    8.1194   -0.9149    1.5269 C   0  0  2  0  0  0  0  0  0  0  0  0
    8.6032   -0.1289    2.5662 O   0  0  0  0  0  0  0  0  0  0  0  0
    9.9601   -0.0091    2.6432 C   0  0  1  0  0  0  0  0  0  0  0  0
   10.5837   -1.0102    3.6041 C   0  0  0  0  0  0  0  0  0  0  0  0
   10.6959   -0.0006    1.3344 C   0  0  2  0  0  0  0  0  0  0  0  0
   10.7652    1.2574    0.7356 O   0  0  0  0  0  0  0  0  0  0  0  0
   10.2623   -1.0852    0.3847 C   0  0  1  0  0  0  0  0  0  0  0  0
   11.2637   -1.9496    0.0083 O   0  0  0  0  0  0  0  0  0  0  0  0
   11.3945   -1.8084   -1.3919 C   0  0  0  0  0  0  0  0  0  0  0  0
    9.1280   -1.8870    0.9806 C   0  0  0  0  0  0  0  0  0  0  0  0
    5.7199   -0.9047   -0.8722 C   0  0  1  0  0  0  0  0  0  0  0  0
    6.3495   -2.0614   -1.2701 O   0  0  0  0  0  0  0  0  0  0  0  0
    6.9696   -1.8288   -2.4948 C   0  0  0  0  0  0  0  0  0  0  0  0
    4.1952   -1.1040   -0.7959 C   0  0  0  0  0  0  0  0  0  0  0  0
    1.3135    2.3024   -1.7820 C   0  0  1  0  0  0  0  0  0  0  0  0
    1.6573    2.7337   -3.2047 C   0  0  0  0  0  0  0  0  0  0  0  0
   -0.1509    2.4598   -1.5915 C   0  0  0  0  0  0  0  0  0  0  0  0
   -0.7448    3.2101   -0.6973 C   0  0  0  0  0  0  0  0  0  0  0  0
   -2.1306    3.4763   -0.3769 C   0  0  0  0  0  0  0  0  0  0  0  0
   -2.8562    4.1603    0.4439 C   0  0  0  0  0  0  0  0  0  0  0  0
   -2.5467    5.1072    1.5790 C   0  0  0  0  0  0  0  0  0  0  0  0
   -3.7740    5.5957    1.9812 O   0  0  0  0  0  0  0  0  0  0  0  0
   -4.6448    5.4720    0.9055 C   0  0  2  0  0  0  0  0  0  0  0  0
   -6.0732    5.6591    1.2753 C   0  0  2  0  0  0  0  0  0  0  0  0
   -6.1961    6.3356    2.5006 O   0  0  0  0  0  0  0  0  0  0  0  0
   -6.9159    4.4604    1.2107 C   0  0  0  0  0  0  0  0  0  0  0  0
   -8.3975    4.6902    1.1176 C   0  0  0  0  0  0  0  0  0  0  0  0
   -6.4181    3.2250    1.2318 C   0  0  0  0  0  0  0  0  0  0  0  0
   -4.9246    3.0886    1.3265 C   0  0  1  0  0  0  0  0  0  0  0  0
   -4.5024    1.6863    1.0952 C   0  0  0  0  0  0  0  0  0  0  0  0
   -4.1978    1.0361    2.1497 O   0  0  0  0  0  0  0  0  0  0  0  0
   -4.4617    1.1784   -0.1873 O   0  0  0  0  0  0  0  0  0  0  0  0
   -4.0825   -0.1091   -0.4885 C   0  0  1  0  0  0  0  0  0  0  0  0
   -2.8088   -0.2030   -1.2966 C   0  0  0  0  0  0  0  0  0  0  0  0
   -3.9256   -1.0609    0.6635 C   0  0  0  0  0  0  0  0  0  0  0  0
   -4.3525    4.0839    0.3748 C   0  0  2  0  0  0  0  0  0  0  0  0
   -4.7953    3.9219   -0.9284 O   0  0  0  0  0  0  0  0  0  0  0  0
    9.1353   -1.3117    3.6525 H   0  0  0  0  0  0  0  0  0  0  0  0
   10.4376   -2.1707    2.6524 H   0  0  0  0  0  0  0  0  0  0  0  0
   10.9026   -1.1925    4.0627 H   0  0  0  0  0  0  0  0  0  0  0  0
    8.7710   -1.2537    1.5954 H   0  0  0  0  0  0  0  0  0  0  0  0
    7.5229    0.7100    2.2496 H   0  0  0  0  0  0  0  0  0  0  0  0
    8.6751    1.8221    1.4946 H   0  0  0  0  0  0  0  0  0  0  0  0
    6.7354    1.6077    0.1335 H   0  0  0  0  0  0  0  0  0  0  0  0
   10.0735    0.6009   -1.8020 H   0  0  0  0  0  0  0  0  0  0  0  0
   11.2786    2.3300   -0.9887 H   0  0  0  0  0  0  0  0  0  0  0  0
    9.7903    2.9753   -0.2831 H   0  0  0  0  0  0  0  0  0  0  0  0
   10.9319    1.8677    0.6783 H   0  0  0  0  0  0  0  0  0  0  0  0
   11.0039   -0.4432    0.2049 H   0  0  0  0  0  0  0  0  0  0  0  0
    9.4265   -1.2619   -1.6167 H   0  0  0  0  0  0  0  0  0  0  0  0
    5.2176    0.9405   -0.0952 H   0  0  0  0  0  0  0  0  0  0  0  0
    5.5071   -1.5896   -1.7269 H   0  0  0  0  0  0  0  0  0  0  0  0
    4.6367    0.1073   -3.4641 H   0  0  0  0  0  0  0  0  0  0  0  0
    5.0454    1.3664   -2.2335 H   0  0  0  0  0  0  0  0  0  0  0  0
    6.3230    0.1905   -2.8929 H   0  0  0  0  0  0  0  0  0  0  0  0
    3.0711    0.9567   -0.9403 H   0  0  0  0  0  0  0  0  0  0  0  0
    2.5289   -0.9797    1.2586 H   0  0  0  0  0  0  0  0  0  0  0  0
    3.2159    0.6618    1.3459 H   0  0  0  0  0  0  0  0  0  0  0  0
    4.6564   -1.9412    0.5927 H   0  0  0  0  0  0  0  0  0  0  0  0
    4.5984   -2.5657    2.6696 H   0  0  0  0  0  0  0  0  0  0  0  0
    5.9349   -1.8181    3.6570 H   0  0  0  0  0  0  0  0  0  0  0  0
    6.2886   -2.3011    1.9782 H   0  0  0  0  0  0  0  0  0  0  0  0
    1.4636    1.6665   -1.3567 H   0  0  0  0  0  0  0  0  0  0  0  0
   -0.4585    1.6396   -2.7769 H   0  0  0  0  0  0  0  0  0  0  0  0
    1.3224   -0.7022   -3.6721 H   0  0  0  0  0  0  0  0  0  0  0  0
    1.9049    0.9652   -3.6281 H   0  0  0  0  0  0  0  0  0  0  0  0
    0.5017    0.6120   -4.6384 H   0  0  0  0  0  0  0  0  0  0  0  0
   -1.8422   -0.2517   -3.2656 H   0  0  0  0  0  0  0  0  0  0  0  0
   -0.4461   -1.3010   -0.7950 H   0  0  0  0  0  0  0  0  0  0  0  0
   -2.7270   -2.1568   -1.7460 H   0  0  0  0  0  0  0  0  0  0  0  0
   -1.9605   -3.6826    2.0262 H   0  0  0  0  0  0  0  0  0  0  0  0
   -0.3249   -3.5484    1.3019 H   0  0  0  0  0  0  0  0  0  0  0  0
   -3.4417   -5.7162    1.2981 H   0  0  0  0  0  0  0  0  0  0  0  0
   -2.8344   -7.2932   -0.3473 H   0  0  0  0  0  0  0  0  0  0  0  0
   -2.4553   -6.5470   -2.5057 H   0  0  0  0  0  0  0  0  0  0  0  0
   -6.1874   -7.6133   -0.6661 H   0  0  0  0  0  0  0  0  0  0  0  0
   -4.5567   -8.3451   -1.1681 H   0  0  0  0  0  0  0  0  0  0  0  0
   -5.6226   -7.5634   -2.3429 H   0  0  0  0  0  0  0  0  0  0  0  0
   -6.2062   -5.0336   -1.3488 H   0  0  0  0  0  0  0  0  0  0  0  0
   -4.0521   -3.4563   -1.8609 H   0  0  0  0  0  0  0  0  0  0  0  0
   -5.2046   -0.4942    1.8080 H   0  0  0  0  0  0  0  0  0  0  0  0
   -2.6897   -0.7100    1.3230 H   0  0  0  0  0  0  0  0  0  0  0  0
   -3.0490    0.3144   -0.1796 H   0  0  0  0  0  0  0  0  0  0  0  0
   -3.5605    1.0361    2.7438 H   0  0  0  0  0  0  0  0  0  0  0  0
   -1.9766    2.9747    1.2859 H   0  0  0  0  0  0  0  0  0  0  0  0
   -1.5444    2.0208    2.7142 H   0  0  0  0  0  0  0  0  0  0  0  0
   -0.8705    0.1337    1.3875 H   0  0  0  0  0  0  0  0  0  0  0  0
   -0.3187    3.4457    0.2353 H   0  0  0  0  0  0  0  0  0  0  0  0
   -1.7778    2.8514   -0.7570 H   0  0  0  0  0  0  0  0  0  0  0  0
   -0.1852    3.1529   -1.4923 H   0  0  0  0  0  0  0  0  0  0  0  0
   -3.9901    2.3163   -1.4884 H   0  0  0  0  0  0  0  0  0  0  0  0
   -5.7896    2.5608   -1.6033 H   0  0  0  0  0  0  0  0  0  0  0  0
   -3.6321    4.3414   -0.4824 H   0  0  0  0  0  0  0  0  0  0  0  0
   -4.9155    4.7066   -1.6262 H   0  0  0  0  0  0  0  0  0  0  0  0
   -6.1680    5.5383    0.0491 H   0  0  0  0  0  0  0  0  0  0  0  0
   -4.8796    4.9830    2.5157 H   0  0  0  0  0  0  0  0  0  0  0  0
   -3.5925    4.9514    1.3182 H   0  0  0  0  0  0  0  0  0  0  0  0
   -4.5850    6.4079    1.3867 H   0  0  0  0  0  0  0  0  0  0  0  0
   -6.3215    3.7166    2.1735 H   0  0  0  0  0  0  0  0  0  0  0  0
   -8.5573    3.2874    1.3143 H   0  0  0  0  0  0  0  0  0  0  0  0
   -9.0305    4.8574   -0.8745 H   0  0  0  0  0  0  0  0  0  0  0  0
   -7.2941    4.3965   -1.2027 H   0  0  0  0  0  0  0  0  0  0  0  0
   -8.4865    3.1340   -0.9196 H   0  0  0  0  0  0  0  0  0  0  0  0
   -8.3370    6.2381    0.7953 H   0  0  0  0  0  0  0  0  0  0  0  0
   -7.6365    5.6838    2.4145 H   0  0  0  0  0  0  0  0  0  0  0  0
   -9.3129    5.3285    1.9678 H   0  0  0  0  0  0  0  0  0  0  0  0
   -6.4879    0.2251   -0.1747 H   0  0  0  0  0  0  0  0  0  0  0  0
   -5.0194    0.3098   -1.1396 H   0  0  0  0  0  0  0  0  0  0  0  0
   -4.5879   -3.9993    1.7017 H   0  0  0  0  0  0  0  0  0  0  0  0
   -9.8363   -1.6486   -0.7466 H   0  0  0  0  0  0  0  0  0  0  0  0
   -9.9739   -3.2186    0.1224 H   0  0  0  0  0  0  0  0  0  0  0  0
   -9.3715   -3.1251   -1.6324 H   0  0  0  0  0  0  0  0  0  0  0  0
   -7.4838   -1.6400   -0.7180 H   0  0  0  0  0  0  0  0  0  0  0  0
   -8.0223   -2.1346    0.8994 H   0  0  0  0  0  0  0  0  0  0  0  0
   -7.8071   -4.4880    0.3245 H   0  0  0  0  0  0  0  0  0  0  0  0
   -6.2179   -4.5798   -1.9275 H   0  0  0  0  0  0  0  0  0  0  0  0
   -7.9772   -4.9529   -1.8793 H   0  0  0  0  0  0  0  0  0  0  0  0
   -7.4672   -3.3053   -2.3526 H   0  0  0  0  0  0  0  0  0  0  0  0
   -5.3242   -4.6486    0.0457 H   0  0  0  0  0  0  0  0  0  0  0  0
   -3.4603   -4.4692    0.8373 H   0  0  0  0  0  0  0  0  0  0  0  0
   -2.4308   -3.1653    1.4957 H   0  0  0  0  0  0  0  0  0  0  0  0
   -4.2711   -2.2310    2.7939 H   0  0  0  0  0  0  0  0  0  0  0  0
   -4.1359   -3.9629    3.0938 H   0  0  0  0  0  0  0  0  0  0  0  0
   -6.4847   -2.6170    2.0685 H   0  0  0  0  0  0  0  0  0  0  0  0
   -7.4034   -4.8089    2.4067 H   0  0  0  0  0  0  0  0  0  0  0  0
   -5.9086   -4.8498    3.4295 H   0  0  0  0  0  0  0  0  0  0  0  0
   -5.8410   -5.5714    1.8224 H   0  0  0  0  0  0  0  0  0  0  0  0
   -3.2546   -1.7164   -2.6552 H   0  0  0  0  0  0  0  0  0  0  0  0
   -0.7794   -2.8471   -2.1260 H   0  0  0  0  0  0  0  0  0  0  0  0
   -1.2670   -1.8098   -3.4581 H   0  0  0  0  0  0  0  0  0  0  0  0
   -0.1882   -0.9804   -0.7493 H   0  0  0  0  0  0  0  0  0  0  0  0
   -0.3456    0.5683   -4.2333 H   0  0  0  0  0  0  0  0  0  0  0  0
    0.4220   -1.0141   -4.3326 H   0  0  0  0  0  0  0  0  0  0  0  0
    1.4902    0.3802   -4.4291 H   0  0  0  0  0  0  0  0  0  0  0  0
    1.3262    0.6327   -0.5087 H   0  0  0  0  0  0  0  0  0  0  0  0
    2.9015    0.2366    0.2250 H   0  0  0  0  0  0  0  0  0  0  0  0
    6.0123    1.7108    1.0919 H   0  0  0  0  0  0  0  0  0  0  0  0
    4.9328    0.9276    2.9097 H   0  0  0  0  0  0  0  0  0  0  0  0
    4.0913   -0.4107    1.9906 H   0  0  0  0  0  0  0  0  0  0  0  0
    3.5512    1.2958    1.8400 H   0  0  0  0  0  0  0  0  0  0  0  0
    5.8672   -1.1323    1.2200 H   0  0  0  0  0  0  0  0  0  0  0  0
    7.2980   -1.5227    1.9891 H   0  0  0  0  0  0  0  0  0  0  0  0
   10.1566    1.0075    3.0986 H   0  0  0  0  0  0  0  0  0  0  0  0
   11.4796   -1.5077    3.1264 H   0  0  0  0  0  0  0  0  0  0  0  0
    9.8530   -1.7518    3.9923 H   0  0  0  0  0  0  0  0  0  0  0  0
   11.0039   -0.5194    4.5071 H   0  0  0  0  0  0  0  0  0  0  0  0
   11.7664   -0.2437    1.5903 H   0  0  0  0  0  0  0  0  0  0  0  0
   10.7291    1.0704   -0.2482 H   0  0  0  0  0  0  0  0  0  0  0  0
    9.8883   -0.5659   -0.5315 H   0  0  0  0  0  0  0  0  0  0  0  0
   10.4421   -2.0642   -1.9214 H   0  0  0  0  0  0  0  0  0  0  0  0
   11.5755   -0.7356   -1.6329 H   0  0  0  0  0  0  0  0  0  0  0  0
   12.1640   -2.4660   -1.8129 H   0  0  0  0  0  0  0  0  0  0  0  0
    8.6443   -2.4616    0.1814 H   0  0  0  0  0  0  0  0  0  0  0  0
    9.4445   -2.5618    1.7727 H   0  0  0  0  0  0  0  0  0  0  0  0
    5.8853   -0.1094   -1.6461 H   0  0  0  0  0  0  0  0  0  0  0  0
    7.7216   -1.0219   -2.4320 H   0  0  0  0  0  0  0  0  0  0  0  0
    6.2481   -1.5314   -3.2988 H   0  0  0  0  0  0  0  0  0  0  0  0
    7.4014   -2.7911   -2.8547 H   0  0  0  0  0  0  0  0  0  0  0  0
    4.0117   -1.7921    0.0367 H   0  0  0  0  0  0  0  0  0  0  0  0
    3.9232   -1.5086   -1.7782 H   0  0  0  0  0  0  0  0  0  0  0  0
    1.9351    2.8563   -1.0855 H   0  0  0  0  0  0  0  0  0  0  0  0
    2.6052    2.2883   -3.5087 H   0  0  0  0  0  0  0  0  0  0  0  0
    1.8395    3.8410   -3.1160 H   0  0  0  0  0  0  0  0  0  0  0  0
    0.8298    2.6310   -3.9062 H   0  0  0  0  0  0  0  0  0  0  0  0
   -0.7693    1.8863   -2.2723 H   0  0  0  0  0  0  0  0  0  0  0  0
   -0.3133    3.8422    0.0529 H   0  0  0  0  0  0  0  0  0  0  0  0
   -2.6174    2.8784   -1.1184 H   0  0  0  0  0  0  0  0  0  0  0  0
   -2.1599    4.4326    2.3893 H   0  0  0  0  0  0  0  0  0  0  0  0
   -1.7947    5.8510    1.3293 H   0  0  0  0  0  0  0  0  0  0  0  0
   -4.2801    6.2065    0.1280 H   0  0  0  0  0  0  0  0  0  0  0  0
   -6.5010    6.3778    0.5187 H   0  0  0  0  0  0  0  0  0  0  0  0
   -5.8006    7.2371    2.3987 H   0  0  0  0  0  0  0  0  0  0  0  0
   -8.5427    5.5347    0.4172 H   0  0  0  0  0  0  0  0  0  0  0  0
   -8.9272    3.8297    0.6408 H   0  0  0  0  0  0  0  0  0  0  0  0
   -8.8303    4.9161    2.1284 H   0  0  0  0  0  0  0  0  0  0  0  0
   -7.1404    2.3946    1.1777 H   0  0  0  0  0  0  0  0  0  0  0  0
   -4.6760    3.4361    2.3489 H   0  0  0  0  0  0  0  0  0  0  0  0
   -4.9164   -0.5485   -1.1204 H   0  0  0  0  0  0  0  0  0  0  0  0
   -2.9151    0.4971   -2.1492 H   0  0  0  0  0  0  0  0  0  0  0  0
   -1.9875    0.1876   -0.6627 H   0  0  0  0  0  0  0  0  0  0  0  0
   -3.1002   -0.8319    1.3503 H   0  0  0  0  0  0  0  0  0  0  0  0
   -4.8624   -1.0355    1.2523 H   0  0  0  0  0  0  0  0  0  0  0  0
   -4.2471    4.4760   -1.5111 H   0  0  0  0  0  0  0  0  0  0  0  0
  1  2  1  0
  2  3  1  0
  3  4  1  0
  4  5  1  0
  5  6  1  0
  6  7  1  0
  7  8  1  0
  7  9  1  0
  9 10  1  0
  5 11  1  0
 11 12  1  0
 12 13  1  0
 13 14  1  0
 13 15  1  0
 15 16  1  0
 16 17  1  0
 17 18  1  0
 18 19  1  0
 19 20  1  0
 16 21  1  0
 21 22  1  0
 22 23  1  0
 23 24  1  0
 23 25  1  0
 25 26  2  0
 26 27  1  0
 27 28  2  0
 28 29  1  0
 29 30  1  0
 30 31  1  0
 31 32  1  0
 32 33  1  0
 32 34  1  0
 34 35  1  0
 34 36  2  0
 36 37  1  0
 37 38  1  0
 38 39  2  0
 38 40  1  0
 40 41  1  0
 41 42  1  0
 42 43  1  0
 43 44  1  0
 44 45  1  0
 45 46  2  0
 46 47  1  0
 43 48  1  0
 49 48  1  1
 49 50  1  0
 50 51  1  0
 51 52  1  0
 52 53  1  0
 52 54  1  0
 54 55  1  0
 55 56  1  0
 55 57  1  0
 54 58  1  0
 49 59  1  0
 37 60  1  0
 60 61  1  1
 62 63  1  0
 63 64  1  0
 64 65  1  0
 64 66  1  0
 66 67  1  0
 68 67  1  6
 68 69  1  0
 69 70  1  0
 70 71  1  0
 71 72  1  0
 68 73  1  0
 73 74  1  0
 74 75  1  0
 75 76  1  0
 76 77  2  0
 77 78  1  0
 77 79  1  0
 79 80  1  0
 80 81  1  0
 81 82  1  0
 82 83  1  0
 83 84  1  0
 83 85  1  0
 85 86  1  0
 86 87  1  0
 87 88  1  0
 88 89  1  0
 89 90  1  0
 89 91  1  0
 91 92  1  0
 91 93  1  0
 93 94  1  0
 94 95  1  0
 93 96  1  0
 85 97  1  0
 97 98  1  0
 98 99  1  0
 97100  1  0
 79101  1  0
101102  1  0
101103  1  0
103104  2  0
104105  1  0
105106  2  0
106107  1  0
107108  1  0
108109  1  0
109110  1  0
110111  1  0
110112  1  0
112113  1  0
112114  2  0
114115  1  0
115116  1  0
116117  2  0
116118  1  0
118119  1  0
119120  1  0
119121  1  0
115122  1  0
122123  1  6
  9  3  1  0
 18 12  1  0
 46 22  1  0
 58 49  1  0
 71 66  1  0
120 74  1  0
 60 28  1  0
121 68  1  0
 60 31  1  0
100 81  1  0
122106  1  0
 59 41  1  0
 96 87  1  0
122109  1  0
  1124  1  0
  1125  1  0
  1126  1  0
  3127  1  1
  4128  1  0
  4129  1  0
  5130  1  1
  7131  1  6
  8132  1  0
  8133  1  0
  8134  1  0
  9135  1  1
 10136  1  0
 12137  1  6
 13138  1  6
 14139  1  0
 14140  1  0
 14141  1  0
 16142  1  6
 17143  1  0
 17144  1  0
 18145  1  6
 20146  1  0
 20147  1  0
 20148  1  0
 22149  1  6
 23150  1  6
 24151  1  0
 24152  1  0
 24153  1  0
 25154  1  0
 26155  1  0
 27156  1  0
 29157  1  0
 29158  1  0
 31159  1  1
 32160  1  1
 33161  1  0
 35162  1  0
 35163  1  0
 35164  1  0
 36165  1  0
 37166  1  6
 41167  1  1
 42168  1  0
 42169  1  0
 43170  1  1
 44171  1  0
 44172  1  0
 45173  1  0
 47174  1  0
 47175  1  0
 47176  1  0
 50177  1  0
 50178  1  0
 51179  1  0
 51180  1  0
 52181  1  6
 53182  1  0
 53183  1  0
 53184  1  0
 54185  1  1
 55186  1  0
 56187  1  0
 56188  1  0
 56189  1  0
 57190  1  0
 57191  1  0
 57192  1  0
 59193  1  0
 59194  1  0
 61195  1  0
 62196  1  0
 62197  1  0
 62198  1  0
 63199  1  0
 63200  1  0
 64201  1  1
 65202  1  0
 65203  1  0
 65204  1  0
 66205  1  1
 69206  1  0
 69207  1  0
 70208  1  0
 70209  1  0
 71210  1  6
 72211  1  0
 72212  1  0
 72213  1  0
 74214  1  6
 75215  1  0
 75216  1  0
 76217  1  0
 78218  1  0
 78219  1  0
 78220  1  0
 79221  1  1
 81222  1  1
 83223  1  1
 84224  1  0
 84225  1  0
 84226  1  0
 85227  1  1
 87228  1  1
 89229  1  1
 90230  1  0
 90231  1  0
 90232  1  0
 91233  1  1
 92234  1  0
 93235  1  6
 95236  1  0
 95237  1  0
 95238  1  0
 96239  1  0
 96240  1  0
 97241  1  6
 99242  1  0
 99243  1  0
 99244  1  0
100245  1  0
100246  1  0
101247  1  1
102248  1  0
102249  1  0
102250  1  0
103251  1  0
104252  1  0
105253  1  0
107254  1  0
107255  1  0
109256  1  6
110257  1  6
111258  1  0
113259  1  0
113260  1  0
113261  1  0
114262  1  0
115263  1  1
119264  1  6
120265  1  0
120266  1  0
121267  1  0
121268  1  0
123269  1  0
M  END
$$$$
