@<TRIPOS>MOLECULE
*****
 269 281 0 0 0
SMALL
GASTEIGER

@<TRIPOS>ATOM
      1 C          10.1589   -1.2498    3.2299 C.3     1  UNL1        0.0369
      2 O          10.2193   -0.1139    2.4189 O.3     1  UNL1       -0.3770
      3 C           9.2604   -0.2809    1.4143 C.3     1  UNL1        0.0911
      4 C           8.2342    0.8055    1.4112 C.3     1  UNL1        0.0272
      5 C           7.4997    0.7772    0.0935 C.3     1  UNL1        0.1626
      6 O           8.3211    1.1062   -0.9737 O.3     1  UNL1       -0.3456
      7 C           9.6564    0.8532   -0.7825 C.3     1  UNL1        0.0871
      8 C          10.4278    2.0570   -0.2994 C.3     1  UNL1       -0.0361
      9 C           9.9069   -0.3858    0.0495 C.3     1  UNL1        0.1073
     10 O           9.4978   -1.4963   -0.6555 O.3     1  UNL1       -0.3867
     11 O           6.7795   -0.3996   -0.1075 O.3     1  UNL1       -0.3429
     12 C           5.4334   -0.1508   -0.1975 C.3     1  UNL1        0.1137
     13 C           4.8978   -0.7062   -1.5035 C.3     1  UNL1        0.0875
     14 C           5.2605    0.3385   -2.5684 C.3     1  UNL1       -0.0361
     15 O           3.5493   -0.8653   -1.5569 O.3     1  UNL1       -0.3456
     16 C           2.8213   -0.0910   -0.6753 C.3     1  UNL1        0.1628
     17 C           3.2303   -0.2768    0.7616 C.3     1  UNL1        0.0273
     18 C           4.6148   -0.8720    0.8855 C.3     1  UNL1        0.0915
     19 O           5.0895   -0.6256    2.1586 O.3     1  UNL1       -0.3770
     20 C           5.4870   -1.8881    2.6583 C.3     1  UNL1        0.0369
     21 O           1.4642   -0.2373   -0.7902 O.3     1  UNL1       -0.3432
     22 C           0.7336    0.8107   -1.1881 C.3     1  UNL1        0.0884
     23 C           0.0707    0.6093   -2.5008 C.3     1  UNL1        0.0048
     24 C           0.9666    0.3717   -3.6382 C.3     1  UNL1       -0.0563
     25 C          -1.0856   -0.3164   -2.4963 C.2     1  UNL1       -0.0784
     26 C          -1.2013   -1.2246   -1.5567 C.2     1  UNL1       -0.0652
     27 C          -1.9794   -2.3131   -0.9934 C.2     1  UNL1       -0.0578
     28 C          -2.0154   -3.2085   -0.0541 C.2     1  UNL1       -0.0094
     29 C          -1.3425   -3.8441    1.1396 C.3     1  UNL1        0.0724
     30 O          -1.4873   -5.2330    0.8031 O.3     1  UNL1       -0.3661
     31 C          -2.8134   -5.3240    0.4573 C.3     1  UNL1        0.1222
     32 C          -3.0447   -6.2639   -0.6866 C.3     1  UNL1        0.1052
     33 O          -2.2699   -5.9116   -1.7741 O.3     1  UNL1       -0.3848
     34 C          -4.5273   -6.2416   -1.0264 C.2     1  UNL1       -0.0450
     35 C          -5.2826   -7.5088   -1.2672 C.3     1  UNL1       -0.0413
     36 C          -5.1321   -5.0407   -1.1042 C.2     1  UNL1       -0.0658
     37 C          -4.3381   -3.7761   -0.8607 C.3     1  UNL1        0.1099
     38 C          -5.2798   -2.7049   -0.3366 C.2     1  UNL1        0.3175
     39 O          -6.4782   -2.3366   -0.1663 O.2     1  UNL1       -0.2501
     40 O          -4.6147   -1.6827    0.1824 O.3     1  UNL1       -0.4606
     41 C          -4.7552   -0.4753    0.7895 C.3     1  UNL1        0.1103
     42 C          -3.3092    0.0906    0.8944 C.3     1  UNL1        0.0113
     43 C          -3.3662    1.3362    1.6845 C.3     1  UNL1        0.0687
     44 C          -1.9736    1.9599    1.6958 C.3     1  UNL1       -0.0078
     45 C          -0.9861    1.1266    0.9046 C.2     1  UNL1       -0.0801
     46 C          -0.2676    1.3733   -0.2059 C.2     1  UNL1       -0.0475
     47 C          -0.7047    2.7792   -0.5917 C.3     1  UNL1       -0.0413
     48 O          -4.3721    2.1974    1.3508 O.3     1  UNL1       -0.3448
     49 C          -5.1960    1.9491    0.3216 C.3     1  UNL1        0.1741
     50 C          -4.8622    2.7087   -0.9730 C.3     1  UNL1        0.0019
     51 C          -4.7307    4.1528   -0.6578 C.3     1  UNL1       -0.0432
     52 C          -5.5694    4.6800    0.4411 C.3     1  UNL1       -0.0170
     53 C          -4.6321    5.3044    1.4861 C.3     1  UNL1       -0.0601
     54 C          -6.5089    3.7189    1.0799 C.3     1  UNL1        0.0668
     55 C          -7.9578    4.1249    0.8842 C.3     1  UNL1       -0.0200
     56 C          -8.2137    4.1599   -0.6017 C.3     1  UNL1       -0.0603
     57 C          -8.2867    5.4271    1.5570 C.3     1  UNL1       -0.0603
     58 O          -6.4612    2.4227    0.6561 O.3     1  UNL1       -0.3447
     59 C          -5.4236    0.5301   -0.1066 C.3     1  UNL1        0.0387
     60 C          -3.3021   -3.9484    0.1657 C.3     1  UNL1        0.1344
     61 O          -3.7941   -3.4668    1.4381 O.3     1  UNL1       -0.3804
     62 C          -9.3943   -2.6555   -0.6350 C.3     2  UNL2       -0.0650
     63 C          -7.9591   -2.4447   -0.1507 C.3     2  UNL2       -0.0510
     64 C          -7.1950   -3.7386   -0.2305 C.3     2  UNL2       -0.0174
     65 C          -7.2188   -4.1621   -1.6887 C.3     2  UNL2       -0.0601
     66 C          -5.7848   -3.6561    0.2966 C.3     2  UNL2        0.0671
     67 O          -5.1033   -2.7070   -0.4467 O.3     2  UNL2       -0.3447
     68 C          -3.8170   -2.4393    0.0552 C.3     2  UNL2        0.1741
     69 C          -3.4555   -3.4322    1.1681 C.3     2  UNL2        0.0019
     70 C          -4.4042   -3.2069    2.3165 C.3     2  UNL2       -0.0432
     71 C          -5.8129   -3.4216    1.7660 C.3     2  UNL2       -0.0170
     72 C          -6.3166   -4.7246    2.4007 C.3     2  UNL2       -0.0601
     73 O          -2.9255   -2.6116   -0.9307 O.3     2  UNL2       -0.3448
     74 C          -2.5527   -1.6148   -1.7677 C.3     2  UNL2        0.0687
     75 C          -1.1716   -1.8305   -2.3347 C.3     2  UNL2       -0.0078
     76 C          -0.1681   -0.8782   -1.8495 C.2     2  UNL2       -0.0801
     77 C           0.6776   -0.0007   -2.4383 C.2     2  UNL2       -0.0475
     78 C           0.5920    0.0248   -3.9203 C.3     2  UNL2       -0.0413
     79 C           1.5581    0.8041   -1.5795 C.3     2  UNL2        0.0884
     80 O           2.9076    0.6037   -1.7608 O.3     2  UNL2       -0.3432
     81 C           3.6129    0.2729   -0.6245 C.3     2  UNL2        0.1628
     82 O           4.5842    1.2151   -0.3044 O.3     2  UNL2       -0.3456
     83 C           5.3578    0.8672    0.7661 C.3     2  UNL2        0.0875
     84 C           4.4247    0.6452    1.9642 C.3     2  UNL2       -0.0361
     85 C           6.1525   -0.3703    0.4498 C.3     2  UNL2        0.1137
     86 O           7.5238   -0.1454    0.5289 O.3     2  UNL2       -0.3429
     87 C           8.1194   -0.9149    1.5269 C.3     2  UNL2        0.1626
     88 O           8.6032   -0.1289    2.5662 O.3     2  UNL2       -0.3456
     89 C           9.9601   -0.0091    2.6432 C.3     2  UNL2        0.0871
     90 C          10.5837   -1.0102    3.6041 C.3     2  UNL2       -0.0361
     91 C          10.6959   -0.0006    1.3344 C.3     2  UNL2        0.1073
     92 O          10.7652    1.2574    0.7356 O.3     2  UNL2       -0.3867
     93 C          10.2623   -1.0852    0.3847 C.3     2  UNL2        0.0911
     94 O          11.2637   -1.9496    0.0083 O.3     2  UNL2       -0.3770
     95 C          11.3945   -1.8084   -1.3919 C.3     2  UNL2        0.0369
     96 C           9.1280   -1.8870    0.9806 C.3     2  UNL2        0.0272
     97 C           5.7199   -0.9047   -0.8722 C.3     2  UNL2        0.0915
     98 O           6.3495   -2.0614   -1.2701 O.3     2  UNL2       -0.3770
     99 C           6.9696   -1.8288   -2.4948 C.3     2  UNL2        0.0369
    100 C           4.1952   -1.1040   -0.7959 C.3     2  UNL2        0.0273
    101 C           1.3135    2.3024   -1.7820 C.3     2  UNL2        0.0048
    102 C           1.6573    2.7337   -3.2047 C.3     2  UNL2       -0.0563
    103 C          -0.1509    2.4598   -1.5915 C.2     2  UNL2       -0.0784
    104 C          -0.7448    3.2101   -0.6973 C.2     2  UNL2       -0.0652
    105 C          -2.1306    3.4763   -0.3769 C.2     2  UNL2       -0.0578
    106 C          -2.8562    4.1603    0.4439 C.2     2  UNL2       -0.0094
    107 C          -2.5467    5.1072    1.5790 C.3     2  UNL2        0.0724
    108 O          -3.7740    5.5957    1.9812 O.3     2  UNL2       -0.3661
    109 C          -4.6448    5.4720    0.9055 C.3     2  UNL2        0.1222
    110 C          -6.0732    5.6591    1.2753 C.3     2  UNL2        0.1052
    111 O          -6.1961    6.3356    2.5006 O.3     2  UNL2       -0.3848
    112 C          -6.9159    4.4604    1.2107 C.2     2  UNL2       -0.0450
    113 C          -8.3975    4.6902    1.1176 C.3     2  UNL2       -0.0413
    114 C          -6.4181    3.2250    1.2318 C.2     2  UNL2       -0.0658
    115 C          -4.9246    3.0886    1.3265 C.3     2  UNL2        0.1099
    116 C          -4.5024    1.6863    1.0952 C.2     2  UNL2        0.3175
    117 O          -4.1978    1.0361    2.1497 O.2     2  UNL2       -0.2501
    118 O          -4.4617    1.1784   -0.1873 O.3     2  UNL2       -0.4606
    119 C          -4.0825   -0.1091   -0.4885 C.3     2  UNL2        0.1103
    120 C          -2.8088   -0.2030   -1.2966 C.3     2  UNL2        0.0113
    121 C          -3.9256   -1.0609    0.6635 C.3     2  UNL2        0.0387
    122 C          -4.3525    4.0839    0.3748 C.3     2  UNL2        0.1344
    123 O          -4.7953    3.9219   -0.9284 O.3     2  UNL2       -0.3804
    124 H           9.1353   -1.3117    3.6525 H       1  UNL1        0.0524
    125 H          10.4376   -2.1707    2.6524 H       1  UNL1        0.0524
    126 H          10.9026   -1.1925    4.0627 H       1  UNL1        0.0524
    127 H           8.7710   -1.2537    1.5954 H       1  UNL1        0.0624
    128 H           7.5229    0.7100    2.2496 H       1  UNL1        0.0340
    129 H           8.6751    1.8221    1.4946 H       1  UNL1        0.0340
    130 H           6.7354    1.6077    0.1335 H       1  UNL1        0.0910
    131 H          10.0735    0.6009   -1.8020 H       1  UNL1        0.0621
    132 H          11.2786    2.3300   -0.9887 H       1  UNL1        0.0255
    133 H           9.7903    2.9753   -0.2831 H       1  UNL1        0.0255
    134 H          10.9319    1.8677    0.6783 H       1  UNL1        0.0255
    135 H          11.0039   -0.4432    0.2049 H       1  UNL1        0.0645
    136 H           9.4265   -1.2619   -1.6167 H       1  UNL1        0.2100
    137 H           5.2176    0.9405   -0.0952 H       1  UNL1        0.0649
    138 H           5.5071   -1.5896   -1.7269 H       1  UNL1        0.0621
    139 H           4.6367    0.1073   -3.4641 H       1  UNL1        0.0255
    140 H           5.0454    1.3664   -2.2335 H       1  UNL1        0.0255
    141 H           6.3230    0.1905   -2.8929 H       1  UNL1        0.0255
    142 H           3.0711    0.9567   -0.9403 H       1  UNL1        0.0911
    143 H           2.5289   -0.9797    1.2586 H       1  UNL1        0.0340
    144 H           3.2159    0.6618    1.3459 H       1  UNL1        0.0340
    145 H           4.6564   -1.9412    0.5927 H       1  UNL1        0.0624
    146 H           4.5984   -2.5657    2.6696 H       1  UNL1        0.0524
    147 H           5.9349   -1.8181    3.6570 H       1  UNL1        0.0524
    148 H           6.2886   -2.3011    1.9782 H       1  UNL1        0.0524
    149 H           1.4636    1.6665   -1.3567 H       1  UNL1        0.0650
    150 H          -0.4585    1.6396   -2.7769 H       1  UNL1        0.0369
    151 H           1.3224   -0.7022   -3.6721 H       1  UNL1        0.0236
    152 H           1.9049    0.9652   -3.6281 H       1  UNL1        0.0236
    153 H           0.5017    0.6120   -4.6384 H       1  UNL1        0.0236
    154 H          -1.8422   -0.2517   -3.2656 H       1  UNL1        0.0576
    155 H          -0.4461   -1.3010   -0.7950 H       1  UNL1        0.0615
    156 H          -2.7270   -2.1568   -1.7460 H       1  UNL1        0.0619
    157 H          -1.9605   -3.6826    2.0262 H       1  UNL1        0.0608
    158 H          -0.3249   -3.5484    1.3019 H       1  UNL1        0.0608
    159 H          -3.4417   -5.7162    1.2981 H       1  UNL1        0.0658
    160 H          -2.8344   -7.2932   -0.3473 H       1  UNL1        0.0667
    161 H          -2.4553   -6.5470   -2.5057 H       1  UNL1        0.2103
    162 H          -6.1874   -7.6133   -0.6661 H       1  UNL1        0.0275
    163 H          -4.5567   -8.3451   -1.1681 H       1  UNL1        0.0275
    164 H          -5.6226   -7.5634   -2.3429 H       1  UNL1        0.0275
    165 H          -6.2062   -5.0336   -1.3488 H       1  UNL1        0.0581
    166 H          -4.0521   -3.4563   -1.8609 H       1  UNL1        0.0489
    167 H          -5.2046   -0.4942    1.8080 H       1  UNL1        0.0736
    168 H          -2.6897   -0.7100    1.3230 H       1  UNL1        0.0326
    169 H          -3.0490    0.3144   -0.1796 H       1  UNL1        0.0326
    170 H          -3.5605    1.0361    2.7438 H       1  UNL1        0.0601
    171 H          -1.9766    2.9747    1.2859 H       1  UNL1        0.0332
    172 H          -1.5444    2.0208    2.7142 H       1  UNL1        0.0332
    173 H          -0.8705    0.1337    1.3875 H       1  UNL1        0.0573
    174 H          -0.3187    3.4457    0.2353 H       1  UNL1        0.0275
    175 H          -1.7778    2.8514   -0.7570 H       1  UNL1        0.0275
    176 H          -0.1852    3.1529   -1.4923 H       1  UNL1        0.0275
    177 H          -3.9901    2.3163   -1.4884 H       1  UNL1        0.0317
    178 H          -5.7896    2.5608   -1.6033 H       1  UNL1        0.0317
    179 H          -3.6321    4.3414   -0.4824 H       1  UNL1        0.0270
    180 H          -4.9155    4.7066   -1.6262 H       1  UNL1        0.0270
    181 H          -6.1680    5.5383    0.0491 H       1  UNL1        0.0323
    182 H          -4.8796    4.9830    2.5157 H       1  UNL1        0.0233
    183 H          -3.5925    4.9514    1.3182 H       1  UNL1        0.0233
    184 H          -4.5850    6.4079    1.3867 H       1  UNL1        0.0233
    185 H          -6.3215    3.7166    2.1735 H       1  UNL1        0.0602
    186 H          -8.5573    3.2874    1.3143 H       1  UNL1        0.0320
    187 H          -9.0305    4.8574   -0.8745 H       1  UNL1        0.0233
    188 H          -7.2941    4.3965   -1.2027 H       1  UNL1        0.0233
    189 H          -8.4865    3.1340   -0.9196 H       1  UNL1        0.0233
    190 H          -8.3370    6.2381    0.7953 H       1  UNL1        0.0233
    191 H          -7.6365    5.6838    2.4145 H       1  UNL1        0.0233
    192 H          -9.3129    5.3285    1.9678 H       1  UNL1        0.0233
    193 H          -6.4879    0.2251   -0.1747 H       1  UNL1        0.0353
    194 H          -5.0194    0.3098   -1.1396 H       1  UNL1        0.0353
    195 H          -4.5879   -3.9993    1.7017 H       1  UNL1        0.2108
    196 H          -9.8363   -1.6486   -0.7466 H       2  UNL2        0.0230
    197 H          -9.9739   -3.2186    0.1224 H       2  UNL2        0.0230
    198 H          -9.3715   -3.1251   -1.6324 H       2  UNL2        0.0230
    199 H          -7.4838   -1.6400   -0.7180 H       2  UNL2        0.0266
    200 H          -8.0223   -2.1346    0.8994 H       2  UNL2        0.0266
    201 H          -7.8071   -4.4880    0.3245 H       2  UNL2        0.0323
    202 H          -6.2179   -4.5798   -1.9275 H       2  UNL2        0.0233
    203 H          -7.9772   -4.9529   -1.8793 H       2  UNL2        0.0233
    204 H          -7.4672   -3.3053   -2.3526 H       2  UNL2        0.0233
    205 H          -5.3242   -4.6486    0.0457 H       2  UNL2        0.0602
    206 H          -3.4603   -4.4692    0.8373 H       2  UNL2        0.0317
    207 H          -2.4308   -3.1653    1.4957 H       2  UNL2        0.0317
    208 H          -4.2711   -2.2310    2.7939 H       2  UNL2        0.0270
    209 H          -4.1359   -3.9629    3.0938 H       2  UNL2        0.0270
    210 H          -6.4847   -2.6170    2.0685 H       2  UNL2        0.0323
    211 H          -7.4034   -4.8089    2.4067 H       2  UNL2        0.0233
    212 H          -5.9086   -4.8498    3.4295 H       2  UNL2        0.0233
    213 H          -5.8410   -5.5714    1.8224 H       2  UNL2        0.0233
    214 H          -3.2546   -1.7164   -2.6552 H       2  UNL2        0.0601
    215 H          -0.7794   -2.8471   -2.1260 H       2  UNL2        0.0332
    216 H          -1.2670   -1.8098   -3.4581 H       2  UNL2        0.0332
    217 H          -0.1882   -0.9804   -0.7493 H       2  UNL2        0.0573
    218 H          -0.3456    0.5683   -4.2333 H       2  UNL2        0.0275
    219 H           0.4220   -1.0141   -4.3326 H       2  UNL2        0.0275
    220 H           1.4902    0.3802   -4.4291 H       2  UNL2        0.0275
    221 H           1.3262    0.6327   -0.5087 H       2  UNL2        0.0650
    222 H           2.9015    0.2366    0.2250 H       2  UNL2        0.0911
    223 H           6.0123    1.7108    1.0919 H       2  UNL2        0.0621
    224 H           4.9328    0.9276    2.9097 H       2  UNL2        0.0255
    225 H           4.0913   -0.4107    1.9906 H       2  UNL2        0.0255
    226 H           3.5512    1.2958    1.8400 H       2  UNL2        0.0255
    227 H           5.8672   -1.1323    1.2200 H       2  UNL2        0.0649
    228 H           7.2980   -1.5227    1.9891 H       2  UNL2        0.0910
    229 H          10.1566    1.0075    3.0986 H       2  UNL2        0.0621
    230 H          11.4796   -1.5077    3.1264 H       2  UNL2        0.0255
    231 H           9.8530   -1.7518    3.9923 H       2  UNL2        0.0255
    232 H          11.0039   -0.5194    4.5071 H       2  UNL2        0.0255
    233 H          11.7664   -0.2437    1.5903 H       2  UNL2        0.0645
    234 H          10.7291    1.0704   -0.2482 H       2  UNL2        0.2100
    235 H           9.8883   -0.5659   -0.5315 H       2  UNL2        0.0624
    236 H          10.4421   -2.0642   -1.9214 H       2  UNL2        0.0524
    237 H          11.5755   -0.7356   -1.6329 H       2  UNL2        0.0524
    238 H          12.1640   -2.4660   -1.8129 H       2  UNL2        0.0524
    239 H           8.6443   -2.4616    0.1814 H       2  UNL2        0.0340
    240 H           9.4445   -2.5618    1.7727 H       2  UNL2        0.0340
    241 H           5.8853   -0.1094   -1.6461 H       2  UNL2        0.0624
    242 H           7.7216   -1.0219   -2.4320 H       2  UNL2        0.0524
    243 H           6.2481   -1.5314   -3.2988 H       2  UNL2        0.0524
    244 H           7.4014   -2.7911   -2.8547 H       2  UNL2        0.0524
    245 H           4.0117   -1.7921    0.0367 H       2  UNL2        0.0340
    246 H           3.9232   -1.5086   -1.7782 H       2  UNL2        0.0340
    247 H           1.9351    2.8563   -1.0855 H       2  UNL2        0.0369
    248 H           2.6052    2.2883   -3.5087 H       2  UNL2        0.0236
    249 H           1.8395    3.8410   -3.1160 H       2  UNL2        0.0236
    250 H           0.8298    2.6310   -3.9062 H       2  UNL2        0.0236
    251 H          -0.7693    1.8863   -2.2723 H       2  UNL2        0.0576
    252 H          -0.3133    3.8422    0.0529 H       2  UNL2        0.0615
    253 H          -2.6174    2.8784   -1.1184 H       2  UNL2        0.0619
    254 H          -2.1599    4.4326    2.3893 H       2  UNL2        0.0608
    255 H          -1.7947    5.8510    1.3293 H       2  UNL2        0.0608
    256 H          -4.2801    6.2065    0.1280 H       2  UNL2        0.0658
    257 H          -6.5010    6.3778    0.5187 H       2  UNL2        0.0667
    258 H          -5.8006    7.2371    2.3987 H       2  UNL2        0.2103
    259 H          -8.5427    5.5347    0.4172 H       2  UNL2        0.0275
    260 H          -8.9272    3.8297    0.6408 H       2  UNL2        0.0275
    261 H          -8.8303    4.9161    2.1284 H       2  UNL2        0.0275
    262 H          -7.1404    2.3946    1.1777 H       2  UNL2        0.0581
    263 H          -4.6760    3.4361    2.3489 H       2  UNL2        0.0489
    264 H          -4.9164   -0.5485   -1.1204 H       2  UNL2        0.0736
    265 H          -2.9151    0.4971   -2.1492 H       2  UNL2        0.0326
    266 H          -1.9875    0.1876   -0.6627 H       2  UNL2        0.0326
    267 H          -3.1002   -0.8319    1.3503 H       2  UNL2        0.0353
    268 H          -4.8624   -1.0355    1.2523 H       2  UNL2        0.0353
    269 H          -4.2471    4.4760   -1.5111 H       2  UNL2        0.2108
@<TRIPOS>BOND
     1     1     2    1
     2     2     3    1
     3     3     4    1
     4     4     5    1
     5     5     6    1
     6     6     7    1
     7     7     8    1
     8     7     9    1
     9     9    10    1
    10     5    11    1
    11    11    12    1
    12    12    13    1
    13    13    14    1
    14    13    15    1
    15    15    16    1
    16    16    17    1
    17    17    18    1
    18    18    19    1
    19    19    20    1
    20    16    21    1
    21    21    22    1
    22    22    23    1
    23    23    24    1
    24    23    25    1
    25    25    26    2
    26    26    27    1
    27    27    28    2
    28    28    29    1
    29    29    30    1
    30    30    31    1
    31    31    32    1
    32    32    33    1
    33    32    34    1
    34    34    35    1
    35    34    36    2
    36    36    37    1
    37    37    38    1
    38    38    39    2
    39    38    40    1
    40    40    41    1
    41    41    42    1
    42    42    43    1
    43    43    44    1
    44    44    45    1
    45    45    46    2
    46    46    47    1
    47    43    48    1
    48    49    48    1
    49    49    50    1
    50    50    51    1
    51    51    52    1
    52    52    53    1
    53    52    54    1
    54    54    55    1
    55    55    56    1
    56    55    57    1
    57    54    58    1
    58    49    59    1
    59    37    60    1
    60    60    61    1
    61    62    63    1
    62    63    64    1
    63    64    65    1
    64    64    66    1
    65    66    67    1
    66    68    67    1
    67    68    69    1
    68    69    70    1
    69    70    71    1
    70    71    72    1
    71    68    73    1
    72    73    74    1
    73    74    75    1
    74    75    76    1
    75    76    77    2
    76    77    78    1
    77    77    79    1
    78    79    80    1
    79    80    81    1
    80    81    82    1
    81    82    83    1
    82    83    84    1
    83    83    85    1
    84    85    86    1
    85    86    87    1
    86    87    88    1
    87    88    89    1
    88    89    90    1
    89    89    91    1
    90    91    92    1
    91    91    93    1
    92    93    94    1
    93    94    95    1
    94    93    96    1
    95    85    97    1
    96    97    98    1
    97    98    99    1
    98    97   100    1
    99    79   101    1
   100   101   102    1
   101   101   103    1
   102   103   104    2
   103   104   105    1
   104   105   106    2
   105   106   107    1
   106   107   108    1
   107   108   109    1
   108   109   110    1
   109   110   111    1
   110   110   112    1
   111   112   113    1
   112   112   114    2
   113   114   115    1
   114   115   116    1
   115   116   117    2
   116   116   118    1
   117   118   119    1
   118   119   120    1
   119   119   121    1
   120   115   122    1
   121   122   123    1
   122     9     3    1
   123    18    12    1
   124    46    22    1
   125    58    49    1
   126    71    66    1
   127   120    74    1
   128    60    28    1
   129   121    68    1
   130    60    31    1
   131   100    81    1
   132   122   106    1
   133    59    41    1
   134    96    87    1
   135   122   109    1
   136     1   124    1
   137     1   125    1
   138     1   126    1
   139     3   127    1
   140     4   128    1
   141     4   129    1
   142     5   130    1
   143     7   131    1
   144     8   132    1
   145     8   133    1
   146     8   134    1
   147     9   135    1
   148    10   136    1
   149    12   137    1
   150    13   138    1
   151    14   139    1
   152    14   140    1
   153    14   141    1
   154    16   142    1
   155    17   143    1
   156    17   144    1
   157    18   145    1
   158    20   146    1
   159    20   147    1
   160    20   148    1
   161    22   149    1
   162    23   150    1
   163    24   151    1
   164    24   152    1
   165    24   153    1
   166    25   154    1
   167    26   155    1
   168    27   156    1
   169    29   157    1
   170    29   158    1
   171    31   159    1
   172    32   160    1
   173    33   161    1
   174    35   162    1
   175    35   163    1
   176    35   164    1
   177    36   165    1
   178    37   166    1
   179    41   167    1
   180    42   168    1
   181    42   169    1
   182    43   170    1
   183    44   171    1
   184    44   172    1
   185    45   173    1
   186    47   174    1
   187    47   175    1
   188    47   176    1
   189    50   177    1
   190    50   178    1
   191    51   179    1
   192    51   180    1
   193    52   181    1
   194    53   182    1
   195    53   183    1
   196    53   184    1
   197    54   185    1
   198    55   186    1
   199    56   187    1
   200    56   188    1
   201    56   189    1
   202    57   190    1
   203    57   191    1
   204    57   192    1
   205    59   193    1
   206    59   194    1
   207    61   195    1
   208    62   196    1
   209    62   197    1
   210    62   198    1
   211    63   199    1
   212    63   200    1
   213    64   201    1
   214    65   202    1
   215    65   203    1
   216    65   204    1
   217    66   205    1
   218    69   206    1
   219    69   207    1
   220    70   208    1
   221    70   209    1
   222    71   210    1
   223    72   211    1
   224    72   212    1
   225    72   213    1
   226    74   214    1
   227    75   215    1
   228    75   216    1
   229    76   217    1
   230    78   218    1
   231    78   219    1
   232    78   220    1
   233    79   221    1
   234    81   222    1
   235    83   223    1
   236    84   224    1
   237    84   225    1
   238    84   226    1
   239    85   227    1
   240    87   228    1
   241    89   229    1
   242    90   230    1
   243    90   231    1
   244    90   232    1
   245    91   233    1
   246    92   234    1
   247    93   235    1
   248    95   236    1
   249    95   237    1
   250    95   238    1
   251    96   239    1
   252    96   240    1
   253    97   241    1
   254    99   242    1
   255    99   243    1
   256    99   244    1
   257   100   245    1
   258   100   246    1
   259   101   247    1
   260   102   248    1
   261   102   249    1
   262   102   250    1
   263   103   251    1
   264   104   252    1
   265   105   253    1
   266   107   254    1
   267   107   255    1
   268   109   256    1
   269   110   257    1
   270   111   258    1
   271   113   259    1
   272   113   260    1
   273   113   261    1
   274   114   262    1
   275   115   263    1
   276   119   264    1
   277   120   265    1
   278   120   266    1
   279   121   267    1
   280   121   268    1
   281   123   269    1
