@<TRIPOS>MOLECULE
*****
 26 27 0 0 0
SMALL
GASTEIGER

@<TRIPOS>ATOM
      1 N          -4.3965    1.0247    0.9071 N.pl3   1  UNL1       -0.3430
      2 C          -3.1342    0.5204    0.4776 C.ar    1  UNL1        0.1230
      3 N          -2.0630    0.6923    1.2694 N.ar    1  UNL1       -0.1783
      4 C          -0.8559    0.2130    0.8645 C.ar    1  UNL1        0.3521
      5 O           0.1345    0.3888    1.6290 O.2     1  UNL1       -0.2444
      6 N          -0.7527   -0.4239   -0.3188 N.ar    1  UNL1       -0.2717
      7 C          -1.8159   -0.6081   -1.1310 C.ar    1  UNL1        0.0152
      8 C          -3.0533   -0.1325   -0.7462 C.ar    1  UNL1       -0.0056
      9 C           0.5841   -0.9110   -0.6833 C.3     1  UNL1        0.1498
     10 C           0.9595   -1.9681    0.3089 C.3     1  UNL1        0.0418
     11 S           2.7481   -1.5831    0.4805 S.3     1  UNL1       -0.1230
     12 C           2.7278   -0.1828   -0.6814 C.3     1  UNL1        0.1297
     13 C           3.5145    0.9987   -0.0966 C.3     1  UNL1        0.0798
     14 O           3.2370    2.1631   -0.8103 O.3     1  UNL1       -0.3916
     15 O           1.4004    0.1794   -0.5592 O.3     1  UNL1       -0.3397
     16 H          -5.2588    0.7634    1.4250 H       1  UNL1        0.1437
     17 H          -4.3015    1.9895    0.5031 H       1  UNL1        0.1437
     18 H          -1.6313   -1.1297   -2.0573 H       1  UNL1        0.0812
     19 H          -3.8944   -0.2855   -1.4026 H       1  UNL1        0.0666
     20 H           0.5557   -1.3609   -1.7107 H       1  UNL1        0.0848
     21 H           0.7982   -2.9690   -0.1238 H       1  UNL1        0.0421
     22 H           0.4425   -1.9166    1.2768 H       1  UNL1        0.0421
     23 H           3.0612   -0.4321   -1.6857 H       1  UNL1        0.0736
     24 H           3.1675    1.1915    0.9362 H       1  UNL1        0.0592
     25 H           4.5947    0.8147   -0.1648 H       1  UNL1        0.0592
     26 H           3.2317    2.9636   -0.2558 H       1  UNL1        0.2095
@<TRIPOS>BOND
     1     1     2    1
     2     2     3   ar
     3     3     4   ar
     4     4     5    2
     5     4     6   ar
     6     6     7   ar
     7     7     8   ar
     8     6     9    1
     9     9    10    1
    10    10    11    1
    11    11    12    1
    12    12    13    1
    13    13    14    1
    14    12    15    1
    15     8     2   ar
    16    15     9    1
    17     1    16    1
    18     1    17    1
    19     7    18    1
    20     8    19    1
    21     9    20    1
    22    10    21    1
    23    10    22    1
    24    12    23    1
    25    13    24    1
    26    13    25    1
    27    14    26    1
