
     RDKit          3D

 66 68  0  0  0  0  0  0  0  0999 V2000
   -4.9249    2.2250    3.3595 C   0  0  0  0  0  0  0  0  0  0  0  0
   -4.3429    2.2939    1.9939 C   0  0  0  0  0  0  0  0  0  0  0  0
   -3.7382    3.0151    1.1381 O   0  0  0  0  0  0  0  0  0  0  0  0
   -4.5361    1.0130    1.3553 N   0  0  0  0  0  0  0  0  0  0  0  0
   -4.1323    0.6064    0.0100 C   0  0  2  0  0  0  0  0  0  0  0  0
   -5.2318    0.0207   -0.8033 C   0  0  1  0  0  0  0  0  0  0  0  0
   -5.1523    0.6147   -2.0840 O   0  0  0  0  0  0  0  0  0  0  0  0
   -4.9686   -1.4476   -1.0185 C   0  0  2  0  0  0  0  0  0  0  0  0
   -6.2131   -2.0196   -1.3617 O   0  0  0  0  0  0  0  0  0  0  0  0
   -4.5329   -2.1647    0.2449 C   0  0  1  0  0  0  0  0  0  0  0  0
   -4.1269   -3.5652   -0.1730 C   0  0  0  0  0  0  0  0  0  0  0  0
   -5.1553   -4.2157   -0.8660 O   0  0  0  0  0  0  0  0  0  0  0  0
   -3.5586   -1.4808    0.9300 O   0  0  0  0  0  0  0  0  0  0  0  0
   -3.0395   -0.4279    0.1759 C   0  0  2  0  0  0  0  0  0  0  0  0
   -2.0257    0.2153    0.8812 O   0  0  0  0  0  0  0  0  0  0  0  0
   -0.5470    0.2251    0.1087 P   0  0  0  0  0  0  0  0  0  0  0  0
   -0.5124   -0.8275   -1.2187 O   0  0  0  0  0  0  0  0  0  0  0  0
   -0.2827    1.6522   -0.3277 O   0  0  0  0  0  0  0  0  0  0  0  0
    0.6293   -0.1890    1.2463 O   0  0  0  0  0  0  0  0  0  0  0  0
    1.0659    1.0857    2.2473 P   0  0  0  0  0  0  0  0  0  0  0  0
   -0.1404    2.2370    2.2719 O   0  0  0  0  0  0  0  0  0  0  0  0
    1.1418    0.4978    3.6601 O   0  0  0  0  0  0  0  0  0  0  0  0
    2.5942    1.6803    1.9080 O   0  0  0  0  0  0  0  0  0  0  0  0
    2.7803    2.0254    0.5932 C   0  0  0  0  0  0  0  0  0  0  0  0
    4.2239    2.4008    0.2907 C   0  0  1  0  0  0  0  0  0  0  0  0
    5.0173    1.3070    0.5809 O   0  0  0  0  0  0  0  0  0  0  0  0
    5.3533    0.6437   -0.5666 C   0  0  2  0  0  0  0  0  0  0  0  0
    4.5163    1.2187   -1.6801 C   0  0  2  0  0  0  0  0  0  0  0  0
    5.1863    1.1967   -2.9028 O   0  0  0  0  0  0  0  0  0  0  0  0
    4.3972    2.6733   -1.1880 C   0  0  2  0  0  0  0  0  0  0  0  0
    5.6339    3.2533   -1.4210 O   0  0  0  0  0  0  0  0  0  0  0  0
    5.2219   -0.7941   -0.4492 N   0  0  0  0  0  0  0  0  0  0  0  0
    4.4585   -1.6770   -1.1048 C   0  0  0  0  0  0  0  0  0  0  0  0
    4.5349   -3.0336   -0.7736 C   0  0  0  0  0  0  0  0  0  0  0  0
    5.4046   -3.4635    0.2374 C   0  0  0  0  0  0  0  0  0  0  0  0
    5.2330   -4.7148    0.2840 O   0  0  0  0  0  0  0  0  0  0  0  0
    6.1475   -2.5418    0.8637 N   0  0  0  0  0  0  0  0  0  0  0  0
    6.0604   -1.2392    0.5312 C   0  0  0  0  0  0  0  0  0  0  0  0
    6.8509   -0.5560    1.2528 O   0  0  0  0  0  0  0  0  0  0  0  0
   -4.3967    1.4468    3.9430 H   0  0  0  0  0  0  0  0  0  0  0  0
   -4.8133    3.2208    3.8378 H   0  0  0  0  0  0  0  0  0  0  0  0
   -5.9896    1.9378    3.2576 H   0  0  0  0  0  0  0  0  0  0  0  0
   -4.9926    0.1400    1.7172 H   0  0  0  0  0  0  0  0  0  0  0  0
   -3.6367    1.4881   -0.4769 H   0  0  0  0  0  0  0  0  0  0  0  0
   -6.2398    0.2167   -0.3940 H   0  0  0  0  0  0  0  0  0  0  0  0
   -5.6875    1.4661   -2.0581 H   0  0  0  0  0  0  0  0  0  0  0  0
   -4.2545   -1.6420   -1.8331 H   0  0  0  0  0  0  0  0  0  0  0  0
   -6.2249   -2.1220   -2.3400 H   0  0  0  0  0  0  0  0  0  0  0  0
   -5.4700   -2.2984    0.8597 H   0  0  0  0  0  0  0  0  0  0  0  0
   -3.8040   -4.1537    0.7145 H   0  0  0  0  0  0  0  0  0  0  0  0
   -3.2553   -3.5343   -0.8819 H   0  0  0  0  0  0  0  0  0  0  0  0
   -5.5835   -4.9274   -0.3278 H   0  0  0  0  0  0  0  0  0  0  0  0
   -2.7097   -0.8292   -0.7837 H   0  0  0  0  0  0  0  0  0  0  0  0
    0.4007   -0.7890   -1.6043 H   0  0  0  0  0  0  0  0  0  0  0  0
   -0.3288    2.5843    3.1972 H   0  0  0  0  0  0  0  0  0  0  0  0
    2.4884    1.1539   -0.0264 H   0  0  0  0  0  0  0  0  0  0  0  0
    2.1103    2.8615    0.2635 H   0  0  0  0  0  0  0  0  0  0  0  0
    4.5458    3.2519    0.9130 H   0  0  0  0  0  0  0  0  0  0  0  0
    6.4198    0.8739   -0.8549 H   0  0  0  0  0  0  0  0  0  0  0  0
    3.5076    0.7663   -1.7470 H   0  0  0  0  0  0  0  0  0  0  0  0
    5.0798    2.0702   -3.3409 H   0  0  0  0  0  0  0  0  0  0  0  0
    3.5488    3.1625   -1.6631 H   0  0  0  0  0  0  0  0  0  0  0  0
    5.5930    3.7358   -2.2666 H   0  0  0  0  0  0  0  0  0  0  0  0
    3.8439   -1.2118   -1.8508 H   0  0  0  0  0  0  0  0  0  0  0  0
    3.8364   -3.5768   -1.4211 H   0  0  0  0  0  0  0  0  0  0  0  0
    6.7230   -3.0348    1.5700 H   0  0  0  0  0  0  0  0  0  0  0  0
  1  2  1  0
  2  3  2  0
  2  4  1  0
  4  5  1  0
  5  6  1  0
  6  7  1  0
  6  8  1  0
  8  9  1  0
  8 10  1  0
 10 11  1  0
 11 12  1  0
 10 13  1  0
 13 14  1  0
 14 15  1  0
 15 16  1  0
 16 17  1  0
 16 18  2  0
 16 19  1  0
 19 20  1  0
 20 21  1  0
 20 22  2  0
 20 23  1  0
 23 24  1  0
 24 25  1  0
 25 26  1  0
 26 27  1  0
 27 28  1  0
 28 29  1  0
 28 30  1  0
 30 31  1  0
 27 32  1  0
 32 33  1  0
 33 34  2  0
 34 35  1  0
 35 36  2  0
 35 37  1  0
 37 38  1  0
 38 39  2  0
 14  5  1  0
 30 25  1  0
 38 32  1  0
  1 40  1  0
  1 41  1  0
  1 42  1  0
  4 43  1  0
  5 44  1  6
  6 45  1  1
  7 46  1  0
  8 47  1  6
  9 48  1  0
 10 49  1  1
 11 50  1  0
 11 51  1  0
 12 52  1  0
 14 53  1  6
 17 54  1  0
 21 55  1  0
 24 56  1  0
 24 57  1  0
 25 58  1  1
 27 59  1  6
 28 60  1  6
 29 61  1  0
 30 62  1  6
 31 63  1  0
 33 64  1  0
 34 65  1  0
 37 66  1  0
M  END
$$$$
