@<TRIPOS>MOLECULE
*****
 42 44 0 0 0
SMALL
GASTEIGER

@<TRIPOS>ATOM
      1 C          -6.8231    2.3790   -1.0558 C.3     1  UNL1       -0.0397
      2 C          -5.7976    1.4151   -0.6449 C.ar    1  UNL1       -0.0503
      3 C          -5.4871    0.2652   -1.3573 C.ar    1  UNL1       -0.0570
      4 C          -4.5200   -0.6223   -0.9493 C.ar    1  UNL1       -0.0351
      5 C          -3.8200   -0.3803    0.2086 C.ar    1  UNL1        0.1055
      6 S          -2.5681   -1.5089    0.7521 S.O2    1  UNL1        0.0611
      7 O          -2.9288   -2.8987    0.3198 O.2     1  UNL1       -0.1528
      8 O          -2.5307   -1.5377    2.2662 O.2     1  UNL1       -0.1528
      9 N          -1.0947   -1.0077    0.0691 N.3     1  UNL1       -0.1725
     10 C          -0.6685    0.2876    0.4590 C.3     1  UNL1        0.0397
     11 C           0.7967    0.3764    0.6722 C.2     1  UNL1       -0.0570
     12 C           1.6624   -0.4127    0.0619 C.2     1  UNL1        0.0015
     13 C           3.0837   -0.3633    0.2362 C.1     1  UNL1       -0.0641
     14 C           4.2780   -0.3026    0.3854 C.1     1  UNL1       -0.0415
     15 C           5.7057   -0.2458    0.5440 C.ar    1  UNL1        0.1137
     16 C           6.2623    1.0022    0.7181 C.ar    1  UNL1       -0.0278
     17 C           7.6301    1.0764    0.8717 C.ar    1  UNL1       -0.0577
     18 C           8.4060   -0.0887    0.8480 C.ar    1  UNL1       -0.0435
     19 C           7.8032   -1.3104    0.6714 C.ar    1  UNL1        0.0290
     20 N           6.4732   -1.3558    0.5245 N.ar    1  UNL1       -0.2467
     21 C           1.0534   -1.4157   -0.8683 C.3     1  UNL1       -0.0056
     22 C          -0.0955   -2.0143   -0.0574 C.3     1  UNL1        0.0254
     23 C          -4.1168    0.7558    0.9255 C.ar    1  UNL1       -0.0351
     24 C          -5.0824    1.6320    0.5084 C.ar    1  UNL1       -0.0570
     25 H          -7.0438    3.0600   -0.2290 H       1  UNL1        0.0278
     26 H          -7.7288    1.8968   -1.4765 H       1  UNL1        0.0278
     27 H          -6.3826    3.0029   -1.8754 H       1  UNL1        0.0278
     28 H          -6.0771    0.1225   -2.2745 H       1  UNL1        0.0621
     29 H          -4.3069   -1.5193   -1.5435 H       1  UNL1        0.0637
     30 H          -1.1599    0.5716    1.4110 H       1  UNL1        0.0487
     31 H          -1.0212    1.0315   -0.2950 H       1  UNL1        0.0487
     32 H           1.1813    1.1102    1.3516 H       1  UNL1        0.0594
     33 H           5.6265    1.8899    0.7309 H       1  UNL1        0.0645
     34 H           8.0798    2.0365    1.0089 H       1  UNL1        0.0619
     35 H           9.4869   -0.0038    0.9717 H       1  UNL1        0.0633
     36 H           8.4189   -2.1918    0.6571 H       1  UNL1        0.0830
     37 H           0.5404   -0.8388   -1.6931 H       1  UNL1        0.0332
     38 H           1.7617   -2.1558   -1.2315 H       1  UNL1        0.0332
     39 H          -0.5404   -2.8827   -0.5870 H       1  UNL1        0.0447
     40 H           0.3620   -2.3062    0.9188 H       1  UNL1        0.0447
     41 H          -3.5493    0.9370    1.8507 H       1  UNL1        0.0637
     42 H          -5.2685    2.5144    1.1225 H       1  UNL1        0.0621
@<TRIPOS>BOND
     1     1     2    1
     2     2     3   ar
     3     3     4   ar
     4     4     5   ar
     5     5     6    1
     6     6     7    2
     7     6     8    2
     8     6     9    1
     9     9    10    1
    10    10    11    1
    11    11    12    2
    12    12    13    1
    13    13    14    3
    14    14    15    1
    15    15    16   ar
    16    16    17   ar
    17    17    18   ar
    18    18    19   ar
    19    19    20   ar
    20    12    21    1
    21    21    22    1
    22     5    23   ar
    23    23    24   ar
    24    24     2   ar
    25    22     9    1
    26    20    15   ar
    27     1    25    1
    28     1    26    1
    29     1    27    1
    30     3    28    1
    31     4    29    1
    32    10    30    1
    33    10    31    1
    34    11    32    1
    35    16    33    1
    36    17    34    1
    37    18    35    1
    38    19    36    1
    39    21    37    1
    40    21    38    1
    41    22    39    1
    42    22    40    1
    43    23    41    1
    44    24    42    1
