
     RDKit          3D

 41 43  0  0  0  0  0  0  0  0999 V2000
   -3.2847    0.1111    1.1738 C   0  0  0  0  0  0  0  0  0  0  0  0
   -2.3750   -0.5359    0.1517 C   0  0  0  0  0  0  0  0  0  0  0  0
   -2.6567   -2.0465    0.2611 C   0  0  0  0  0  0  0  0  0  0  0  0
   -2.8110   -0.1339   -1.2144 C   0  0  0  0  0  0  0  0  0  0  0  0
   -4.1441   -0.5785   -1.3814 O   0  0  0  0  0  0  0  0  0  0  0  0
   -0.9328   -0.3586    0.4543 C   0  0  1  0  0  0  0  0  0  0  0  0
   -0.1415   -0.9986   -0.5625 N   0  0  0  0  0  0  0  0  0  0  0  0
    1.2791   -0.8480   -0.5023 C   0  0  0  0  0  0  0  0  0  0  0  0
    2.1273   -1.6445   -1.2509 C   0  0  0  0  0  0  0  0  0  0  0  0
    3.4966   -1.4954   -1.1892 C   0  0  0  0  0  0  0  0  0  0  0  0
    4.0177   -0.5209   -0.3533 C   0  0  0  0  0  0  0  0  0  0  0  0
    5.4209   -0.3427   -0.2675 N   0  0  0  0  0  4  0  0  0  0  0  0
    5.8728    0.5338    0.4852 O   0  0  0  0  0  0  0  0  0  0  0  0
    6.2811   -1.1090   -0.9900 O   0  0  0  0  0  1  0  0  0  0  0  0
    3.1559    0.2724    0.3932 C   0  0  0  0  0  0  0  0  0  0  0  0
    1.7723    0.1207    0.3299 C   0  0  0  0  0  0  0  0  0  0  0  0
    0.9682    1.0189    1.1661 C   0  0  1  0  0  0  0  0  0  0  0  0
    1.3471    2.4449    0.9173 C   0  0  0  0  0  0  0  0  0  0  0  0
    0.4959    3.0232    0.0871 C   0  0  0  0  0  0  0  0  0  0  0  0
   -0.5307    2.0242   -0.2926 C   0  0  0  0  0  0  0  0  0  0  0  0
   -0.4952    1.0281    0.7984 C   0  0  1  0  0  0  0  0  0  0  0  0
   -2.7990    0.2180    2.1580 H   0  0  0  0  0  0  0  0  0  0  0  0
   -4.1950   -0.5069    1.3155 H   0  0  0  0  0  0  0  0  0  0  0  0
   -3.6285    1.0879    0.7620 H   0  0  0  0  0  0  0  0  0  0  0  0
   -3.5741   -2.2599    0.8094 H   0  0  0  0  0  0  0  0  0  0  0  0
   -1.8338   -2.5767    0.7719 H   0  0  0  0  0  0  0  0  0  0  0  0
   -2.7290   -2.5062   -0.7544 H   0  0  0  0  0  0  0  0  0  0  0  0
   -2.8252    0.9284   -1.4303 H   0  0  0  0  0  0  0  0  0  0  0  0
   -2.2391   -0.6877   -2.0064 H   0  0  0  0  0  0  0  0  0  0  0  0
   -4.4470   -1.0985   -0.6197 H   0  0  0  0  0  0  0  0  0  0  0  0
   -0.7400   -0.9671    1.3929 H   0  0  0  0  0  0  0  0  0  0  0  0
   -0.5254   -1.5654   -1.3418 H   0  0  0  0  0  0  0  0  0  0  0  0
    1.7304   -2.4070   -1.9055 H   0  0  0  0  0  0  0  0  0  0  0  0
    4.2037   -2.0882   -1.7502 H   0  0  0  0  0  0  0  0  0  0  0  0
    3.6224    1.0174    1.0288 H   0  0  0  0  0  0  0  0  0  0  0  0
    1.1179    0.8123    2.2310 H   0  0  0  0  0  0  0  0  0  0  0  0
    2.2140    2.9721    1.3529 H   0  0  0  0  0  0  0  0  0  0  0  0
    0.5659    4.0751   -0.2474 H   0  0  0  0  0  0  0  0  0  0  0  0
   -1.4866    2.5883   -0.3516 H   0  0  0  0  0  0  0  0  0  0  0  0
   -0.2246    1.6182   -1.2807 H   0  0  0  0  0  0  0  0  0  0  0  0
   -1.0700    1.3810    1.6518 H   0  0  0  0  0  0  0  0  0  0  0  0
  1  2  1  0
  2  3  1  0
  2  4  1  0
  4  5  1  0
  2  6  1  0
  6  7  1  0
  7  8  1  0
  8  9  2  0
  9 10  1  0
 10 11  2  0
 11 12  1  0
 12 13  2  0
 12 14  1  0
 11 15  1  0
 15 16  2  0
 16 17  1  0
 17 18  1  0
 18 19  2  0
 19 20  1  0
 20 21  1  0
 21  6  1  0
 16  8  1  0
 21 17  1  0
  1 22  1  0
  1 23  1  0
  1 24  1  0
  3 25  1  0
  3 26  1  0
  3 27  1  0
  4 28  1  0
  4 29  1  0
  5 30  1  0
  6 31  1  1
  7 32  1  0
  9 33  1  0
 10 34  1  0
 15 35  1  0
 17 36  1  1
 18 37  1  0
 19 38  1  0
 20 39  1  0
 20 40  1  0
 21 41  1  1
M  CHG  2  12   1  14  -1
M  END
$$$$
