@<TRIPOS>MOLECULE
*****
 41 43 0 0 0
SMALL
GASTEIGER

@<TRIPOS>ATOM
      1 C          -3.2847    0.1111    1.1738 C.3     1  UNL1       -0.0560
      2 C          -2.3750   -0.5359    0.1517 C.3     1  UNL1        0.0068
      3 C          -2.6567   -2.0465    0.2611 C.3     1  UNL1       -0.0560
      4 C          -2.8110   -0.1339   -1.2144 C.3     1  UNL1        0.0510
      5 O          -4.1441   -0.5785   -1.3814 O.3     1  UNL1       -0.3944
      6 C          -0.9328   -0.3586    0.4543 C.3     1  UNL1        0.0318
      7 N          -0.1415   -0.9986   -0.5625 N.pl3   1  UNL1       -0.3399
      8 C           1.2791   -0.8480   -0.5023 C.ar    1  UNL1        0.0316
      9 C           2.1273   -1.6445   -1.2509 C.ar    1  UNL1       -0.0342
     10 C           3.4966   -1.4954   -1.1892 C.ar    1  UNL1        0.0173
     11 C           4.0177   -0.5209   -0.3533 C.ar    1  UNL1        0.2735
     12 N           5.4209   -0.3427   -0.2675 N.pl3   1  UNL1        0.0796
     13 O           5.8728    0.5338    0.4852 O.2     1  UNL1        0.0414
     14 O           6.2811   -1.1090   -0.9900 O.co2   1  UNL1       -0.5760
     15 C           3.1559    0.2724    0.3932 C.ar    1  UNL1        0.0211
     16 C           1.7723    0.1207    0.3299 C.ar    1  UNL1       -0.0130
     17 C           0.9682    1.0189    1.1661 C.3     1  UNL1        0.0089
     18 C           1.3471    2.4449    0.9173 C.2     1  UNL1       -0.0801
     19 C           0.4959    3.0232    0.0871 C.2     1  UNL1       -0.0870
     20 C          -0.5307    2.0242   -0.2926 C.3     1  UNL1       -0.0294
     21 C          -0.4952    1.0281    0.7984 C.3     1  UNL1       -0.0084
     22 H          -2.7990    0.2180    2.1580 H       1  UNL1        0.0236
     23 H          -4.1950   -0.5069    1.3155 H       1  UNL1        0.0236
     24 H          -3.6285    1.0879    0.7620 H       1  UNL1        0.0236
     25 H          -3.5741   -2.2599    0.8094 H       1  UNL1        0.0236
     26 H          -1.8338   -2.5767    0.7719 H       1  UNL1        0.0236
     27 H          -2.7290   -2.5062   -0.7544 H       1  UNL1        0.0236
     28 H          -2.8252    0.9284   -1.4303 H       1  UNL1        0.0563
     29 H          -2.2391   -0.6877   -2.0064 H       1  UNL1        0.0563
     30 H          -4.4470   -1.0985   -0.6197 H       1  UNL1        0.2094
     31 H          -0.7400   -0.9671    1.3929 H       1  UNL1        0.0506
     32 H          -0.5254   -1.5654   -1.3418 H       1  UNL1        0.1464
     33 H           1.7304   -2.4070   -1.9055 H       1  UNL1        0.0638
     34 H           4.2037   -2.0882   -1.7502 H       1  UNL1        0.0686
     35 H           3.6224    1.0174    1.0288 H       1  UNL1        0.0689
     36 H           1.1179    0.8123    2.2310 H       1  UNL1        0.0395
     37 H           2.2140    2.9721    1.3529 H       1  UNL1        0.0575
     38 H           0.5659    4.0751   -0.2474 H       1  UNL1        0.0569
     39 H          -1.4866    2.5883   -0.3516 H       1  UNL1        0.0311
     40 H          -0.2246    1.6182   -1.2807 H       1  UNL1        0.0311
     41 H          -1.0700    1.3810    1.6518 H       1  UNL1        0.0331
@<TRIPOS>UNITY_ATOM_ATTR
12 1
charge 1
14 1
charge -1
@<TRIPOS>BOND
     1     1     2    1
     2     2     3    1
     3     2     4    1
     4     4     5    1
     5     2     6    1
     6     6     7    1
     7     7     8    1
     8     8     9   ar
     9     9    10   ar
    10    10    11   ar
    11    11    12    1
    12    12    13    2
    13    12    14    1
    14    11    15   ar
    15    15    16   ar
    16    16    17    1
    17    17    18    1
    18    18    19    2
    19    19    20    1
    20    20    21    1
    21    21     6    1
    22    16     8   ar
    23    21    17    1
    24     1    22    1
    25     1    23    1
    26     1    24    1
    27     3    25    1
    28     3    26    1
    29     3    27    1
    30     4    28    1
    31     4    29    1
    32     5    30    1
    33     6    31    1
    34     7    32    1
    35     9    33    1
    36    10    34    1
    37    15    35    1
    38    17    36    1
    39    18    37    1
    40    19    38    1
    41    20    39    1
    42    20    40    1
    43    21    41    1
