@<TRIPOS>MOLECULE
*****
 91 97 0 0 0
SMALL
GASTEIGER

@<TRIPOS>ATOM
      1 C          12.6068    1.4777    0.6661 C.3     1  UNL1       -0.0497
      2 C          12.3080    0.0898    0.1229 C.3     1  UNL1        0.0049
      3 C          13.6020   -0.4426   -0.4648 C.3     1  UNL1       -0.0497
      4 N          11.2850    0.1797   -0.8742 N.3     1  UNL1       -0.2969
      5 C          10.9418   -1.0693   -1.4778 C.3     1  UNL1        0.0150
      6 C          10.1676   -1.9126   -0.5119 C.3     1  UNL1        0.0278
      7 N           8.9793   -1.1829   -0.1564 N.am    1  UNL1       -0.2951
      8 C           7.7186   -1.8054   -0.2160 C.2     1  UNL1        0.2467
      9 O           7.6514   -3.0023   -0.5843 O.2     1  UNL1       -0.2700
     10 C           6.4872   -1.0933    0.1399 C.ar    1  UNL1        0.0370
     11 C           5.9274   -0.1338   -0.6749 C.ar    1  UNL1       -0.0479
     12 C           4.7664    0.5163   -0.3090 C.ar    1  UNL1       -0.0397
     13 C           4.1031    0.2423    0.8911 C.ar    1  UNL1        0.0348
     14 N           2.9186    0.9560    1.1892 N.am    1  UNL1       -0.2692
     15 C           1.6392    0.4518    0.7997 C.2     1  UNL1        0.3081
     16 O           1.6224   -0.6410    0.1966 O.2     1  UNL1       -0.2522
     17 N           0.4475    1.1750    1.0896 N.am    1  UNL1       -0.2692
     18 C          -0.8465    0.7657    0.7522 C.ar    1  UNL1        0.0348
     19 C          -1.8850    1.6676    1.0060 C.ar    1  UNL1       -0.0398
     20 C          -3.1993    1.3890    0.7275 C.ar    1  UNL1       -0.0493
     21 C          -3.5763    0.1662    0.1649 C.ar    1  UNL1        0.0194
     22 C          -4.9667   -0.1165   -0.1308 C.ar    1  UNL1        0.1652
     23 N          -5.3679   -1.2799   -0.6349 N.ar    1  UNL1       -0.2122
     24 C          -6.6498   -1.5511   -0.9429 C.ar    1  UNL1        0.1382
     25 C          -6.9867   -2.8780   -1.4872 C.3     1  UNL1        0.0233
     26 C          -7.6801   -3.6480   -0.3640 C.3     1  UNL1       -0.0197
     27 C          -9.1732   -3.4753   -0.4745 C.3     1  UNL1        0.0483
     28 O          -9.5552   -2.2794   -1.0661 O.3     1  UNL1       -0.3797
     29 C          -9.1759   -2.1910   -2.4012 C.3     1  UNL1        0.0483
     30 C          -7.8619   -2.8375   -2.6968 C.3     1  UNL1       -0.0197
     31 N          -7.5386   -0.5876   -0.7212 N.ar    1  UNL1       -0.1991
     32 C          -7.1833    0.6061   -0.2121 C.ar    1  UNL1        0.2220
     33 N          -8.1143    1.6511   -0.0031 N.pl3   1  UNL1       -0.2891
     34 C          -9.4325    1.7798   -0.6409 C.3     1  UNL1        0.0500
     35 C          -9.2938    3.2102   -1.1706 C.3     1  UNL1       -0.0304
     36 C          -8.6254    3.9161    0.0169 C.3     1  UNL1       -0.0304
     37 C          -8.0083    2.8023    0.8610 C.3     1  UNL1        0.0500
     38 C          -8.9679    2.5597    2.0293 C.3     1  UNL1        0.0663
     39 O          -9.8966    1.5540    1.7082 O.3     1  UNL1       -0.3761
     40 C         -10.4620    1.7741    0.4375 C.3     1  UNL1        0.0663
     41 N          -5.8683    0.8478    0.0902 N.ar    1  UNL1       -0.1945
     42 C          -2.5397   -0.7014   -0.0736 C.ar    1  UNL1       -0.0493
     43 C          -1.2119   -0.4228    0.2067 C.ar    1  UNL1       -0.0398
     44 C           4.6726   -0.7161    1.6934 C.ar    1  UNL1       -0.0397
     45 C           5.8317   -1.3679    1.3325 C.ar    1  UNL1       -0.0479
     46 C           9.0865    0.1912    0.2597 C.3     1  UNL1        0.0278
     47 C          10.1601    0.9573   -0.4553 C.3     1  UNL1        0.0150
     48 H          13.6844    1.5688    0.9964 H       1  UNL1        0.0245
     49 H          12.4897    2.2178   -0.1552 H       1  UNL1        0.0245
     50 H          12.0176    1.7072    1.5643 H       1  UNL1        0.0245
     51 H          12.0172   -0.6011    0.9372 H       1  UNL1        0.0457
     52 H          13.5989   -1.5235   -0.6063 H       1  UNL1        0.0245
     53 H          13.8831    0.1092   -1.3639 H       1  UNL1        0.0245
     54 H          14.3991   -0.2172    0.3050 H       1  UNL1        0.0245
     55 H          10.2513   -0.8485   -2.3249 H       1  UNL1        0.0442
     56 H          11.8396   -1.5521   -1.8727 H       1  UNL1        0.0442
     57 H           9.8879   -2.8879   -0.9545 H       1  UNL1        0.0477
     58 H          10.7174   -2.1010    0.4468 H       1  UNL1        0.0477
     59 H           6.4392    0.0807   -1.6046 H       1  UNL1        0.0626
     60 H           4.3323    1.2685   -0.9511 H       1  UNL1        0.0636
     61 H           2.9358    1.8821    1.7081 H       1  UNL1        0.1564
     62 H           0.5707    2.1010    1.6141 H       1  UNL1        0.1564
     63 H          -1.6054    2.6380    1.4490 H       1  UNL1        0.0636
     64 H          -3.9708    2.1086    0.9359 H       1  UNL1        0.0625
     65 H          -6.0481   -3.4492   -1.6849 H       1  UNL1        0.0381
     66 H          -7.3760   -4.7043   -0.3823 H       1  UNL1        0.0294
     67 H          -7.3182   -3.2386    0.6224 H       1  UNL1        0.0294
     68 H          -9.5983   -3.4415    0.5676 H       1  UNL1        0.0560
     69 H          -9.6262   -4.3308   -1.0420 H       1  UNL1        0.0560
     70 H         -10.0009   -2.6128   -3.0473 H       1  UNL1        0.0560
     71 H          -9.0604   -1.0940   -2.6386 H       1  UNL1        0.0560
     72 H          -7.3359   -2.3920   -3.5593 H       1  UNL1        0.0294
     73 H          -8.0676   -3.9017   -2.9802 H       1  UNL1        0.0294
     74 H          -9.5725    1.0404   -1.4429 H       1  UNL1        0.0523
     75 H         -10.2430    3.6609   -1.4510 H       1  UNL1        0.0284
     76 H          -8.6293    3.2057   -2.0540 H       1  UNL1        0.0284
     77 H          -7.8657    4.6408   -0.3166 H       1  UNL1        0.0284
     78 H          -9.4401    4.4224    0.5745 H       1  UNL1        0.0284
     79 H          -6.9988    3.0345    1.2059 H       1  UNL1        0.0523
     80 H          -9.4480    3.4836    2.3597 H       1  UNL1        0.0578
     81 H          -8.3421    2.1653    2.8642 H       1  UNL1        0.0578
     82 H         -11.0042    2.7469    0.5095 H       1  UNL1        0.0578
     83 H         -11.2283    0.9893    0.3097 H       1  UNL1        0.0578
     84 H          -2.8090   -1.6736   -0.5157 H       1  UNL1        0.0625
     85 H          -0.4666   -1.1725   -0.0156 H       1  UNL1        0.0636
     86 H           4.1925   -0.9593    2.6371 H       1  UNL1        0.0636
     87 H           6.2881   -2.1267    1.9652 H       1  UNL1        0.0626
     88 H           9.3423    0.2005    1.3461 H       1  UNL1        0.0477
     89 H           8.1313    0.7385    0.1575 H       1  UNL1        0.0477
     90 H           9.6575    1.4557   -1.3367 H       1  UNL1        0.0442
     91 H          10.5237    1.7707    0.1811 H       1  UNL1        0.0442
@<TRIPOS>BOND
     1     1     2    1
     2     2     3    1
     3     2     4    1
     4     4     5    1
     5     5     6    1
     6     6     7    1
     7     7     8   am
     8     8     9    2
     9     8    10    1
    10    10    11   ar
    11    11    12   ar
    12    12    13   ar
    13    13    14    1
    14    14    15   am
    15    15    16    2
    16    15    17   am
    17    17    18    1
    18    18    19   ar
    19    19    20   ar
    20    20    21   ar
    21    21    22    1
    22    22    23   ar
    23    23    24   ar
    24    24    25    1
    25    25    26    1
    26    26    27    1
    27    27    28    1
    28    28    29    1
    29    29    30    1
    30    24    31   ar
    31    31    32   ar
    32    32    33    1
    33    33    34    1
    34    34    35    1
    35    35    36    1
    36    36    37    1
    37    37    38    1
    38    38    39    1
    39    39    40    1
    40    32    41   ar
    41    21    42   ar
    42    42    43   ar
    43    13    44   ar
    44    44    45   ar
    45     7    46    1
    46    46    47    1
    47    47     4    1
    48    45    10   ar
    49    43    18   ar
    50    41    22   ar
    51    30    25    1
    52    37    33    1
    53    40    34    1
    54     1    48    1
    55     1    49    1
    56     1    50    1
    57     2    51    1
    58     3    52    1
    59     3    53    1
    60     3    54    1
    61     5    55    1
    62     5    56    1
    63     6    57    1
    64     6    58    1
    65    11    59    1
    66    12    60    1
    67    14    61    1
    68    17    62    1
    69    19    63    1
    70    20    64    1
    71    25    65    1
    72    26    66    1
    73    26    67    1
    74    27    68    1
    75    27    69    1
    76    29    70    1
    77    29    71    1
    78    30    72    1
    79    30    73    1
    80    34    74    1
    81    35    75    1
    82    35    76    1
    83    36    77    1
    84    36    78    1
    85    37    79    1
    86    38    80    1
    87    38    81    1
    88    40    82    1
    89    40    83    1
    90    42    84    1
    91    43    85    1
    92    44    86    1
    93    45    87    1
    94    46    88    1
    95    46    89    1
    96    47    90    1
    97    47    91    1
