
     RDKit          3D

 91 97  0  0  0  0  0  0  0  0999 V2000
   12.6068    1.4777    0.6661 C   0  0  0  0  0  0  0  0  0  0  0  0
   12.3080    0.0898    0.1229 C   0  0  0  0  0  0  0  0  0  0  0  0
   13.6020   -0.4426   -0.4648 C   0  0  0  0  0  0  0  0  0  0  0  0
   11.2850    0.1797   -0.8742 N   0  0  0  0  0  0  0  0  0  0  0  0
   10.9418   -1.0693   -1.4778 C   0  0  0  0  0  0  0  0  0  0  0  0
   10.1676   -1.9126   -0.5119 C   0  0  0  0  0  0  0  0  0  0  0  0
    8.9793   -1.1829   -0.1564 N   0  0  0  0  0  0  0  0  0  0  0  0
    7.7186   -1.8054   -0.2160 C   0  0  0  0  0  0  0  0  0  0  0  0
    7.6514   -3.0023   -0.5843 O   0  0  0  0  0  0  0  0  0  0  0  0
    6.4872   -1.0933    0.1399 C   0  0  0  0  0  0  0  0  0  0  0  0
    5.9274   -0.1338   -0.6749 C   0  0  0  0  0  0  0  0  0  0  0  0
    4.7664    0.5163   -0.3090 C   0  0  0  0  0  0  0  0  0  0  0  0
    4.1031    0.2423    0.8911 C   0  0  0  0  0  0  0  0  0  0  0  0
    2.9186    0.9560    1.1892 N   0  0  0  0  0  0  0  0  0  0  0  0
    1.6392    0.4518    0.7997 C   0  0  0  0  0  0  0  0  0  0  0  0
    1.6224   -0.6410    0.1966 O   0  0  0  0  0  0  0  0  0  0  0  0
    0.4475    1.1750    1.0896 N   0  0  0  0  0  0  0  0  0  0  0  0
   -0.8465    0.7657    0.7522 C   0  0  0  0  0  0  0  0  0  0  0  0
   -1.8850    1.6676    1.0060 C   0  0  0  0  0  0  0  0  0  0  0  0
   -3.1993    1.3890    0.7275 C   0  0  0  0  0  0  0  0  0  0  0  0
   -3.5763    0.1662    0.1649 C   0  0  0  0  0  0  0  0  0  0  0  0
   -4.9667   -0.1165   -0.1308 C   0  0  0  0  0  0  0  0  0  0  0  0
   -5.3679   -1.2799   -0.6349 N   0  0  0  0  0  0  0  0  0  0  0  0
   -6.6498   -1.5511   -0.9429 C   0  0  0  0  0  0  0  0  0  0  0  0
   -6.9867   -2.8780   -1.4872 C   0  0  0  0  0  0  0  0  0  0  0  0
   -7.6801   -3.6480   -0.3640 C   0  0  0  0  0  0  0  0  0  0  0  0
   -9.1732   -3.4753   -0.4745 C   0  0  0  0  0  0  0  0  0  0  0  0
   -9.5552   -2.2794   -1.0661 O   0  0  0  0  0  0  0  0  0  0  0  0
   -9.1759   -2.1910   -2.4012 C   0  0  0  0  0  0  0  0  0  0  0  0
   -7.8619   -2.8375   -2.6968 C   0  0  0  0  0  0  0  0  0  0  0  0
   -7.5386   -0.5876   -0.7212 N   0  0  0  0  0  0  0  0  0  0  0  0
   -7.1833    0.6061   -0.2121 C   0  0  0  0  0  0  0  0  0  0  0  0
   -8.1143    1.6511   -0.0031 N   0  0  0  0  0  0  0  0  0  0  0  0
   -9.4325    1.7798   -0.6409 C   0  0  0  0  0  0  0  0  0  0  0  0
   -9.2938    3.2102   -1.1706 C   0  0  0  0  0  0  0  0  0  0  0  0
   -8.6254    3.9161    0.0169 C   0  0  0  0  0  0  0  0  0  0  0  0
   -8.0083    2.8023    0.8610 C   0  0  0  0  0  0  0  0  0  0  0  0
   -8.9679    2.5597    2.0293 C   0  0  0  0  0  0  0  0  0  0  0  0
   -9.8966    1.5540    1.7082 O   0  0  0  0  0  0  0  0  0  0  0  0
  -10.4620    1.7741    0.4375 C   0  0  0  0  0  0  0  0  0  0  0  0
   -5.8683    0.8478    0.0902 N   0  0  0  0  0  0  0  0  0  0  0  0
   -2.5397   -0.7014   -0.0736 C   0  0  0  0  0  0  0  0  0  0  0  0
   -1.2119   -0.4228    0.2067 C   0  0  0  0  0  0  0  0  0  0  0  0
    4.6726   -0.7161    1.6934 C   0  0  0  0  0  0  0  0  0  0  0  0
    5.8317   -1.3679    1.3325 C   0  0  0  0  0  0  0  0  0  0  0  0
    9.0865    0.1912    0.2597 C   0  0  0  0  0  0  0  0  0  0  0  0
   10.1601    0.9573   -0.4553 C   0  0  0  0  0  0  0  0  0  0  0  0
   13.6844    1.5688    0.9964 H   0  0  0  0  0  0  0  0  0  0  0  0
   12.4897    2.2178   -0.1552 H   0  0  0  0  0  0  0  0  0  0  0  0
   12.0176    1.7072    1.5643 H   0  0  0  0  0  0  0  0  0  0  0  0
   12.0172   -0.6011    0.9372 H   0  0  0  0  0  0  0  0  0  0  0  0
   13.5989   -1.5235   -0.6063 H   0  0  0  0  0  0  0  0  0  0  0  0
   13.8831    0.1092   -1.3639 H   0  0  0  0  0  0  0  0  0  0  0  0
   14.3991   -0.2172    0.3050 H   0  0  0  0  0  0  0  0  0  0  0  0
   10.2513   -0.8485   -2.3249 H   0  0  0  0  0  0  0  0  0  0  0  0
   11.8396   -1.5521   -1.8727 H   0  0  0  0  0  0  0  0  0  0  0  0
    9.8879   -2.8879   -0.9545 H   0  0  0  0  0  0  0  0  0  0  0  0
   10.7174   -2.1010    0.4468 H   0  0  0  0  0  0  0  0  0  0  0  0
    6.4392    0.0807   -1.6046 H   0  0  0  0  0  0  0  0  0  0  0  0
    4.3323    1.2685   -0.9511 H   0  0  0  0  0  0  0  0  0  0  0  0
    2.9358    1.8821    1.7081 H   0  0  0  0  0  0  0  0  0  0  0  0
    0.5707    2.1010    1.6141 H   0  0  0  0  0  0  0  0  0  0  0  0
   -1.6054    2.6380    1.4490 H   0  0  0  0  0  0  0  0  0  0  0  0
   -3.9708    2.1086    0.9359 H   0  0  0  0  0  0  0  0  0  0  0  0
   -6.0481   -3.4492   -1.6849 H   0  0  0  0  0  0  0  0  0  0  0  0
   -7.3760   -4.7043   -0.3823 H   0  0  0  0  0  0  0  0  0  0  0  0
   -7.3182   -3.2386    0.6224 H   0  0  0  0  0  0  0  0  0  0  0  0
   -9.5983   -3.4415    0.5676 H   0  0  0  0  0  0  0  0  0  0  0  0
   -9.6262   -4.3308   -1.0420 H   0  0  0  0  0  0  0  0  0  0  0  0
  -10.0009   -2.6128   -3.0473 H   0  0  0  0  0  0  0  0  0  0  0  0
   -9.0604   -1.0940   -2.6386 H   0  0  0  0  0  0  0  0  0  0  0  0
   -7.3359   -2.3920   -3.5593 H   0  0  0  0  0  0  0  0  0  0  0  0
   -8.0676   -3.9017   -2.9802 H   0  0  0  0  0  0  0  0  0  0  0  0
   -9.5725    1.0404   -1.4429 H   0  0  0  0  0  0  0  0  0  0  0  0
  -10.2430    3.6609   -1.4510 H   0  0  0  0  0  0  0  0  0  0  0  0
   -8.6293    3.2057   -2.0540 H   0  0  0  0  0  0  0  0  0  0  0  0
   -7.8657    4.6408   -0.3166 H   0  0  0  0  0  0  0  0  0  0  0  0
   -9.4401    4.4224    0.5745 H   0  0  0  0  0  0  0  0  0  0  0  0
   -6.9988    3.0345    1.2059 H   0  0  0  0  0  0  0  0  0  0  0  0
   -9.4480    3.4836    2.3597 H   0  0  0  0  0  0  0  0  0  0  0  0
   -8.3421    2.1653    2.8642 H   0  0  0  0  0  0  0  0  0  0  0  0
  -11.0042    2.7469    0.5095 H   0  0  0  0  0  0  0  0  0  0  0  0
  -11.2283    0.9893    0.3097 H   0  0  0  0  0  0  0  0  0  0  0  0
   -2.8090   -1.6736   -0.5157 H   0  0  0  0  0  0  0  0  0  0  0  0
   -0.4666   -1.1725   -0.0156 H   0  0  0  0  0  0  0  0  0  0  0  0
    4.1925   -0.9593    2.6371 H   0  0  0  0  0  0  0  0  0  0  0  0
    6.2881   -2.1267    1.9652 H   0  0  0  0  0  0  0  0  0  0  0  0
    9.3423    0.2005    1.3461 H   0  0  0  0  0  0  0  0  0  0  0  0
    8.1313    0.7385    0.1575 H   0  0  0  0  0  0  0  0  0  0  0  0
    9.6575    1.4557   -1.3367 H   0  0  0  0  0  0  0  0  0  0  0  0
   10.5237    1.7707    0.1811 H   0  0  0  0  0  0  0  0  0  0  0  0
  1  2  1  0
  2  3  1  0
  2  4  1  0
  4  5  1  0
  5  6  1  0
  6  7  1  0
  7  8  1  0
  8  9  2  0
  8 10  1  0
 10 11  2  0
 11 12  1  0
 12 13  2  0
 13 14  1  0
 14 15  1  0
 15 16  2  0
 15 17  1  0
 17 18  1  0
 18 19  2  0
 19 20  1  0
 20 21  2  0
 21 22  1  0
 22 23  2  0
 23 24  1  0
 24 25  1  0
 25 26  1  0
 26 27  1  0
 27 28  1  0
 28 29  1  0
 29 30  1  0
 24 31  2  0
 31 32  1  0
 32 33  1  0
 33 34  1  0
 34 35  1  0
 35 36  1  0
 36 37  1  0
 37 38  1  0
 38 39  1  0
 39 40  1  0
 32 41  2  0
 21 42  1  0
 42 43  2  0
 13 44  1  0
 44 45  2  0
  7 46  1  0
 46 47  1  0
 47  4  1  0
 45 10  1  0
 43 18  1  0
 41 22  1  0
 30 25  1  0
 37 33  1  0
 40 34  1  0
  1 48  1  0
  1 49  1  0
  1 50  1  0
  2 51  1  0
  3 52  1  0
  3 53  1  0
  3 54  1  0
  5 55  1  0
  5 56  1  0
  6 57  1  0
  6 58  1  0
 11 59  1  0
 12 60  1  0
 14 61  1  0
 17 62  1  0
 19 63  1  0
 20 64  1  0
 25 65  1  0
 26 66  1  0
 26 67  1  0
 27 68  1  0
 27 69  1  0
 29 70  1  0
 29 71  1  0
 30 72  1  0
 30 73  1  0
 34 74  1  0
 35 75  1  0
 35 76  1  0
 36 77  1  0
 36 78  1  0
 37 79  1  0
 38 80  1  0
 38 81  1  0
 40 82  1  0
 40 83  1  0
 42 84  1  0
 43 85  1  0
 44 86  1  0
 45 87  1  0
 46 88  1  0
 46 89  1  0
 47 90  1  0
 47 91  1  0
M  END
$$$$
