@<TRIPOS>MOLECULE
*****
 56 59 0 0 0
SMALL
GASTEIGER

@<TRIPOS>ATOM
      1 C           3.2222   -2.2343    1.2870 C.3     1  UNL1       -0.0129
      2 N           2.5996   -2.3918   -0.0351 N.3     1  UNL1       -0.3051
      3 C           2.8082   -3.7655   -0.4544 C.3     1  UNL1       -0.0129
      4 C           3.2892   -1.4838   -0.9366 C.3     1  UNL1        0.0325
      5 C           3.0063   -0.0554   -0.5956 C.3     1  UNL1        0.1023
      6 O           1.6580    0.2977   -0.6591 O.3     1  UNL1       -0.4888
      7 C           1.3082    1.6142   -0.3534 C.ar    1  UNL1        0.1422
      8 C           2.2577    2.5472    0.0027 C.ar    1  UNL1       -0.0103
      9 C           1.9171    3.8526    0.3069 C.ar    1  UNL1       -0.0114
     10 C           2.9337    4.8351    0.6844 C.ar    1  UNL1        0.0194
     11 C           4.0852    4.5095    1.3637 C.ar    1  UNL1        0.0568
     12 N           4.7889    5.6617    1.5424 N.ar    1  UNL1       -0.1817
     13 N           4.1476    6.6801    1.0176 N.ar    1  UNL1       -0.2841
     14 C           2.9918    6.1930    0.4781 C.ar    1  UNL1        0.0300
     15 C           0.5854    4.1935    0.2421 C.ar    1  UNL1       -0.0520
     16 C          -0.3448    3.2722   -0.1087 C.ar    1  UNL1       -0.0363
     17 C          -0.0235    1.9568   -0.4179 C.ar    1  UNL1        0.0756
     18 N          -0.9897    0.9855   -0.7869 N.am    1  UNL1       -0.2823
     19 C          -1.6600    0.1450    0.1521 C.2     1  UNL1        0.2239
     20 O          -1.3431    0.3091    1.3704 O.2     1  UNL1       -0.2750
     21 C          -2.6575   -0.8524   -0.2560 C.3     1  UNL1        0.0739
     22 C          -2.1375   -1.8973   -1.1921 C.3     1  UNL1        0.1010
     23 O          -2.9713   -3.0576   -1.1521 O.3     1  UNL1       -0.4909
     24 C          -4.2402   -3.0486   -0.5988 C.ar    1  UNL1        0.1237
     25 C          -5.3146   -3.7510   -1.0953 C.ar    1  UNL1       -0.0197
     26 C          -6.5461   -3.6668   -0.4557 C.ar    1  UNL1       -0.0583
     27 C          -6.6949   -2.8799    0.6772 C.ar    1  UNL1       -0.0613
     28 C          -5.6139   -2.1792    1.1685 C.ar    1  UNL1       -0.0551
     29 C          -4.4200   -2.2755    0.5286 C.ar    1  UNL1       -0.0049
     30 C          -3.1894   -1.5429    0.9985 C.3     1  UNL1       -0.0099
     31 H           2.5526   -1.5741    1.8816 H       1  UNL1        0.0391
     32 H           3.2986   -3.2348    1.7553 H       1  UNL1        0.0391
     33 H           4.2338   -1.8067    1.1978 H       1  UNL1        0.0391
     34 H           1.8756   -4.1252   -0.9358 H       1  UNL1        0.0391
     35 H           3.6171   -3.8593   -1.2067 H       1  UNL1        0.0391
     36 H           2.9980   -4.4349    0.4073 H       1  UNL1        0.0391
     37 H           4.3872   -1.6471   -0.7468 H       1  UNL1        0.0460
     38 H           3.1195   -1.7371   -1.9969 H       1  UNL1        0.0460
     39 H           3.3804    0.1263    0.4336 H       1  UNL1        0.0709
     40 H           3.6343    0.5832   -1.2643 H       1  UNL1        0.0709
     41 H           3.3117    2.2908    0.0584 H       1  UNL1        0.0661
     42 H           4.4282    3.5521    1.7163 H       1  UNL1        0.0854
     43 H           4.4934    7.6640    1.0330 H       1  UNL1        0.1882
     44 H           2.2331    6.7655   -0.0326 H       1  UNL1        0.0830
     45 H           0.3109    5.2064    0.4771 H       1  UNL1        0.0624
     46 H          -1.3895    3.5745   -0.1509 H       1  UNL1        0.0637
     47 H          -1.2526    0.8487   -1.7976 H       1  UNL1        0.1549
     48 H          -3.5348   -0.3694   -0.7807 H       1  UNL1        0.0431
     49 H          -2.1926   -1.5284   -2.2413 H       1  UNL1        0.0704
     50 H          -1.1027   -2.1549   -0.9014 H       1  UNL1        0.0704
     51 H          -5.1586   -4.3561   -1.9849 H       1  UNL1        0.0654
     52 H          -7.3732   -4.2312   -0.8703 H       1  UNL1        0.0619
     53 H          -7.6542   -2.8135    1.1752 H       1  UNL1        0.0618
     54 H          -5.7300   -1.5685    2.0483 H       1  UNL1        0.0621
     55 H          -3.4905   -0.8416    1.7755 H       1  UNL1        0.0323
     56 H          -2.4483   -2.2999    1.3008 H       1  UNL1        0.0323
@<TRIPOS>BOND
     1     1     2    1
     2     2     3    1
     3     2     4    1
     4     4     5    1
     5     5     6    1
     6     6     7    1
     7     7     8   ar
     8     8     9   ar
     9     9    10    1
    10    10    11   ar
    11    11    12   ar
    12    12    13   ar
    13    13    14   ar
    14     9    15   ar
    15    15    16   ar
    16    16    17   ar
    17    17    18    1
    18    18    19   am
    19    19    20    2
    20    19    21    1
    21    21    22    1
    22    22    23    1
    23    23    24    1
    24    24    25   ar
    25    25    26   ar
    26    26    27   ar
    27    27    28   ar
    28    28    29   ar
    29    29    30    1
    30    17     7   ar
    31    30    21    1
    32    14    10   ar
    33    29    24   ar
    34     1    31    1
    35     1    32    1
    36     1    33    1
    37     3    34    1
    38     3    35    1
    39     3    36    1
    40     4    37    1
    41     4    38    1
    42     5    39    1
    43     5    40    1
    44     8    41    1
    45    11    42    1
    46    13    43    1
    47    14    44    1
    48    15    45    1
    49    16    46    1
    50    18    47    1
    51    21    48    1
    52    22    49    1
    53    22    50    1
    54    25    51    1
    55    26    52    1
    56    27    53    1
    57    28    54    1
    58    30    55    1
    59    30    56    1
