
     RDKit          3D

 56 59  0  0  0  0  0  0  0  0999 V2000
    3.2222   -2.2343    1.2870 C   0  0  0  0  0  0  0  0  0  0  0  0
    2.5996   -2.3918   -0.0351 N   0  0  0  0  0  0  0  0  0  0  0  0
    2.8082   -3.7655   -0.4544 C   0  0  0  0  0  0  0  0  0  0  0  0
    3.2892   -1.4838   -0.9366 C   0  0  0  0  0  0  0  0  0  0  0  0
    3.0063   -0.0554   -0.5956 C   0  0  0  0  0  0  0  0  0  0  0  0
    1.6580    0.2977   -0.6591 O   0  0  0  0  0  0  0  0  0  0  0  0
    1.3082    1.6142   -0.3534 C   0  0  0  0  0  0  0  0  0  0  0  0
    2.2577    2.5472    0.0027 C   0  0  0  0  0  0  0  0  0  0  0  0
    1.9171    3.8526    0.3069 C   0  0  0  0  0  0  0  0  0  0  0  0
    2.9337    4.8351    0.6844 C   0  0  0  0  0  0  0  0  0  0  0  0
    4.0852    4.5095    1.3637 C   0  0  0  0  0  0  0  0  0  0  0  0
    4.7889    5.6617    1.5424 N   0  0  0  0  0  0  0  0  0  0  0  0
    4.1476    6.6801    1.0176 N   0  0  0  0  0  0  0  0  0  0  0  0
    2.9918    6.1930    0.4781 C   0  0  0  0  0  0  0  0  0  0  0  0
    0.5854    4.1935    0.2421 C   0  0  0  0  0  0  0  0  0  0  0  0
   -0.3448    3.2722   -0.1087 C   0  0  0  0  0  0  0  0  0  0  0  0
   -0.0235    1.9568   -0.4179 C   0  0  0  0  0  0  0  0  0  0  0  0
   -0.9897    0.9855   -0.7869 N   0  0  0  0  0  0  0  0  0  0  0  0
   -1.6600    0.1450    0.1521 C   0  0  0  0  0  0  0  0  0  0  0  0
   -1.3431    0.3091    1.3704 O   0  0  0  0  0  0  0  0  0  0  0  0
   -2.6575   -0.8524   -0.2560 C   0  0  0  0  0  0  0  0  0  0  0  0
   -2.1375   -1.8973   -1.1921 C   0  0  0  0  0  0  0  0  0  0  0  0
   -2.9713   -3.0576   -1.1521 O   0  0  0  0  0  0  0  0  0  0  0  0
   -4.2402   -3.0486   -0.5988 C   0  0  0  0  0  0  0  0  0  0  0  0
   -5.3146   -3.7510   -1.0953 C   0  0  0  0  0  0  0  0  0  0  0  0
   -6.5461   -3.6668   -0.4557 C   0  0  0  0  0  0  0  0  0  0  0  0
   -6.6949   -2.8799    0.6772 C   0  0  0  0  0  0  0  0  0  0  0  0
   -5.6139   -2.1792    1.1685 C   0  0  0  0  0  0  0  0  0  0  0  0
   -4.4200   -2.2755    0.5286 C   0  0  0  0  0  0  0  0  0  0  0  0
   -3.1894   -1.5429    0.9985 C   0  0  0  0  0  0  0  0  0  0  0  0
    2.5526   -1.5741    1.8816 H   0  0  0  0  0  0  0  0  0  0  0  0
    3.2986   -3.2348    1.7553 H   0  0  0  0  0  0  0  0  0  0  0  0
    4.2338   -1.8067    1.1978 H   0  0  0  0  0  0  0  0  0  0  0  0
    1.8756   -4.1252   -0.9358 H   0  0  0  0  0  0  0  0  0  0  0  0
    3.6171   -3.8593   -1.2067 H   0  0  0  0  0  0  0  0  0  0  0  0
    2.9980   -4.4349    0.4073 H   0  0  0  0  0  0  0  0  0  0  0  0
    4.3872   -1.6471   -0.7468 H   0  0  0  0  0  0  0  0  0  0  0  0
    3.1195   -1.7371   -1.9969 H   0  0  0  0  0  0  0  0  0  0  0  0
    3.3804    0.1263    0.4336 H   0  0  0  0  0  0  0  0  0  0  0  0
    3.6343    0.5832   -1.2643 H   0  0  0  0  0  0  0  0  0  0  0  0
    3.3117    2.2908    0.0584 H   0  0  0  0  0  0  0  0  0  0  0  0
    4.4282    3.5521    1.7163 H   0  0  0  0  0  0  0  0  0  0  0  0
    4.4934    7.6640    1.0330 H   0  0  0  0  0  0  0  0  0  0  0  0
    2.2331    6.7655   -0.0326 H   0  0  0  0  0  0  0  0  0  0  0  0
    0.3109    5.2064    0.4771 H   0  0  0  0  0  0  0  0  0  0  0  0
   -1.3895    3.5745   -0.1509 H   0  0  0  0  0  0  0  0  0  0  0  0
   -1.2526    0.8487   -1.7976 H   0  0  0  0  0  0  0  0  0  0  0  0
   -3.5348   -0.3694   -0.7807 H   0  0  0  0  0  0  0  0  0  0  0  0
   -2.1926   -1.5284   -2.2413 H   0  0  0  0  0  0  0  0  0  0  0  0
   -1.1027   -2.1549   -0.9014 H   0  0  0  0  0  0  0  0  0  0  0  0
   -5.1586   -4.3561   -1.9849 H   0  0  0  0  0  0  0  0  0  0  0  0
   -7.3732   -4.2312   -0.8703 H   0  0  0  0  0  0  0  0  0  0  0  0
   -7.6542   -2.8135    1.1752 H   0  0  0  0  0  0  0  0  0  0  0  0
   -5.7300   -1.5685    2.0483 H   0  0  0  0  0  0  0  0  0  0  0  0
   -3.4905   -0.8416    1.7755 H   0  0  0  0  0  0  0  0  0  0  0  0
   -2.4483   -2.2999    1.3008 H   0  0  0  0  0  0  0  0  0  0  0  0
  1  2  1  0
  2  3  1  0
  2  4  1  0
  4  5  1  0
  5  6  1  0
  6  7  1  0
  7  8  2  0
  8  9  1  0
  9 10  1  0
 10 11  1  0
 11 12  2  0
 12 13  1  0
 13 14  1  0
  9 15  2  0
 15 16  1  0
 16 17  2  0
 17 18  1  0
 18 19  1  0
 19 20  2  0
 19 21  1  0
 21 22  1  0
 22 23  1  0
 23 24  1  0
 24 25  2  0
 25 26  1  0
 26 27  2  0
 27 28  1  0
 28 29  2  0
 29 30  1  0
 17  7  1  0
 30 21  1  0
 14 10  2  0
 29 24  1  0
  1 31  1  0
  1 32  1  0
  1 33  1  0
  3 34  1  0
  3 35  1  0
  3 36  1  0
  4 37  1  0
  4 38  1  0
  5 39  1  0
  5 40  1  0
  8 41  1  0
 11 42  1  0
 13 43  1  0
 14 44  1  0
 15 45  1  0
 16 46  1  0
 18 47  1  0
 21 48  1  0
 22 49  1  0
 22 50  1  0
 25 51  1  0
 26 52  1  0
 27 53  1  0
 28 54  1  0
 30 55  1  0
 30 56  1  0
M  END
$$$$
