
     RDKit          3D

 73 78  0  0  0  0  0  0  0  0999 V2000
    9.1062    1.7826   -0.0060 C   0  0  0  0  0  0  0  0  0  0  0  0
    8.0343    0.9645    0.3693 O   0  0  0  0  0  0  0  0  0  0  0  0
    6.7526    1.2499   -0.0418 C   0  0  0  0  0  0  0  0  0  0  0  0
    6.5509    2.3688   -0.8386 C   0  0  0  0  0  0  0  0  0  0  0  0
    5.2641    2.6366   -1.2391 C   0  0  0  0  0  0  0  0  0  0  0  0
    4.2222    1.8231   -0.8612 C   0  0  0  0  0  0  0  0  0  0  0  0
    2.9505    2.1176   -1.2770 O   0  0  0  0  0  0  0  0  0  0  0  0
    2.6965    3.2380   -2.0830 C   0  0  0  0  0  0  0  0  0  0  0  0
    4.4418    0.7185   -0.0711 C   0  0  0  0  0  0  0  0  0  0  0  0
    5.7336    0.4313    0.3435 C   0  0  0  0  0  0  0  0  0  0  0  0
    6.0442   -0.6591    1.1403 C   0  0  0  0  0  0  0  0  0  0  0  0
    7.3511   -0.8987    1.5250 O   0  0  0  0  0  0  0  0  0  0  0  0
    7.6390   -2.0091    2.3308 C   0  0  0  0  0  0  0  0  0  0  0  0
    5.0384   -1.5047    1.5471 C   0  0  0  0  0  0  0  0  0  0  0  0
    3.7419   -1.2263    1.1375 C   0  0  0  0  0  0  0  0  0  0  0  0
    2.7207   -2.0675    1.5381 C   0  0  0  0  0  0  0  0  0  0  0  0
    2.9745   -3.0663    2.2631 O   0  0  0  0  0  0  0  0  0  0  0  0
    1.4535   -1.7601    1.1130 C   0  0  0  0  0  0  0  0  0  0  0  0
    1.1838   -0.6488    0.3087 C   0  0  0  0  0  0  0  0  0  0  0  0
   -0.1854   -0.3679   -0.1167 C   0  0  0  0  0  0  0  0  0  0  0  0
   -0.4114    0.7288   -0.9056 C   0  0  0  0  0  0  0  0  0  0  0  0
   -1.6663    1.0486   -1.3455 C   0  0  0  0  0  0  0  0  0  0  0  0
   -2.7808    0.2526   -0.9985 C   0  0  0  0  0  0  0  0  0  0  0  0
   -3.9804    0.5307   -1.4011 O   0  0  0  0  0  0  0  0  0  0  0  0
   -5.1360    0.8761   -1.8422 C   0  0  0  0  0  0  0  0  0  0  0  0
   -5.5821    2.2486   -1.4079 C   0  0  0  0  0  0  0  0  0  0  0  0
   -5.2700    3.3355   -2.1884 C   0  0  0  0  0  0  0  0  0  0  0  0
   -5.6634    4.6001   -1.8170 C   0  0  0  0  0  0  0  0  0  0  0  0
   -6.3792    4.7827   -0.6488 C   0  0  0  0  0  0  0  0  0  0  0  0
   -6.6888    3.6785    0.1315 C   0  0  0  0  0  0  0  0  0  0  0  0
   -6.2909    2.4063   -0.2456 C   0  0  0  0  0  0  0  0  0  0  0  0
   -2.5458   -0.8780   -0.1843 C   0  0  0  0  0  0  0  0  0  0  0  0
   -3.6435   -1.6584    0.1548 O   0  0  0  0  0  0  0  0  0  0  0  0
   -3.4367   -2.7799    0.9566 C   0  0  0  0  0  0  0  0  0  0  0  0
   -4.6446   -3.5453    1.2632 C   0  0  0  0  0  0  0  0  0  0  0  0
   -5.4120   -3.2679    2.3734 C   0  0  0  0  0  0  0  0  0  0  0  0
   -6.5666   -4.0101    2.6521 C   0  0  0  0  0  0  0  0  0  0  0  0
   -6.9571   -5.0328    1.8201 C   0  0  0  0  0  0  0  0  0  0  0  0
   -6.1975   -5.3184    0.7080 C   0  0  0  0  0  0  0  0  0  0  0  0
   -5.0603   -4.5746    0.4490 C   0  0  0  0  0  0  0  0  0  0  0  0
   -1.2742   -1.1310    0.2129 C   0  0  0  0  0  0  0  0  0  0  0  0
    2.1846    0.1009   -0.0327 O   0  0  0  0  0  0  0  0  0  0  0  0
    3.4187   -0.1461    0.3454 C   0  0  0  0  0  0  0  0  0  0  0  0
    9.1839    1.7674   -1.1144 H   0  0  0  0  0  0  0  0  0  0  0  0
    8.9328    2.7998    0.3658 H   0  0  0  0  0  0  0  0  0  0  0  0
   10.0745    1.4132    0.3837 H   0  0  0  0  0  0  0  0  0  0  0  0
    7.3958    2.9983   -1.1248 H   0  0  0  0  0  0  0  0  0  0  0  0
    5.0809    3.5139   -1.8684 H   0  0  0  0  0  0  0  0  0  0  0  0
    3.3784    3.2139   -2.9602 H   0  0  0  0  0  0  0  0  0  0  0  0
    2.7748    4.1858   -1.5028 H   0  0  0  0  0  0  0  0  0  0  0  0
    1.6636    3.2347   -2.5035 H   0  0  0  0  0  0  0  0  0  0  0  0
    8.7299   -2.0523    2.5731 H   0  0  0  0  0  0  0  0  0  0  0  0
    7.0686   -2.0156    3.2866 H   0  0  0  0  0  0  0  0  0  0  0  0
    7.4328   -2.9261    1.7306 H   0  0  0  0  0  0  0  0  0  0  0  0
    5.1961   -2.3699    2.1646 H   0  0  0  0  0  0  0  0  0  0  0  0
    0.6570   -2.4109    1.4211 H   0  0  0  0  0  0  0  0  0  0  0  0
    0.4288    1.3817   -1.2028 H   0  0  0  0  0  0  0  0  0  0  0  0
   -1.8565    1.9195   -1.9734 H   0  0  0  0  0  0  0  0  0  0  0  0
   -5.9922    0.2033   -1.4809 H   0  0  0  0  0  0  0  0  0  0  0  0
   -5.3115    0.8581   -2.9702 H   0  0  0  0  0  0  0  0  0  0  0  0
   -4.7052    3.2074   -3.1142 H   0  0  0  0  0  0  0  0  0  0  0  0
   -5.4022    5.4545   -2.4571 H   0  0  0  0  0  0  0  0  0  0  0  0
   -6.6950    5.7663   -0.3440 H   0  0  0  0  0  0  0  0  0  0  0  0
   -7.2573    3.8014    1.0649 H   0  0  0  0  0  0  0  0  0  0  0  0
   -6.5510    1.5515    0.3932 H   0  0  0  0  0  0  0  0  0  0  0  0
   -2.7421   -3.4626    0.3917 H   0  0  0  0  0  0  0  0  0  0  0  0
   -2.8637   -2.4991    1.8827 H   0  0  0  0  0  0  0  0  0  0  0  0
   -5.1598   -2.4875    3.0543 H   0  0  0  0  0  0  0  0  0  0  0  0
   -7.1795   -3.8098    3.5147 H   0  0  0  0  0  0  0  0  0  0  0  0
   -7.8534   -5.6327    2.0073 H   0  0  0  0  0  0  0  0  0  0  0  0
   -6.5267   -6.1289    0.0697 H   0  0  0  0  0  0  0  0  0  0  0  0
   -4.4947   -4.8329   -0.4334 H   0  0  0  0  0  0  0  0  0  0  0  0
   -1.1372   -2.0116    0.8395 H   0  0  0  0  0  0  0  0  0  0  0  0
  1  2  1  0
  2  3  1  0
  3  4  2  0
  4  5  1  0
  5  6  2  0
  6  7  1  0
  7  8  1  0
  6  9  1  0
  9 10  2  0
 10 11  1  0
 11 12  1  0
 12 13  1  0
 11 14  2  0
 14 15  1  0
 15 16  1  0
 16 17  2  0
 16 18  1  0
 18 19  2  0
 19 20  1  0
 20 21  2  0
 21 22  1  0
 22 23  2  0
 23 24  1  0
 24 25  1  0
 25 26  1  0
 26 27  2  0
 27 28  1  0
 28 29  2  0
 29 30  1  0
 30 31  2  0
 23 32  1  0
 32 33  1  0
 33 34  1  0
 34 35  1  0
 35 36  2  0
 36 37  1  0
 37 38  2  0
 38 39  1  0
 39 40  2  0
 32 41  2  0
 19 42  1  0
 42 43  1  0
 10  3  1  0
 43 15  2  0
 43  9  1  0
 41 20  1  0
 31 26  1  0
 40 35  1  0
  1 44  1  0
  1 45  1  0
  1 46  1  0
  4 47  1  0
  5 48  1  0
  8 49  1  0
  8 50  1  0
  8 51  1  0
 13 52  1  0
 13 53  1  0
 13 54  1  0
 14 55  1  0
 18 56  1  0
 21 57  1  0
 22 58  1  0
 25 59  1  0
 25 60  1  0
 27 61  1  0
 28 62  1  0
 29 63  1  0
 30 64  1  0
 31 65  1  0
 34 66  1  0
 34 67  1  0
 36 68  1  0
 37 69  1  0
 38 70  1  0
 39 71  1  0
 40 72  1  0
 41 73  1  0
M  END
$$$$
