@<TRIPOS>MOLECULE
*****
 73 78 0 0 0
SMALL
GASTEIGER

@<TRIPOS>ATOM
      1 C           9.1062    1.7826   -0.0060 C.3     1  UNL1        0.0788
      2 O           8.0343    0.9645    0.3693 O.3     1  UNL1       -0.4944
      3 C           6.7526    1.2499   -0.0418 C.ar    1  UNL1        0.1316
      4 C           6.5509    2.3688   -0.8386 C.ar    1  UNL1       -0.0158
      5 C           5.2641    2.6366   -1.2391 C.ar    1  UNL1       -0.0158
      6 C           4.2222    1.8231   -0.8612 C.ar    1  UNL1        0.1317
      7 O           2.9505    2.1176   -1.2770 O.3     1  UNL1       -0.4944
      8 C           2.6965    3.2380   -2.0830 C.3     1  UNL1        0.0788
      9 C           4.4418    0.7185   -0.0711 C.ar    1  UNL1        0.0737
     10 C           5.7336    0.4313    0.3435 C.ar    1  UNL1        0.0724
     11 C           6.0442   -0.6591    1.1403 C.ar    1  UNL1        0.1323
     12 O           7.3511   -0.8987    1.5250 O.3     1  UNL1       -0.4944
     13 C           7.6390   -2.0091    2.3308 C.3     1  UNL1        0.0788
     14 C           5.0384   -1.5047    1.5471 C.ar    1  UNL1       -0.0049
     15 C           3.7419   -1.2263    1.1375 C.ar    1  UNL1        0.0682
     16 C           2.7207   -2.0675    1.5381 C.ar    1  UNL1        0.1932
     17 O           2.9745   -3.0663    2.2631 O.2     1  UNL1       -0.2870
     18 C           1.4535   -1.7601    1.1130 C.ar    1  UNL1        0.0287
     19 C           1.1838   -0.6488    0.3087 C.ar    1  UNL1        0.1394
     20 C          -0.1854   -0.3679   -0.1167 C.ar    1  UNL1        0.0211
     21 C          -0.4114    0.7288   -0.9056 C.ar    1  UNL1       -0.0474
     22 C          -1.6663    1.0486   -1.3455 C.ar    1  UNL1       -0.0156
     23 C          -2.7808    0.2526   -0.9985 C.ar    1  UNL1        0.1624
     24 O          -3.9804    0.5307   -1.4011 O.3     1  UNL1       -0.4837
     25 C          -5.1360    0.8761   -1.8422 C.3     1  UNL1        0.1148
     26 C          -5.5821    2.2486   -1.4079 C.ar    1  UNL1       -0.0104
     27 C          -5.2700    3.3355   -2.1884 C.ar    1  UNL1       -0.0554
     28 C          -5.6634    4.6001   -1.8170 C.ar    1  UNL1       -0.0614
     29 C          -6.3792    4.7827   -0.6488 C.ar    1  UNL1       -0.0617
     30 C          -6.6888    3.6785    0.1315 C.ar    1  UNL1       -0.0614
     31 C          -6.2909    2.4063   -0.2456 C.ar    1  UNL1       -0.0554
     32 C          -2.5458   -0.8780   -0.1843 C.ar    1  UNL1        0.1631
     33 O          -3.6435   -1.6584    0.1548 O.3     1  UNL1       -0.4837
     34 C          -3.4367   -2.7799    0.9566 C.3     1  UNL1        0.1148
     35 C          -4.6446   -3.5453    1.2632 C.ar    1  UNL1       -0.0104
     36 C          -5.4120   -3.2679    2.3734 C.ar    1  UNL1       -0.0554
     37 C          -6.5666   -4.0101    2.6521 C.ar    1  UNL1       -0.0614
     38 C          -6.9571   -5.0328    1.8201 C.ar    1  UNL1       -0.0617
     39 C          -6.1975   -5.3184    0.7080 C.ar    1  UNL1       -0.0614
     40 C          -5.0603   -4.5746    0.4490 C.ar    1  UNL1       -0.0554
     41 C          -1.2742   -1.1310    0.2129 C.ar    1  UNL1       -0.0056
     42 O           2.1846    0.1009   -0.0327 O.2     1  UNL1       -0.4539
     43 C           3.4187   -0.1461    0.3454 C.ar    1  UNL1        0.1508
     44 H           9.1839    1.7674   -1.1144 H       1  UNL1        0.0660
     45 H           8.9328    2.7998    0.3658 H       1  UNL1        0.0660
     46 H          10.0745    1.4132    0.3837 H       1  UNL1        0.0660
     47 H           7.3958    2.9983   -1.1248 H       1  UNL1        0.0655
     48 H           5.0809    3.5139   -1.8684 H       1  UNL1        0.0655
     49 H           3.3784    3.2139   -2.9602 H       1  UNL1        0.0660
     50 H           2.7748    4.1858   -1.5028 H       1  UNL1        0.0660
     51 H           1.6636    3.2347   -2.5035 H       1  UNL1        0.0660
     52 H           8.7299   -2.0523    2.5731 H       1  UNL1        0.0660
     53 H           7.0686   -2.0156    3.2866 H       1  UNL1        0.0660
     54 H           7.4328   -2.9261    1.7306 H       1  UNL1        0.0660
     55 H           5.1961   -2.3699    2.1646 H       1  UNL1        0.0662
     56 H           0.6570   -2.4109    1.4211 H       1  UNL1        0.0693
     57 H           0.4288    1.3817   -1.2028 H       1  UNL1        0.0626
     58 H          -1.8565    1.9195   -1.9734 H       1  UNL1        0.0655
     59 H          -5.9922    0.2033   -1.4809 H       1  UNL1        0.0748
     60 H          -5.3115    0.8581   -2.9702 H       1  UNL1        0.0748
     61 H          -4.7052    3.2074   -3.1142 H       1  UNL1        0.0621
     62 H          -5.4022    5.4545   -2.4571 H       1  UNL1        0.0618
     63 H          -6.6950    5.7663   -0.3440 H       1  UNL1        0.0618
     64 H          -7.2573    3.8014    1.0649 H       1  UNL1        0.0618
     65 H          -6.5510    1.5515    0.3932 H       1  UNL1        0.0621
     66 H          -2.7421   -3.4626    0.3917 H       1  UNL1        0.0748
     67 H          -2.8637   -2.4991    1.8827 H       1  UNL1        0.0748
     68 H          -5.1598   -2.4875    3.0543 H       1  UNL1        0.0621
     69 H          -7.1795   -3.8098    3.5147 H       1  UNL1        0.0618
     70 H          -7.8534   -5.6327    2.0073 H       1  UNL1        0.0618
     71 H          -6.5267   -6.1289    0.0697 H       1  UNL1        0.0618
     72 H          -4.4947   -4.8329   -0.4334 H       1  UNL1        0.0621
     73 H          -1.1372   -2.0116    0.8395 H       1  UNL1        0.0662
@<TRIPOS>BOND
     1     1     2    1
     2     2     3    1
     3     3     4   ar
     4     4     5   ar
     5     5     6   ar
     6     6     7    1
     7     7     8    1
     8     6     9   ar
     9     9    10   ar
    10    10    11   ar
    11    11    12    1
    12    12    13    1
    13    11    14   ar
    14    14    15   ar
    15    15    16   ar
    16    16    17    2
    17    16    18   ar
    18    18    19   ar
    19    19    20    1
    20    20    21   ar
    21    21    22   ar
    22    22    23   ar
    23    23    24    1
    24    24    25    1
    25    25    26    1
    26    26    27   ar
    27    27    28   ar
    28    28    29   ar
    29    29    30   ar
    30    30    31   ar
    31    23    32   ar
    32    32    33    1
    33    33    34    1
    34    34    35    1
    35    35    36   ar
    36    36    37   ar
    37    37    38   ar
    38    38    39   ar
    39    39    40   ar
    40    32    41   ar
    41    19    42   ar
    42    42    43   ar
    43    10     3   ar
    44    43    15   ar
    45    43     9   ar
    46    41    20   ar
    47    31    26   ar
    48    40    35   ar
    49     1    44    1
    50     1    45    1
    51     1    46    1
    52     4    47    1
    53     5    48    1
    54     8    49    1
    55     8    50    1
    56     8    51    1
    57    13    52    1
    58    13    53    1
    59    13    54    1
    60    14    55    1
    61    18    56    1
    62    21    57    1
    63    22    58    1
    64    25    59    1
    65    25    60    1
    66    27    61    1
    67    28    62    1
    68    29    63    1
    69    30    64    1
    70    31    65    1
    71    34    66    1
    72    34    67    1
    73    36    68    1
    74    37    69    1
    75    38    70    1
    76    39    71    1
    77    40    72    1
    78    41    73    1
