@<TRIPOS>MOLECULE
*****
 103 108 0 0 0
SMALL
GASTEIGER

@<TRIPOS>ATOM
      1 C         -10.6452   -0.2503   -1.6068 C.3     1  UNL1       -0.0627
      2 C         -10.4283    0.9756   -0.7515 C.3     1  UNL1       -0.0467
      3 C         -11.1410    0.7464    0.5507 C.3     1  UNL1       -0.0627
      4 C          -8.9571    1.2629   -0.5438 C.3     1  UNL1       -0.0507
      5 C          -8.2339    1.5042   -1.8232 C.3     1  UNL1       -0.0526
      6 C          -6.7792    1.7964   -1.7057 C.3     1  UNL1       -0.0502
      7 C          -6.0248    0.6612   -1.0469 C.3     1  UNL1       -0.0405
      8 C          -6.2293   -0.5618   -1.9087 C.3     1  UNL1       -0.0621
      9 C          -4.5780    1.0650   -0.9569 C.3     1  UNL1       -0.0328
     10 C          -4.5382    2.3436   -0.1101 C.3     1  UNL1       -0.0492
     11 C          -3.3225    2.2291    0.7812 C.3     1  UNL1       -0.0492
     12 C          -2.6038    1.0366    0.2440 C.3     1  UNL1       -0.0320
     13 C          -1.6577    0.3827    1.2288 C.3     1  UNL1       -0.0307
     14 C          -0.5981    1.3746    1.5201 C.3     1  UNL1       -0.0311
     15 C           0.7274    0.7889    1.7697 C.2     1  UNL1       -0.0838
     16 C           1.0702   -0.4498    1.5086 C.2     1  UNL1       -0.0638
     17 C           2.4483   -0.9064    1.8131 C.3     1  UNL1        0.0061
     18 C           3.0191   -1.3351    0.4511 C.3     1  UNL1        0.1084
     19 O           4.3789   -1.6687    0.5667 O.3     1  UNL1       -0.4466
     20 C           5.4440   -1.0062    0.0277 C.2     1  UNL1        0.4048
     21 O           5.2240    0.0122   -0.6441 O.2     1  UNL1       -0.2261
     22 N           6.7436   -1.5266    0.2700 N.am    1  UNL1       -0.2504
     23 C           7.8709   -0.8644   -0.2721 C.ar    1  UNL1        0.0495
     24 C           8.3089   -1.2107   -1.5293 C.ar    1  UNL1       -0.0123
     25 C           9.4041   -0.6251   -2.1202 C.ar    1  UNL1        0.1192
     26 S           9.8696   -1.1375   -3.7197 S.O2    1  UNL1        0.1097
     27 O           9.3356   -2.5415   -3.9491 O.2     1  UNL1       -0.1421
     28 O          11.3534   -1.1263   -3.8113 O.2     1  UNL1       -0.1421
     29 O           9.1415   -0.1812   -4.9016 O.3     1  UNL1       -0.2498
     30 C          10.0748    0.3422   -1.4117 C.ar    1  UNL1       -0.0264
     31 C           9.6571    0.7154   -0.1377 C.ar    1  UNL1       -0.0089
     32 C          10.2994    1.6758    0.6061 C.ar    1  UNL1       -0.0263
     33 C           9.8284    1.9904    1.8604 C.ar    1  UNL1        0.1209
     34 S          10.6694    3.2094    2.7856 S.O2    1  UNL1        0.1097
     35 O           9.7358    3.9126    3.7380 O.2     1  UNL1       -0.1421
     36 O          11.3350    4.1858    1.8393 O.2     1  UNL1       -0.1421
     37 O          11.8512    2.3933    3.6877 O.3     1  UNL1       -0.2498
     38 C           8.7268    1.3876    2.4285 C.ar    1  UNL1        0.0078
     39 C           8.0788    0.4183    1.6779 C.ar    1  UNL1        0.1282
     40 O           6.9547   -0.2258    2.2063 O.3     1  UNL1       -0.5060
     41 C           8.5372    0.0966    0.4307 C.ar    1  UNL1        0.0450
     42 C           2.1894   -2.4077   -0.1516 C.3     1  UNL1       -0.0145
     43 C           0.7566   -2.0368   -0.3043 C.3     1  UNL1       -0.0403
     44 C           0.1289   -1.4063    0.9265 C.3     1  UNL1       -0.0077
     45 C           0.0592   -2.5722    1.9416 C.3     1  UNL1       -0.0556
     46 C          -1.2403   -0.9337    0.6793 C.3     1  UNL1       -0.0285
     47 C          -1.5946   -1.0390   -0.8035 C.3     1  UNL1       -0.0486
     48 C          -3.1340   -0.9818   -0.9556 C.3     1  UNL1       -0.0468
     49 C          -3.7244    0.1191   -0.1352 C.3     1  UNL1       -0.0259
     50 C          -4.5533   -0.3325    1.0176 C.3     1  UNL1       -0.0590
     51 H         -10.7820    0.0540   -2.6773 H       1  UNL1        0.0232
     52 H          -9.8568   -1.0150   -1.4784 H       1  UNL1        0.0232
     53 H         -11.6070   -0.7164   -1.3160 H       1  UNL1        0.0232
     54 H         -10.8767    1.8593   -1.2548 H       1  UNL1        0.0295
     55 H         -10.5908    0.0364    1.2065 H       1  UNL1        0.0232
     56 H         -11.4149    1.6449    1.1013 H       1  UNL1        0.0232
     57 H         -12.1013    0.2070    0.2983 H       1  UNL1        0.0232
     58 H          -8.8284    2.1037    0.1376 H       1  UNL1        0.0268
     59 H          -8.4977    0.3628   -0.0478 H       1  UNL1        0.0268
     60 H          -8.7559    2.3538   -2.3432 H       1  UNL1        0.0265
     61 H          -8.3642    0.6120   -2.4781 H       1  UNL1        0.0265
     62 H          -6.5557    2.7731   -1.2327 H       1  UNL1        0.0268
     63 H          -6.3885    1.8803   -2.7620 H       1  UNL1        0.0268
     64 H          -6.4788    0.4897   -0.0671 H       1  UNL1        0.0301
     65 H          -5.5778   -1.4026   -1.6909 H       1  UNL1        0.0233
     66 H          -6.1245   -0.3377   -2.9884 H       1  UNL1        0.0233
     67 H          -7.2752   -0.9394   -1.7671 H       1  UNL1        0.0233
     68 H          -4.1490    1.2064   -1.9455 H       1  UNL1        0.0309
     69 H          -5.4178    2.3916    0.5685 H       1  UNL1        0.0268
     70 H          -4.4919    3.1828   -0.8194 H       1  UNL1        0.0268
     71 H          -2.6922    3.1354    0.5511 H       1  UNL1        0.0268
     72 H          -3.5505    2.1795    1.8466 H       1  UNL1        0.0268
     73 H          -2.0882    1.3562   -0.6926 H       1  UNL1        0.0309
     74 H          -2.2790    0.2630    2.1688 H       1  UNL1        0.0309
     75 H          -0.9095    1.9984    2.4043 H       1  UNL1        0.0310
     76 H          -0.4987    2.1074    0.6878 H       1  UNL1        0.0310
     77 H           1.5130    1.4368    2.2165 H       1  UNL1        0.0572
     78 H           3.0724   -0.1161    2.2398 H       1  UNL1        0.0346
     79 H           2.3685   -1.8143    2.4437 H       1  UNL1        0.0346
     80 H           2.9467   -0.4267   -0.1764 H       1  UNL1        0.0737
     81 H           6.8263   -2.3983    0.8518 H       1  UNL1        0.1582
     82 H           7.7821   -1.9702   -2.0830 H       1  UNL1        0.0656
     83 H           9.3061    0.7763   -4.6478 H       1  UNL1        0.2449
     84 H          10.9346    0.8223   -1.8381 H       1  UNL1        0.0643
     85 H          11.1678    2.1528    0.1590 H       1  UNL1        0.0643
     86 H          11.7478    1.4203    3.6431 H       1  UNL1        0.2449
     87 H           8.3495    1.6181    3.3941 H       1  UNL1        0.0674
     88 H           6.6760   -0.0543    3.1633 H       1  UNL1        0.2922
     89 H           2.5830   -2.5563   -1.2025 H       1  UNL1        0.0301
     90 H           2.3407   -3.4057    0.3209 H       1  UNL1        0.0301
     91 H           0.2116   -3.0284   -0.4364 H       1  UNL1        0.0275
     92 H           0.6198   -1.4389   -1.2230 H       1  UNL1        0.0275
     93 H           0.3445   -2.1735    2.9294 H       1  UNL1        0.0238
     94 H           0.6953   -3.4078    1.6693 H       1  UNL1        0.0238
     95 H          -1.0136   -2.9151    2.0308 H       1  UNL1        0.0238
     96 H          -1.9492   -1.6923    1.1506 H       1  UNL1        0.0312
     97 H          -1.1285   -0.2803   -1.4251 H       1  UNL1        0.0268
     98 H          -1.3090   -2.0474   -1.1504 H       1  UNL1        0.0268
     99 H          -3.5258   -1.9528   -0.5912 H       1  UNL1        0.0271
    100 H          -3.2887   -0.8150   -2.0411 H       1  UNL1        0.0271
    101 H          -5.2496   -1.1180    0.6585 H       1  UNL1        0.0235
    102 H          -4.0060   -0.7777    1.8640 H       1  UNL1        0.0235
    103 H          -5.1007    0.5529    1.4140 H       1  UNL1        0.0235
@<TRIPOS>BOND
     1     1     2    1
     2     2     3    1
     3     2     4    1
     4     4     5    1
     5     5     6    1
     6     6     7    1
     7     7     8    1
     8     7     9    1
     9     9    10    1
    10    10    11    1
    11    11    12    1
    12    12    13    1
    13    13    14    1
    14    14    15    1
    15    15    16    2
    16    16    17    1
    17    17    18    1
    18    18    19    1
    19    19    20    1
    20    20    21    2
    21    20    22   am
    22    22    23    1
    23    23    24   ar
    24    24    25   ar
    25    25    26    1
    26    26    27    2
    27    26    28    2
    28    26    29    1
    29    25    30   ar
    30    30    31   ar
    31    31    32   ar
    32    32    33   ar
    33    33    34    1
    34    34    35    2
    35    34    36    2
    36    34    37    1
    37    33    38   ar
    38    38    39   ar
    39    39    40    1
    40    39    41   ar
    41    18    42    1
    42    42    43    1
    43    43    44    1
    44    44    45    1
    45    44    46    1
    46    46    47    1
    47    47    48    1
    48    48    49    1
    49    49    50    1
    50    49     9    1
    51    49    12    1
    52    46    13    1
    53    44    16    1
    54    41    23   ar
    55    41    31   ar
    56     1    51    1
    57     1    52    1
    58     1    53    1
    59     2    54    1
    60     3    55    1
    61     3    56    1
    62     3    57    1
    63     4    58    1
    64     4    59    1
    65     5    60    1
    66     5    61    1
    67     6    62    1
    68     6    63    1
    69     7    64    1
    70     8    65    1
    71     8    66    1
    72     8    67    1
    73     9    68    1
    74    10    69    1
    75    10    70    1
    76    11    71    1
    77    11    72    1
    78    12    73    1
    79    13    74    1
    80    14    75    1
    81    14    76    1
    82    15    77    1
    83    17    78    1
    84    17    79    1
    85    18    80    1
    86    22    81    1
    87    24    82    1
    88    29    83    1
    89    30    84    1
    90    32    85    1
    91    37    86    1
    92    38    87    1
    93    40    88    1
    94    42    89    1
    95    42    90    1
    96    43    91    1
    97    43    92    1
    98    45    93    1
    99    45    94    1
   100    45    95    1
   101    46    96    1
   102    47    97    1
   103    47    98    1
   104    48    99    1
   105    48   100    1
   106    50   101    1
   107    50   102    1
   108    50   103    1
