
     RDKit          3D

103108  0  0  0  0  0  0  0  0999 V2000
  -10.6452   -0.2503   -1.6068 C   0  0  0  0  0  0  0  0  0  0  0  0
  -10.4283    0.9756   -0.7515 C   0  0  0  0  0  0  0  0  0  0  0  0
  -11.1410    0.7464    0.5507 C   0  0  0  0  0  0  0  0  0  0  0  0
   -8.9571    1.2629   -0.5438 C   0  0  0  0  0  0  0  0  0  0  0  0
   -8.2339    1.5042   -1.8232 C   0  0  0  0  0  0  0  0  0  0  0  0
   -6.7792    1.7964   -1.7057 C   0  0  0  0  0  0  0  0  0  0  0  0
   -6.0248    0.6612   -1.0469 C   0  0  0  0  0  0  0  0  0  0  0  0
   -6.2293   -0.5618   -1.9087 C   0  0  0  0  0  0  0  0  0  0  0  0
   -4.5780    1.0650   -0.9569 C   0  0  0  0  0  0  0  0  0  0  0  0
   -4.5382    2.3436   -0.1101 C   0  0  0  0  0  0  0  0  0  0  0  0
   -3.3225    2.2291    0.7812 C   0  0  0  0  0  0  0  0  0  0  0  0
   -2.6038    1.0366    0.2440 C   0  0  0  0  0  0  0  0  0  0  0  0
   -1.6577    0.3827    1.2288 C   0  0  0  0  0  0  0  0  0  0  0  0
   -0.5981    1.3746    1.5201 C   0  0  0  0  0  0  0  0  0  0  0  0
    0.7274    0.7889    1.7697 C   0  0  0  0  0  0  0  0  0  0  0  0
    1.0702   -0.4498    1.5086 C   0  0  0  0  0  0  0  0  0  0  0  0
    2.4483   -0.9064    1.8131 C   0  0  0  0  0  0  0  0  0  0  0  0
    3.0191   -1.3351    0.4511 C   0  0  0  0  0  0  0  0  0  0  0  0
    4.3789   -1.6687    0.5667 O   0  0  0  0  0  0  0  0  0  0  0  0
    5.4440   -1.0062    0.0277 C   0  0  0  0  0  0  0  0  0  0  0  0
    5.2240    0.0122   -0.6441 O   0  0  0  0  0  0  0  0  0  0  0  0
    6.7436   -1.5266    0.2700 N   0  0  0  0  0  0  0  0  0  0  0  0
    7.8709   -0.8644   -0.2721 C   0  0  0  0  0  0  0  0  0  0  0  0
    8.3089   -1.2107   -1.5293 C   0  0  0  0  0  0  0  0  0  0  0  0
    9.4041   -0.6251   -2.1202 C   0  0  0  0  0  0  0  0  0  0  0  0
    9.8696   -1.1375   -3.7197 S   0  0  0  0  0  6  0  0  0  0  0  0
    9.3356   -2.5415   -3.9491 O   0  0  0  0  0  0  0  0  0  0  0  0
   11.3534   -1.1263   -3.8113 O   0  0  0  0  0  0  0  0  0  0  0  0
    9.1415   -0.1812   -4.9016 O   0  0  0  0  0  0  0  0  0  0  0  0
   10.0748    0.3422   -1.4117 C   0  0  0  0  0  0  0  0  0  0  0  0
    9.6571    0.7154   -0.1377 C   0  0  0  0  0  0  0  0  0  0  0  0
   10.2994    1.6758    0.6061 C   0  0  0  0  0  0  0  0  0  0  0  0
    9.8284    1.9904    1.8604 C   0  0  0  0  0  0  0  0  0  0  0  0
   10.6694    3.2094    2.7856 S   0  0  0  0  0  6  0  0  0  0  0  0
    9.7358    3.9126    3.7380 O   0  0  0  0  0  0  0  0  0  0  0  0
   11.3350    4.1858    1.8393 O   0  0  0  0  0  0  0  0  0  0  0  0
   11.8512    2.3933    3.6877 O   0  0  0  0  0  0  0  0  0  0  0  0
    8.7268    1.3876    2.4285 C   0  0  0  0  0  0  0  0  0  0  0  0
    8.0788    0.4183    1.6779 C   0  0  0  0  0  0  0  0  0  0  0  0
    6.9547   -0.2258    2.2063 O   0  0  0  0  0  0  0  0  0  0  0  0
    8.5372    0.0966    0.4307 C   0  0  0  0  0  0  0  0  0  0  0  0
    2.1894   -2.4077   -0.1516 C   0  0  0  0  0  0  0  0  0  0  0  0
    0.7566   -2.0368   -0.3043 C   0  0  0  0  0  0  0  0  0  0  0  0
    0.1289   -1.4063    0.9265 C   0  0  1  0  0  0  0  0  0  0  0  0
    0.0592   -2.5722    1.9416 C   0  0  0  0  0  0  0  0  0  0  0  0
   -1.2403   -0.9337    0.6793 C   0  0  0  0  0  0  0  0  0  0  0  0
   -1.5946   -1.0390   -0.8035 C   0  0  0  0  0  0  0  0  0  0  0  0
   -3.1340   -0.9818   -0.9556 C   0  0  0  0  0  0  0  0  0  0  0  0
   -3.7244    0.1191   -0.1352 C   0  0  2  0  0  0  0  0  0  0  0  0
   -4.5533   -0.3325    1.0176 C   0  0  0  0  0  0  0  0  0  0  0  0
  -10.7820    0.0540   -2.6773 H   0  0  0  0  0  0  0  0  0  0  0  0
   -9.8568   -1.0150   -1.4784 H   0  0  0  0  0  0  0  0  0  0  0  0
  -11.6070   -0.7164   -1.3160 H   0  0  0  0  0  0  0  0  0  0  0  0
  -10.8767    1.8593   -1.2548 H   0  0  0  0  0  0  0  0  0  0  0  0
  -10.5908    0.0364    1.2065 H   0  0  0  0  0  0  0  0  0  0  0  0
  -11.4149    1.6449    1.1013 H   0  0  0  0  0  0  0  0  0  0  0  0
  -12.1013    0.2070    0.2983 H   0  0  0  0  0  0  0  0  0  0  0  0
   -8.8284    2.1037    0.1376 H   0  0  0  0  0  0  0  0  0  0  0  0
   -8.4977    0.3628   -0.0478 H   0  0  0  0  0  0  0  0  0  0  0  0
   -8.7559    2.3538   -2.3432 H   0  0  0  0  0  0  0  0  0  0  0  0
   -8.3642    0.6120   -2.4781 H   0  0  0  0  0  0  0  0  0  0  0  0
   -6.5557    2.7731   -1.2327 H   0  0  0  0  0  0  0  0  0  0  0  0
   -6.3885    1.8803   -2.7620 H   0  0  0  0  0  0  0  0  0  0  0  0
   -6.4788    0.4897   -0.0671 H   0  0  0  0  0  0  0  0  0  0  0  0
   -5.5778   -1.4026   -1.6909 H   0  0  0  0  0  0  0  0  0  0  0  0
   -6.1245   -0.3377   -2.9884 H   0  0  0  0  0  0  0  0  0  0  0  0
   -7.2752   -0.9394   -1.7671 H   0  0  0  0  0  0  0  0  0  0  0  0
   -4.1490    1.2064   -1.9455 H   0  0  0  0  0  0  0  0  0  0  0  0
   -5.4178    2.3916    0.5685 H   0  0  0  0  0  0  0  0  0  0  0  0
   -4.4919    3.1828   -0.8194 H   0  0  0  0  0  0  0  0  0  0  0  0
   -2.6922    3.1354    0.5511 H   0  0  0  0  0  0  0  0  0  0  0  0
   -3.5505    2.1795    1.8466 H   0  0  0  0  0  0  0  0  0  0  0  0
   -2.0882    1.3562   -0.6926 H   0  0  0  0  0  0  0  0  0  0  0  0
   -2.2790    0.2630    2.1688 H   0  0  0  0  0  0  0  0  0  0  0  0
   -0.9095    1.9984    2.4043 H   0  0  0  0  0  0  0  0  0  0  0  0
   -0.4987    2.1074    0.6878 H   0  0  0  0  0  0  0  0  0  0  0  0
    1.5130    1.4368    2.2165 H   0  0  0  0  0  0  0  0  0  0  0  0
    3.0724   -0.1161    2.2398 H   0  0  0  0  0  0  0  0  0  0  0  0
    2.3685   -1.8143    2.4437 H   0  0  0  0  0  0  0  0  0  0  0  0
    2.9467   -0.4267   -0.1764 H   0  0  0  0  0  0  0  0  0  0  0  0
    6.8263   -2.3983    0.8518 H   0  0  0  0  0  0  0  0  0  0  0  0
    7.7821   -1.9702   -2.0830 H   0  0  0  0  0  0  0  0  0  0  0  0
    9.3061    0.7763   -4.6478 H   0  0  0  0  0  0  0  0  0  0  0  0
   10.9346    0.8223   -1.8381 H   0  0  0  0  0  0  0  0  0  0  0  0
   11.1678    2.1528    0.1590 H   0  0  0  0  0  0  0  0  0  0  0  0
   11.7478    1.4203    3.6431 H   0  0  0  0  0  0  0  0  0  0  0  0
    8.3495    1.6181    3.3941 H   0  0  0  0  0  0  0  0  0  0  0  0
    6.6760   -0.0543    3.1633 H   0  0  0  0  0  0  0  0  0  0  0  0
    2.5830   -2.5563   -1.2025 H   0  0  0  0  0  0  0  0  0  0  0  0
    2.3407   -3.4057    0.3209 H   0  0  0  0  0  0  0  0  0  0  0  0
    0.2116   -3.0284   -0.4364 H   0  0  0  0  0  0  0  0  0  0  0  0
    0.6198   -1.4389   -1.2230 H   0  0  0  0  0  0  0  0  0  0  0  0
    0.3445   -2.1735    2.9294 H   0  0  0  0  0  0  0  0  0  0  0  0
    0.6953   -3.4078    1.6693 H   0  0  0  0  0  0  0  0  0  0  0  0
   -1.0136   -2.9151    2.0308 H   0  0  0  0  0  0  0  0  0  0  0  0
   -1.9492   -1.6923    1.1506 H   0  0  0  0  0  0  0  0  0  0  0  0
   -1.1285   -0.2803   -1.4251 H   0  0  0  0  0  0  0  0  0  0  0  0
   -1.3090   -2.0474   -1.1504 H   0  0  0  0  0  0  0  0  0  0  0  0
   -3.5258   -1.9528   -0.5912 H   0  0  0  0  0  0  0  0  0  0  0  0
   -3.2887   -0.8150   -2.0411 H   0  0  0  0  0  0  0  0  0  0  0  0
   -5.2496   -1.1180    0.6585 H   0  0  0  0  0  0  0  0  0  0  0  0
   -4.0060   -0.7777    1.8640 H   0  0  0  0  0  0  0  0  0  0  0  0
   -5.1007    0.5529    1.4140 H   0  0  0  0  0  0  0  0  0  0  0  0
  1  2  1  0
  2  3  1  0
  2  4  1  0
  4  5  1  0
  5  6  1  0
  6  7  1  0
  7  8  1  0
  7  9  1  0
  9 10  1  0
 10 11  1  0
 11 12  1  0
 12 13  1  0
 13 14  1  0
 14 15  1  0
 15 16  2  0
 16 17  1  0
 17 18  1  0
 18 19  1  0
 19 20  1  0
 20 21  2  0
 20 22  1  0
 22 23  1  0
 23 24  2  0
 24 25  1  0
 25 26  1  0
 26 27  2  0
 26 28  2  0
 26 29  1  0
 25 30  2  0
 30 31  1  0
 31 32  2  0
 32 33  1  0
 33 34  1  0
 34 35  2  0
 34 36  2  0
 34 37  1  0
 33 38  2  0
 38 39  1  0
 39 40  1  0
 39 41  2  0
 18 42  1  0
 42 43  1  0
 43 44  1  0
 44 45  1  1
 44 46  1  0
 46 47  1  0
 47 48  1  0
 48 49  1  0
 49 50  1  1
 49  9  1  0
 49 12  1  0
 46 13  1  0
 44 16  1  0
 41 23  1  0
 41 31  1  0
  1 51  1  0
  1 52  1  0
  1 53  1  0
  2 54  1  0
  3 55  1  0
  3 56  1  0
  3 57  1  0
  4 58  1  0
  4 59  1  0
  5 60  1  0
  5 61  1  0
  6 62  1  0
  6 63  1  0
  7 64  1  0
  8 65  1  0
  8 66  1  0
  8 67  1  0
  9 68  1  0
 10 69  1  0
 10 70  1  0
 11 71  1  0
 11 72  1  0
 12 73  1  0
 13 74  1  0
 14 75  1  0
 14 76  1  0
 15 77  1  0
 17 78  1  0
 17 79  1  0
 18 80  1  0
 22 81  1  0
 24 82  1  0
 29 83  1  0
 30 84  1  0
 32 85  1  0
 37 86  1  0
 38 87  1  0
 40 88  1  0
 42 89  1  0
 42 90  1  0
 43 91  1  0
 43 92  1  0
 45 93  1  0
 45 94  1  0
 45 95  1  0
 46 96  1  0
 47 97  1  0
 47 98  1  0
 48 99  1  0
 48100  1  0
 50101  1  0
 50102  1  0
 50103  1  0
M  END
$$$$
