@<TRIPOS>MOLECULE
*****
 61 65 0 0 0
SMALL
GASTEIGER

@<TRIPOS>ATOM
      1 C          -2.8365    4.8791    0.0563 C.3     1  UNL1       -0.0361
      2 C          -2.9644    3.4168    0.3295 C.ar    1  UNL1       -0.0041
      3 C          -1.8373    2.5892    0.2825 C.ar    1  UNL1       -0.0324
      4 C          -1.8968    1.2379    0.5254 C.ar    1  UNL1        0.0545
      5 N          -0.7896    0.3554    0.4969 N.am    1  UNL1       -0.2529
      6 C           0.5499    0.7327    0.2457 C.2     1  UNL1        0.2553
      7 O           1.0530    1.8700   -0.0193 O.2     1  UNL1       -0.2695
      8 C           1.4179   -0.4433    0.3267 C.ar    1  UNL1        0.0813
      9 C           2.7128   -0.9044    0.2384 C.ar    1  UNL1        0.0637
     10 N           3.9030   -0.1442   -0.0531 N.am    1  UNL1       -0.2826
     11 C           4.3346    0.0112   -1.3807 C.2     1  UNL1        0.2313
     12 O           3.6408   -0.5373   -2.2836 O.2     1  UNL1       -0.2741
     13 C           5.5226    0.7558   -1.8111 C.3     1  UNL1        0.0756
     14 N           6.2798    1.3617   -0.7733 N.3     1  UNL1       -0.3001
     15 C           5.6403    2.4426   -0.1033 C.3     1  UNL1       -0.0126
     16 C           7.0411    0.4857    0.0492 C.3     1  UNL1       -0.0126
     17 C           2.6407   -2.2648    0.4875 C.ar    1  UNL1        0.0266
     18 N           1.3676   -2.6228    0.7167 N.ar    1  UNL1       -0.3492
     19 C           0.8845   -3.9671    1.0159 C.3     1  UNL1        0.0117
     20 C           0.6070   -1.5140    0.6206 C.ar    1  UNL1        0.0580
     21 C          -0.8127   -1.0697    0.7147 C.3     1  UNL1        0.0973
     22 C          -1.6604   -1.8121   -0.2490 C.ar    1  UNL1       -0.0208
     23 C          -1.7004   -1.5371   -1.5845 C.ar    1  UNL1       -0.0550
     24 C          -2.5052   -2.2732   -2.4467 C.ar    1  UNL1       -0.0431
     25 C          -3.2817   -3.2981   -1.9753 C.ar    1  UNL1        0.0410
     26 CL         -4.3011   -4.2399   -3.0255 Cl      1  UNL1       -0.0835
     27 C          -3.2673   -3.6060   -0.6297 C.ar    1  UNL1       -0.0431
     28 C          -2.4663   -2.8648    0.1943 C.ar    1  UNL1       -0.0550
     29 C          -3.1775    0.7526    0.8246 C.ar    1  UNL1        0.0345
     30 N          -4.2623    1.5463    0.8700 N.ar    1  UNL1       -0.2798
     31 C          -5.5630    1.2977    1.1308 C.ar    1  UNL1        0.2041
     32 C          -6.1500   -0.0359    1.4587 C.3     1  UNL1        0.2980
     33 F          -5.5685   -0.4061    2.6774 F       1  UNL1       -0.2005
     34 F          -5.8877   -0.9700    0.4832 F       1  UNL1       -0.2005
     35 N          -6.2238    2.4567    1.0417 N.ar    1  UNL1       -0.1278
     36 N          -5.3807    3.4284    0.7329 N.ar    1  UNL1       -0.1290
     37 C          -4.1678    2.8597    0.6276 C.ar    1  UNL1        0.1642
     38 H          -3.3347    5.4647    0.8661 H       1  UNL1        0.0279
     39 H          -1.7524    5.1557    0.0123 H       1  UNL1        0.0279
     40 H          -3.2592    5.1303   -0.9361 H       1  UNL1        0.0279
     41 H          -0.8917    3.0353    0.0460 H       1  UNL1        0.0640
     42 H           4.4628    0.3014    0.6978 H       1  UNL1        0.1549
     43 H           6.1795    0.0438   -2.3603 H       1  UNL1        0.0522
     44 H           5.2238    1.5297   -2.5390 H       1  UNL1        0.0522
     45 H           5.7489    2.4643    0.9802 H       1  UNL1        0.0391
     46 H           6.1160    3.3929   -0.4841 H       1  UNL1        0.0391
     47 H           4.5616    2.4451   -0.4326 H       1  UNL1        0.0391
     48 H           8.1298    0.7375   -0.1140 H       1  UNL1        0.0391
     49 H           6.9605   -0.5888   -0.2818 H       1  UNL1        0.0391
     50 H           6.8825    0.6019    1.1332 H       1  UNL1        0.0391
     51 H           3.5238   -2.8894    0.4819 H       1  UNL1        0.0828
     52 H           1.7283   -4.6811    0.9126 H       1  UNL1        0.0456
     53 H           0.4814   -4.0589    2.0292 H       1  UNL1        0.0456
     54 H           0.1311   -4.2952    0.2399 H       1  UNL1        0.0456
     55 H          -1.2287   -1.2303    1.7408 H       1  UNL1        0.0619
     56 H          -1.0936   -0.7264   -1.9945 H       1  UNL1        0.0621
     57 H          -2.5436   -2.0622   -3.5071 H       1  UNL1        0.0632
     58 H          -3.8734   -4.4159   -0.2210 H       1  UNL1        0.0632
     59 H          -2.4715   -3.1282    1.2597 H       1  UNL1        0.0621
     60 H          -3.3362   -0.2789    1.0337 H       1  UNL1        0.0833
     61 H          -7.2399    0.0841    1.6250 H       1  UNL1        0.1105
@<TRIPOS>BOND
     1     1     2    1
     2     2     3   ar
     3     3     4   ar
     4     4     5    1
     5     5     6   am
     6     6     7    2
     7     6     8    1
     8     8     9   ar
     9     9    10    1
    10    10    11   am
    11    11    12    2
    12    11    13    1
    13    13    14    1
    14    14    15    1
    15    14    16    1
    16     9    17   ar
    17    17    18   ar
    18    18    19    1
    19    18    20   ar
    20    20    21    1
    21    21    22    1
    22    22    23   ar
    23    23    24   ar
    24    24    25   ar
    25    25    26    1
    26    25    27   ar
    27    27    28   ar
    28     4    29   ar
    29    29    30   ar
    30    30    31   ar
    31    31    32    1
    32    32    33    1
    33    32    34    1
    34    31    35   ar
    35    35    36   ar
    36    36    37   ar
    37    37     2   ar
    38    21     5    1
    39    28    22   ar
    40    37    30   ar
    41    20     8   ar
    42     1    38    1
    43     1    39    1
    44     1    40    1
    45     3    41    1
    46    10    42    1
    47    13    43    1
    48    13    44    1
    49    15    45    1
    50    15    46    1
    51    15    47    1
    52    16    48    1
    53    16    49    1
    54    16    50    1
    55    17    51    1
    56    19    52    1
    57    19    53    1
    58    19    54    1
    59    21    55    1
    60    23    56    1
    61    24    57    1
    62    27    58    1
    63    28    59    1
    64    29    60    1
    65    32    61    1
