
     RDKit          3D

 61 65  0  0  0  0  0  0  0  0999 V2000
   -2.8365    4.8791    0.0563 C   0  0  0  0  0  0  0  0  0  0  0  0
   -2.9644    3.4168    0.3295 C   0  0  0  0  0  0  0  0  0  0  0  0
   -1.8373    2.5892    0.2825 C   0  0  0  0  0  0  0  0  0  0  0  0
   -1.8968    1.2379    0.5254 C   0  0  0  0  0  0  0  0  0  0  0  0
   -0.7896    0.3554    0.4969 N   0  0  0  0  0  0  0  0  0  0  0  0
    0.5499    0.7327    0.2457 C   0  0  0  0  0  0  0  0  0  0  0  0
    1.0530    1.8700   -0.0193 O   0  0  0  0  0  0  0  0  0  0  0  0
    1.4179   -0.4433    0.3267 C   0  0  0  0  0  0  0  0  0  0  0  0
    2.7128   -0.9044    0.2384 C   0  0  0  0  0  0  0  0  0  0  0  0
    3.9030   -0.1442   -0.0531 N   0  0  0  0  0  0  0  0  0  0  0  0
    4.3346    0.0112   -1.3807 C   0  0  0  0  0  0  0  0  0  0  0  0
    3.6408   -0.5373   -2.2836 O   0  0  0  0  0  0  0  0  0  0  0  0
    5.5226    0.7558   -1.8111 C   0  0  0  0  0  0  0  0  0  0  0  0
    6.2798    1.3617   -0.7733 N   0  0  0  0  0  0  0  0  0  0  0  0
    5.6403    2.4426   -0.1033 C   0  0  0  0  0  0  0  0  0  0  0  0
    7.0411    0.4857    0.0492 C   0  0  0  0  0  0  0  0  0  0  0  0
    2.6407   -2.2648    0.4875 C   0  0  0  0  0  0  0  0  0  0  0  0
    1.3676   -2.6228    0.7167 N   0  0  0  0  0  0  0  0  0  0  0  0
    0.8845   -3.9671    1.0159 C   0  0  0  0  0  0  0  0  0  0  0  0
    0.6070   -1.5140    0.6206 C   0  0  0  0  0  0  0  0  0  0  0  0
   -0.8127   -1.0697    0.7147 C   0  0  0  0  0  0  0  0  0  0  0  0
   -1.6604   -1.8121   -0.2490 C   0  0  0  0  0  0  0  0  0  0  0  0
   -1.7004   -1.5371   -1.5845 C   0  0  0  0  0  0  0  0  0  0  0  0
   -2.5052   -2.2732   -2.4467 C   0  0  0  0  0  0  0  0  0  0  0  0
   -3.2817   -3.2981   -1.9753 C   0  0  0  0  0  0  0  0  0  0  0  0
   -4.3011   -4.2399   -3.0255 Cl  0  0  0  0  0  0  0  0  0  0  0  0
   -3.2673   -3.6060   -0.6297 C   0  0  0  0  0  0  0  0  0  0  0  0
   -2.4663   -2.8648    0.1943 C   0  0  0  0  0  0  0  0  0  0  0  0
   -3.1775    0.7526    0.8246 C   0  0  0  0  0  0  0  0  0  0  0  0
   -4.2623    1.5463    0.8700 N   0  0  0  0  0  0  0  0  0  0  0  0
   -5.5630    1.2977    1.1308 C   0  0  0  0  0  0  0  0  0  0  0  0
   -6.1500   -0.0359    1.4587 C   0  0  0  0  0  0  0  0  0  0  0  0
   -5.5685   -0.4061    2.6774 F   0  0  0  0  0  0  0  0  0  0  0  0
   -5.8877   -0.9700    0.4832 F   0  0  0  0  0  0  0  0  0  0  0  0
   -6.2238    2.4567    1.0417 N   0  0  0  0  0  0  0  0  0  0  0  0
   -5.3807    3.4284    0.7329 N   0  0  0  0  0  0  0  0  0  0  0  0
   -4.1678    2.8597    0.6276 C   0  0  0  0  0  0  0  0  0  0  0  0
   -3.3347    5.4647    0.8661 H   0  0  0  0  0  0  0  0  0  0  0  0
   -1.7524    5.1557    0.0123 H   0  0  0  0  0  0  0  0  0  0  0  0
   -3.2592    5.1303   -0.9361 H   0  0  0  0  0  0  0  0  0  0  0  0
   -0.8917    3.0353    0.0460 H   0  0  0  0  0  0  0  0  0  0  0  0
    4.4628    0.3014    0.6978 H   0  0  0  0  0  0  0  0  0  0  0  0
    6.1795    0.0438   -2.3603 H   0  0  0  0  0  0  0  0  0  0  0  0
    5.2238    1.5297   -2.5390 H   0  0  0  0  0  0  0  0  0  0  0  0
    5.7489    2.4643    0.9802 H   0  0  0  0  0  0  0  0  0  0  0  0
    6.1160    3.3929   -0.4841 H   0  0  0  0  0  0  0  0  0  0  0  0
    4.5616    2.4451   -0.4326 H   0  0  0  0  0  0  0  0  0  0  0  0
    8.1298    0.7375   -0.1140 H   0  0  0  0  0  0  0  0  0  0  0  0
    6.9605   -0.5888   -0.2818 H   0  0  0  0  0  0  0  0  0  0  0  0
    6.8825    0.6019    1.1332 H   0  0  0  0  0  0  0  0  0  0  0  0
    3.5238   -2.8894    0.4819 H   0  0  0  0  0  0  0  0  0  0  0  0
    1.7283   -4.6811    0.9126 H   0  0  0  0  0  0  0  0  0  0  0  0
    0.4814   -4.0589    2.0292 H   0  0  0  0  0  0  0  0  0  0  0  0
    0.1311   -4.2952    0.2399 H   0  0  0  0  0  0  0  0  0  0  0  0
   -1.2287   -1.2303    1.7408 H   0  0  0  0  0  0  0  0  0  0  0  0
   -1.0936   -0.7264   -1.9945 H   0  0  0  0  0  0  0  0  0  0  0  0
   -2.5436   -2.0622   -3.5071 H   0  0  0  0  0  0  0  0  0  0  0  0
   -3.8734   -4.4159   -0.2210 H   0  0  0  0  0  0  0  0  0  0  0  0
   -2.4715   -3.1282    1.2597 H   0  0  0  0  0  0  0  0  0  0  0  0
   -3.3362   -0.2789    1.0337 H   0  0  0  0  0  0  0  0  0  0  0  0
   -7.2399    0.0841    1.6250 H   0  0  0  0  0  0  0  0  0  0  0  0
  1  2  1  0
  2  3  2  0
  3  4  1  0
  4  5  1  0
  5  6  1  0
  6  7  2  0
  6  8  1  0
  8  9  1  0
  9 10  1  0
 10 11  1  0
 11 12  2  0
 11 13  1  0
 13 14  1  0
 14 15  1  0
 14 16  1  0
  9 17  2  0
 17 18  1  0
 18 19  1  0
 18 20  1  0
 20 21  1  0
 21 22  1  0
 22 23  2  0
 23 24  1  0
 24 25  2  0
 25 26  1  0
 25 27  1  0
 27 28  2  0
  4 29  2  0
 29 30  1  0
 30 31  1  0
 31 32  1  0
 32 33  1  0
 32 34  1  0
 31 35  2  0
 35 36  1  0
 36 37  2  0
 37  2  1  0
 21  5  1  0
 28 22  1  0
 37 30  1  0
 20  8  2  0
  1 38  1  0
  1 39  1  0
  1 40  1  0
  3 41  1  0
 10 42  1  0
 13 43  1  0
 13 44  1  0
 15 45  1  0
 15 46  1  0
 15 47  1  0
 16 48  1  0
 16 49  1  0
 16 50  1  0
 17 51  1  0
 19 52  1  0
 19 53  1  0
 19 54  1  0
 21 55  1  0
 23 56  1  0
 24 57  1  0
 27 58  1  0
 28 59  1  0
 29 60  1  0
 32 61  1  0
M  END
$$$$
