@<TRIPOS>MOLECULE
*****
 46 49 0 0 0
SMALL
GASTEIGER

@<TRIPOS>ATOM
      1 C          -2.8175   -3.3330    0.1630 C.3     1  UNL1       -0.0373
      2 C          -1.4708   -3.1825   -0.5247 C.3     1  UNL1        0.0703
      3 O          -1.0482   -4.4200   -0.9502 O.3     1  UNL1       -0.3903
      4 C          -1.5506   -2.1736   -1.6537 C.3     1  UNL1        0.0504
      5 N          -1.9460   -0.8702   -1.1962 N.ar    1  UNL1       -0.3271
      6 C          -3.2580   -0.5203   -1.0786 C.ar    1  UNL1        0.0972
      7 N          -3.2922    0.7283   -0.6259 N.ar    1  UNL1       -0.2351
      8 C          -2.0626    1.1789   -0.4534 C.ar    1  UNL1        0.0967
      9 C          -1.6688    2.4966    0.0313 C.ar    1  UNL1        0.0026
     10 C          -0.9365    2.5328    1.1837 C.ar    1  UNL1       -0.0498
     11 C          -0.5396    3.7393    1.6840 C.ar    1  UNL1       -0.0258
     12 C          -0.8701    4.9128    1.0402 C.ar    1  UNL1        0.1234
     13 F          -0.4671    6.1011    1.5495 F       1  UNL1       -0.2055
     14 C          -1.6096    4.8793   -0.1230 C.ar    1  UNL1       -0.0258
     15 C          -2.0043    3.6605   -0.6190 C.ar    1  UNL1       -0.0498
     16 C          -1.1780    0.1610   -0.8171 C.ar    1  UNL1        0.0779
     17 C           0.2634    0.2671   -0.7891 C.ar    1  UNL1        0.0173
     18 C           0.8611    1.1329   -1.7073 C.ar    1  UNL1       -0.0477
     19 C           2.2266    1.2891   -1.7163 C.ar    1  UNL1       -0.0182
     20 C           3.0189    0.5970   -0.8237 C.ar    1  UNL1        0.1381
     21 N           4.3583    0.5574   -0.6017 N.ar    1  UNL1       -0.2353
     22 C           4.6174   -0.2893    0.4077 C.ar    1  UNL1        0.0588
     23 C           3.4029   -0.8151    0.8521 C.ar    1  UNL1        0.1280
     24 C           3.2230   -1.7709    1.9463 C.2     1  UNL1        0.2599
     25 N           4.3302   -2.1819    2.7100 N.am    1  UNL1       -0.3241
     26 O           2.0770   -2.2151    2.1925 O.2     1  UNL1       -0.2687
     27 N           2.4612   -0.2464    0.0735 N.ar    1  UNL1       -0.2949
     28 C           1.1097   -0.3858    0.0649 C.ar    1  UNL1        0.0211
     29 H          -3.5735   -3.7342   -0.5232 H       1  UNL1        0.0255
     30 H          -2.6483   -4.0893    0.9709 H       1  UNL1        0.0255
     31 H          -3.1223   -2.3967    0.6565 H       1  UNL1        0.0255
     32 H          -0.7834   -2.7897    0.2427 H       1  UNL1        0.0608
     33 H          -1.7124   -5.1021   -0.7193 H       1  UNL1        0.2098
     34 H          -2.3268   -2.5462   -2.3539 H       1  UNL1        0.0518
     35 H          -0.6197   -2.1567   -2.2545 H       1  UNL1        0.0518
     36 H          -4.1082   -1.1778   -1.3232 H       1  UNL1        0.1029
     37 H          -0.6675    1.6228    1.7016 H       1  UNL1        0.0625
     38 H           0.0422    3.7546    2.6007 H       1  UNL1        0.0646
     39 H          -1.8356    5.8361   -0.5795 H       1  UNL1        0.0646
     40 H          -2.5810    3.6470   -1.5286 H       1  UNL1        0.0625
     41 H           0.2299    1.6703   -2.4010 H       1  UNL1        0.0626
     42 H           2.6802    1.9572   -2.4260 H       1  UNL1        0.0654
     43 H           5.5657   -0.5616    0.8461 H       1  UNL1        0.0853
     44 H           4.2223   -2.5703    3.6962 H       1  UNL1        0.1453
     45 H           5.3191   -2.1444    2.3935 H       1  UNL1        0.1453
     46 H           0.6894   -1.0492    0.7821 H       1  UNL1        0.0820
@<TRIPOS>BOND
     1     1     2    1
     2     2     3    1
     3     2     4    1
     4     4     5    1
     5     5     6   ar
     6     6     7   ar
     7     7     8   ar
     8     8     9    1
     9     9    10   ar
    10    10    11   ar
    11    11    12   ar
    12    12    13    1
    13    12    14   ar
    14    14    15   ar
    15     8    16   ar
    16    16    17    1
    17    17    18   ar
    18    18    19   ar
    19    19    20   ar
    20    20    21   ar
    21    21    22   ar
    22    22    23   ar
    23    23    24    1
    24    24    25   am
    25    24    26    2
    26    23    27   ar
    27    27    28   ar
    28    16     5   ar
    29    28    17   ar
    30    15     9   ar
    31    27    20   ar
    32     1    29    1
    33     1    30    1
    34     1    31    1
    35     2    32    1
    36     3    33    1
    37     4    34    1
    38     4    35    1
    39     6    36    1
    40    10    37    1
    41    11    38    1
    42    14    39    1
    43    15    40    1
    44    18    41    1
    45    19    42    1
    46    22    43    1
    47    25    44    1
    48    25    45    1
    49    28    46    1
