@<TRIPOS>MOLECULE
*****
 34 37 0 0 0
SMALL
GASTEIGER

@<TRIPOS>ATOM
      1 C          -3.1720    2.9457   -0.6488 C.3     1  UNL1       -0.0041
      2 C          -3.4653    1.5906   -0.2074 C.ar    1  UNL1        0.1349
      3 N          -4.7632    1.1731    0.0249 N.ar    1  UNL1       -0.1343
      4 N          -4.7785   -0.0531    0.4204 N.ar    1  UNL1       -0.1340
      5 C          -3.4928   -0.4900    0.4634 C.ar    1  UNL1        0.1383
      6 N          -2.7096    0.5428    0.0720 N.ar    1  UNL1       -0.2801
      7 C          -1.2791    0.3318    0.0574 C.ar    1  UNL1        0.0877
      8 C          -0.4580    1.3491   -0.3531 C.ar    1  UNL1        0.1480
      9 F          -0.8005    2.5654   -0.7655 F       1  UNL1       -0.2033
     10 C           0.9255    1.0990   -0.3666 C.ar    1  UNL1       -0.0166
     11 C           1.4333   -0.1114    0.0143 C.ar    1  UNL1       -0.0133
     12 C           2.8819   -0.2590   -0.0319 C.ar    1  UNL1        0.0030
     13 C           3.5894    0.4218   -0.9876 C.ar    1  UNL1        0.0354
     14 N           4.9476    0.3131   -1.0635 N.ar    1  UNL1       -0.2598
     15 C           5.6371   -0.4631   -0.2074 C.ar    1  UNL1        0.0628
     16 C           4.9665   -1.1685    0.7725 C.ar    1  UNL1        0.1420
     17 F           5.6938   -1.9368    1.6134 F       1  UNL1       -0.2039
     18 C           3.5818   -1.0554    0.8478 C.ar    1  UNL1       -0.0158
     19 C           0.5899   -1.0924    0.4130 C.ar    1  UNL1       -0.0486
     20 C          -0.7952   -0.9007    0.4471 C.ar    1  UNL1       -0.0197
     21 C          -1.6104   -2.0488    0.9119 C.3     1  UNL1       -0.0187
     22 C          -3.0623   -1.8389    0.8557 C.3     1  UNL1        0.0118
     23 H          -4.1750    3.5405   -0.6970 H       1  UNL1        0.0308
     24 H          -2.8676    3.0593   -1.7046 H       1  UNL1        0.0308
     25 H          -2.6559    3.6031    0.0990 H       1  UNL1        0.0308
     26 H           1.5698    1.9005   -0.6892 H       1  UNL1        0.0653
     27 H           3.1305    1.0775   -1.7306 H       1  UNL1        0.0836
     28 H           6.7333   -0.5504   -0.2708 H       1  UNL1        0.0859
     29 H           3.0656   -1.5949    1.6004 H       1  UNL1        0.0653
     30 H           1.0073   -2.0456    0.7121 H       1  UNL1        0.0627
     31 H          -1.3334   -2.9709    0.3148 H       1  UNL1        0.0318
     32 H          -1.2920   -2.2930    1.9513 H       1  UNL1        0.0318
     33 H          -3.5131   -2.0941    1.8447 H       1  UNL1        0.0347
     34 H          -3.5293   -2.5462    0.1240 H       1  UNL1        0.0347
@<TRIPOS>BOND
     1     1     2    1
     2     2     3   ar
     3     3     4   ar
     4     4     5   ar
     5     5     6   ar
     6     6     7    1
     7     7     8   ar
     8     8     9    1
     9     8    10   ar
    10    10    11   ar
    11    11    12    1
    12    12    13   ar
    13    13    14   ar
    14    14    15   ar
    15    15    16   ar
    16    16    17    1
    17    16    18   ar
    18    11    19   ar
    19    19    20   ar
    20    20    21    1
    21    21    22    1
    22     6     2   ar
    23    20     7   ar
    24    22     5    1
    25    18    12   ar
    26     1    23    1
    27     1    24    1
    28     1    25    1
    29    10    26    1
    30    13    27    1
    31    15    28    1
    32    18    29    1
    33    19    30    1
    34    21    31    1
    35    21    32    1
    36    22    33    1
    37    22    34    1
