
     RDKit          3D

 34 37  0  0  0  0  0  0  0  0999 V2000
   -3.1720    2.9457   -0.6488 C   0  0  0  0  0  0  0  0  0  0  0  0
   -3.4653    1.5906   -0.2074 C   0  0  0  0  0  0  0  0  0  0  0  0
   -4.7632    1.1731    0.0249 N   0  0  0  0  0  0  0  0  0  0  0  0
   -4.7785   -0.0531    0.4204 N   0  0  0  0  0  0  0  0  0  0  0  0
   -3.4928   -0.4900    0.4634 C   0  0  0  0  0  0  0  0  0  0  0  0
   -2.7096    0.5428    0.0720 N   0  0  0  0  0  0  0  0  0  0  0  0
   -1.2791    0.3318    0.0574 C   0  0  0  0  0  0  0  0  0  0  0  0
   -0.4580    1.3491   -0.3531 C   0  0  0  0  0  0  0  0  0  0  0  0
   -0.8005    2.5654   -0.7655 F   0  0  0  0  0  0  0  0  0  0  0  0
    0.9255    1.0990   -0.3666 C   0  0  0  0  0  0  0  0  0  0  0  0
    1.4333   -0.1114    0.0143 C   0  0  0  0  0  0  0  0  0  0  0  0
    2.8819   -0.2590   -0.0319 C   0  0  0  0  0  0  0  0  0  0  0  0
    3.5894    0.4218   -0.9876 C   0  0  0  0  0  0  0  0  0  0  0  0
    4.9476    0.3131   -1.0635 N   0  0  0  0  0  0  0  0  0  0  0  0
    5.6371   -0.4631   -0.2074 C   0  0  0  0  0  0  0  0  0  0  0  0
    4.9665   -1.1685    0.7725 C   0  0  0  0  0  0  0  0  0  0  0  0
    5.6938   -1.9368    1.6134 F   0  0  0  0  0  0  0  0  0  0  0  0
    3.5818   -1.0554    0.8478 C   0  0  0  0  0  0  0  0  0  0  0  0
    0.5899   -1.0924    0.4130 C   0  0  0  0  0  0  0  0  0  0  0  0
   -0.7952   -0.9007    0.4471 C   0  0  0  0  0  0  0  0  0  0  0  0
   -1.6104   -2.0488    0.9119 C   0  0  0  0  0  0  0  0  0  0  0  0
   -3.0623   -1.8389    0.8557 C   0  0  0  0  0  0  0  0  0  0  0  0
   -4.1750    3.5405   -0.6970 H   0  0  0  0  0  0  0  0  0  0  0  0
   -2.8676    3.0593   -1.7046 H   0  0  0  0  0  0  0  0  0  0  0  0
   -2.6559    3.6031    0.0990 H   0  0  0  0  0  0  0  0  0  0  0  0
    1.5698    1.9005   -0.6892 H   0  0  0  0  0  0  0  0  0  0  0  0
    3.1305    1.0775   -1.7306 H   0  0  0  0  0  0  0  0  0  0  0  0
    6.7333   -0.5504   -0.2708 H   0  0  0  0  0  0  0  0  0  0  0  0
    3.0656   -1.5949    1.6004 H   0  0  0  0  0  0  0  0  0  0  0  0
    1.0073   -2.0456    0.7121 H   0  0  0  0  0  0  0  0  0  0  0  0
   -1.3334   -2.9709    0.3148 H   0  0  0  0  0  0  0  0  0  0  0  0
   -1.2920   -2.2930    1.9513 H   0  0  0  0  0  0  0  0  0  0  0  0
   -3.5131   -2.0941    1.8447 H   0  0  0  0  0  0  0  0  0  0  0  0
   -3.5293   -2.5462    0.1240 H   0  0  0  0  0  0  0  0  0  0  0  0
  1  2  1  0
  2  3  2  0
  3  4  1  0
  4  5  2  0
  5  6  1  0
  6  7  1  0
  7  8  2  0
  8  9  1  0
  8 10  1  0
 10 11  2  0
 11 12  1  0
 12 13  2  0
 13 14  1  0
 14 15  2  0
 15 16  1  0
 16 17  1  0
 16 18  2  0
 11 19  1  0
 19 20  2  0
 20 21  1  0
 21 22  1  0
  6  2  1  0
 20  7  1  0
 22  5  1  0
 18 12  1  0
  1 23  1  0
  1 24  1  0
  1 25  1  0
 10 26  1  0
 13 27  1  0
 15 28  1  0
 18 29  1  0
 19 30  1  0
 21 31  1  0
 21 32  1  0
 22 33  1  0
 22 34  1  0
M  END
$$$$
