@<TRIPOS>MOLECULE
*****
 55 59 0 0 0
SMALL
GASTEIGER

@<TRIPOS>ATOM
      1 C           0.2820    0.8759    3.0369 C.3     1  UNL1       -0.0632
      2 C           1.2892    0.1841    2.1452 C.3     1  UNL1       -0.0303
      3 C           0.5722   -0.3173    0.8799 C.3     1  UNL1        0.0803
      4 N           1.5353   -0.9715    0.0420 N.pl3   1  UNL1       -0.3174
      5 C           2.7189   -0.3923   -0.4871 C.ar    1  UNL1        0.1502
      6 N           3.0876    0.8645   -0.2571 N.ar    1  UNL1       -0.2186
      7 C           4.1832    1.4007   -0.7437 C.ar    1  UNL1        0.1205
      8 N           5.0149    0.6901   -1.5220 N.ar    1  UNL1       -0.2162
      9 C           4.7161   -0.5908   -1.8044 C.ar    1  UNL1        0.1627
     10 N           5.3251   -1.5441   -2.5327 N.ar    1  UNL1       -0.3292
     11 C           4.5925   -2.6716   -2.4885 C.ar    1  UNL1        0.0957
     12 N           3.5100   -2.4232   -1.7231 N.ar    1  UNL1       -0.2308
     13 C           3.5678   -1.1601   -1.2970 C.ar    1  UNL1        0.1472
     14 C          -0.1149    0.8296    0.2508 C.ar    1  UNL1        0.1378
     15 N           0.5875    1.8300   -0.3512 N.ar    1  UNL1       -0.2311
     16 C          -0.0199    2.8772   -0.9344 C.ar    1  UNL1        0.0810
     17 C           0.6797    3.8894   -1.5429 C.ar    1  UNL1       -0.0353
     18 C           0.0454    4.9709   -2.1449 C.ar    1  UNL1       -0.0570
     19 C          -1.3347    5.0517   -2.1436 C.ar    1  UNL1       -0.0256
     20 C          -2.0365    4.0168   -1.5219 C.ar    1  UNL1        0.1378
     21 F          -3.3895    4.0706   -1.5059 F       1  UNL1       -0.2046
     22 C          -1.3863    2.9535   -0.9309 C.ar    1  UNL1        0.1003
     23 C          -2.0843    1.9444   -0.3245 C.ar    1  UNL1        0.2691
     24 O          -3.3380    1.9717   -0.2966 O.2     1  UNL1       -0.2665
     25 N          -1.4529    0.8851    0.2647 N.ar    1  UNL1       -0.2628
     26 C          -2.1962   -0.1512    0.8716 C.ar    1  UNL1        0.0515
     27 C          -2.8148   -0.0630    2.0972 C.ar    1  UNL1       -0.0377
     28 C          -3.5341   -1.1276    2.6208 C.ar    1  UNL1       -0.0595
     29 C          -3.6597   -2.3182    1.9364 C.ar    1  UNL1       -0.0582
     30 C          -3.0421   -2.4132    0.7077 C.ar    1  UNL1       -0.0369
     31 C          -3.1732   -3.6990   -0.0397 C.3     1  UNL1        0.0680
     32 C          -1.9992   -4.5698    0.3925 C.3     1  UNL1        0.3940
     33 F          -2.0116   -5.7920   -0.2348 F       1  UNL1       -0.1704
     34 F          -0.8513   -3.8823    0.1115 F       1  UNL1       -0.1704
     35 F          -2.0435   -4.7813    1.7653 F       1  UNL1       -0.1704
     36 C          -2.3239   -1.3456    0.1884 C.ar    1  UNL1       -0.0342
     37 H          -0.3827    1.5080    2.4086 H       1  UNL1        0.0230
     38 H           0.7756    1.5792    3.7459 H       1  UNL1        0.0230
     39 H          -0.2849    0.1616    3.6725 H       1  UNL1        0.0230
     40 H           1.8073   -0.6413    2.6533 H       1  UNL1        0.0285
     41 H           1.9927    0.9758    1.8189 H       1  UNL1        0.0285
     42 H          -0.1599   -1.0630    1.2798 H       1  UNL1        0.0579
     43 H           1.3449   -1.9889   -0.2081 H       1  UNL1        0.1482
     44 H           4.4750    2.4541   -0.5402 H       1  UNL1        0.1048
     45 H           6.2217   -1.3934   -3.0363 H       1  UNL1        0.1682
     46 H           4.8127   -3.6141   -2.9706 H       1  UNL1        0.1027
     47 H           1.7592    3.8400   -1.5519 H       1  UNL1        0.0639
     48 H           0.5936    5.7695   -2.6248 H       1  UNL1        0.0619
     49 H          -1.8483    5.8840   -2.6060 H       1  UNL1        0.0646
     50 H          -2.7259    0.8739    2.6541 H       1  UNL1        0.0638
     51 H          -4.0212   -1.0499    3.5921 H       1  UNL1        0.0618
     52 H          -4.2298   -3.1429    2.3662 H       1  UNL1        0.0620
     53 H          -3.0894   -3.5672   -1.1189 H       1  UNL1        0.0400
     54 H          -4.0999   -4.2333    0.2608 H       1  UNL1        0.0400
     55 H          -1.8416   -1.4442   -0.7900 H       1  UNL1        0.0641
@<TRIPOS>BOND
     1     1     2    1
     2     2     3    1
     3     3     4    1
     4     4     5    1
     5     5     6   ar
     6     6     7   ar
     7     7     8   ar
     8     8     9   ar
     9     9    10   ar
    10    10    11   ar
    11    11    12   ar
    12    12    13   ar
    13     3    14    1
    14    14    15   ar
    15    15    16   ar
    16    16    17   ar
    17    17    18   ar
    18    18    19   ar
    19    19    20   ar
    20    20    21    1
    21    20    22   ar
    22    22    23   ar
    23    23    24    2
    24    23    25   ar
    25    25    26    1
    26    26    27   ar
    27    27    28   ar
    28    28    29   ar
    29    29    30   ar
    30    30    31    1
    31    31    32    1
    32    32    33    1
    33    32    34    1
    34    32    35    1
    35    30    36   ar
    36    13     5   ar
    37    25    14   ar
    38    36    26   ar
    39    13     9   ar
    40    22    16   ar
    41     1    37    1
    42     1    38    1
    43     1    39    1
    44     2    40    1
    45     2    41    1
    46     3    42    1
    47     4    43    1
    48     7    44    1
    49    10    45    1
    50    11    46    1
    51    17    47    1
    52    18    48    1
    53    19    49    1
    54    27    50    1
    55    28    51    1
    56    29    52    1
    57    31    53    1
    58    31    54    1
    59    36    55    1
