
     RDKit          3D

 55 59  0  0  0  0  0  0  0  0999 V2000
    0.2820    0.8759    3.0369 C   0  0  0  0  0  0  0  0  0  0  0  0
    1.2892    0.1841    2.1452 C   0  0  0  0  0  0  0  0  0  0  0  0
    0.5722   -0.3173    0.8799 C   0  0  2  0  0  0  0  0  0  0  0  0
    1.5353   -0.9715    0.0420 N   0  0  0  0  0  0  0  0  0  0  0  0
    2.7189   -0.3923   -0.4871 C   0  0  0  0  0  0  0  0  0  0  0  0
    3.0876    0.8645   -0.2571 N   0  0  0  0  0  0  0  0  0  0  0  0
    4.1832    1.4007   -0.7437 C   0  0  0  0  0  0  0  0  0  0  0  0
    5.0149    0.6901   -1.5220 N   0  0  0  0  0  0  0  0  0  0  0  0
    4.7161   -0.5908   -1.8044 C   0  0  0  0  0  0  0  0  0  0  0  0
    5.3251   -1.5441   -2.5327 N   0  0  0  0  0  0  0  0  0  0  0  0
    4.5925   -2.6716   -2.4885 C   0  0  0  0  0  0  0  0  0  0  0  0
    3.5100   -2.4232   -1.7231 N   0  0  0  0  0  0  0  0  0  0  0  0
    3.5678   -1.1601   -1.2970 C   0  0  0  0  0  0  0  0  0  0  0  0
   -0.1149    0.8296    0.2508 C   0  0  0  0  0  0  0  0  0  0  0  0
    0.5875    1.8300   -0.3512 N   0  0  0  0  0  0  0  0  0  0  0  0
   -0.0199    2.8772   -0.9344 C   0  0  0  0  0  0  0  0  0  0  0  0
    0.6797    3.8894   -1.5429 C   0  0  0  0  0  0  0  0  0  0  0  0
    0.0454    4.9709   -2.1449 C   0  0  0  0  0  0  0  0  0  0  0  0
   -1.3347    5.0517   -2.1436 C   0  0  0  0  0  0  0  0  0  0  0  0
   -2.0365    4.0168   -1.5219 C   0  0  0  0  0  0  0  0  0  0  0  0
   -3.3895    4.0706   -1.5059 F   0  0  0  0  0  0  0  0  0  0  0  0
   -1.3863    2.9535   -0.9309 C   0  0  0  0  0  0  0  0  0  0  0  0
   -2.0843    1.9444   -0.3245 C   0  0  0  0  0  0  0  0  0  0  0  0
   -3.3380    1.9717   -0.2966 O   0  0  0  0  0  0  0  0  0  0  0  0
   -1.4529    0.8851    0.2647 N   0  0  0  0  0  0  0  0  0  0  0  0
   -2.1962   -0.1512    0.8716 C   0  0  0  0  0  0  0  0  0  0  0  0
   -2.8148   -0.0630    2.0972 C   0  0  0  0  0  0  0  0  0  0  0  0
   -3.5341   -1.1276    2.6208 C   0  0  0  0  0  0  0  0  0  0  0  0
   -3.6597   -2.3182    1.9364 C   0  0  0  0  0  0  0  0  0  0  0  0
   -3.0421   -2.4132    0.7077 C   0  0  0  0  0  0  0  0  0  0  0  0
   -3.1732   -3.6990   -0.0397 C   0  0  0  0  0  0  0  0  0  0  0  0
   -1.9992   -4.5698    0.3925 C   0  0  0  0  0  0  0  0  0  0  0  0
   -2.0116   -5.7920   -0.2348 F   0  0  0  0  0  0  0  0  0  0  0  0
   -0.8513   -3.8823    0.1115 F   0  0  0  0  0  0  0  0  0  0  0  0
   -2.0435   -4.7813    1.7653 F   0  0  0  0  0  0  0  0  0  0  0  0
   -2.3239   -1.3456    0.1884 C   0  0  0  0  0  0  0  0  0  0  0  0
   -0.3827    1.5080    2.4086 H   0  0  0  0  0  0  0  0  0  0  0  0
    0.7756    1.5792    3.7459 H   0  0  0  0  0  0  0  0  0  0  0  0
   -0.2849    0.1616    3.6725 H   0  0  0  0  0  0  0  0  0  0  0  0
    1.8073   -0.6413    2.6533 H   0  0  0  0  0  0  0  0  0  0  0  0
    1.9927    0.9758    1.8189 H   0  0  0  0  0  0  0  0  0  0  0  0
   -0.1599   -1.0630    1.2798 H   0  0  0  0  0  0  0  0  0  0  0  0
    1.3449   -1.9889   -0.2081 H   0  0  0  0  0  0  0  0  0  0  0  0
    4.4750    2.4541   -0.5402 H   0  0  0  0  0  0  0  0  0  0  0  0
    6.2217   -1.3934   -3.0363 H   0  0  0  0  0  0  0  0  0  0  0  0
    4.8127   -3.6141   -2.9706 H   0  0  0  0  0  0  0  0  0  0  0  0
    1.7592    3.8400   -1.5519 H   0  0  0  0  0  0  0  0  0  0  0  0
    0.5936    5.7695   -2.6248 H   0  0  0  0  0  0  0  0  0  0  0  0
   -1.8483    5.8840   -2.6060 H   0  0  0  0  0  0  0  0  0  0  0  0
   -2.7259    0.8739    2.6541 H   0  0  0  0  0  0  0  0  0  0  0  0
   -4.0212   -1.0499    3.5921 H   0  0  0  0  0  0  0  0  0  0  0  0
   -4.2298   -3.1429    2.3662 H   0  0  0  0  0  0  0  0  0  0  0  0
   -3.0894   -3.5672   -1.1189 H   0  0  0  0  0  0  0  0  0  0  0  0
   -4.0999   -4.2333    0.2608 H   0  0  0  0  0  0  0  0  0  0  0  0
   -1.8416   -1.4442   -0.7900 H   0  0  0  0  0  0  0  0  0  0  0  0
  1  2  1  0
  2  3  1  0
  3  4  1  0
  4  5  1  0
  5  6  2  0
  6  7  1  0
  7  8  2  0
  8  9  1  0
  9 10  1  0
 10 11  1  0
 11 12  2  0
 12 13  1  0
  3 14  1  0
 14 15  2  0
 15 16  1  0
 16 17  2  0
 17 18  1  0
 18 19  2  0
 19 20  1  0
 20 21  1  0
 20 22  2  0
 22 23  1  0
 23 24  2  0
 23 25  1  0
 25 26  1  0
 26 27  2  0
 27 28  1  0
 28 29  2  0
 29 30  1  0
 30 31  1  0
 31 32  1  0
 32 33  1  0
 32 34  1  0
 32 35  1  0
 30 36  2  0
 13  5  1  0
 25 14  1  0
 36 26  1  0
 13  9  2  0
 22 16  1  0
  1 37  1  0
  1 38  1  0
  1 39  1  0
  2 40  1  0
  2 41  1  0
  3 42  1  1
  4 43  1  0
  7 44  1  0
 10 45  1  0
 11 46  1  0
 17 47  1  0
 18 48  1  0
 19 49  1  0
 27 50  1  0
 28 51  1  0
 29 52  1  0
 31 53  1  0
 31 54  1  0
 36 55  1  0
M  END
$$$$
