@<TRIPOS>MOLECULE
*****
 55 58 0 0 0
SMALL
GASTEIGER

@<TRIPOS>ATOM
      1 C          -3.6611    0.5156    2.5494 C.3     1  UNL1       -0.0558
      2 C          -3.9345   -0.3927    1.3746 C.3     1  UNL1       -0.0096
      3 C          -4.2221   -1.7904    1.8533 C.3     1  UNL1       -0.0558
      4 C          -5.1109    0.1305    0.5827 C.3     1  UNL1       -0.0431
      5 C          -5.0137   -0.2277   -0.8774 C.3     1  UNL1       -0.0431
      6 C          -3.7954    0.3463   -1.5203 C.3     1  UNL1       -0.0095
      7 C          -3.9223    1.8683   -1.4725 C.3     1  UNL1       -0.0558
      8 C          -3.6685   -0.0623   -2.9471 C.3     1  UNL1       -0.0558
      9 C          -2.5872   -0.0946   -0.7787 C.ar    1  UNL1       -0.0374
     10 C          -2.6926   -0.4182    0.5620 C.ar    1  UNL1       -0.0380
     11 C          -1.5431   -0.8028    1.2284 C.ar    1  UNL1       -0.0571
     12 C          -0.3489   -0.8537    0.5577 C.ar    1  UNL1       -0.0506
     13 C          -0.1918   -0.5415   -0.7733 C.ar    1  UNL1        0.0225
     14 C          -1.3509   -0.1631   -1.4116 C.ar    1  UNL1       -0.0469
     15 C           1.0442   -0.5314   -1.5203 C.2     1  UNL1        0.1932
     16 O           1.1967   -0.6945   -2.7597 O.2     1  UNL1       -0.2867
     17 C           2.3574   -0.3190   -0.9408 C.ar    1  UNL1        0.0228
     18 C           3.5735   -0.7826   -1.3751 C.ar    1  UNL1       -0.0432
     19 C           4.7197   -0.4387   -0.6948 C.ar    1  UNL1       -0.0172
     20 C           4.7345    0.3668    0.4325 C.ar    1  UNL1       -0.0171
     21 C           3.4932    0.8136    0.8406 C.ar    1  UNL1       -0.0533
     22 C           2.2956    0.4996    0.1929 C.ar    1  UNL1       -0.0503
     23 C           5.8469    0.7333    1.1303 C.ar    1  UNL1       -0.0400
     24 C           7.0772    0.2666    0.6848 C.ar    1  UNL1        0.0594
     25 C           7.0998   -0.5427   -0.4394 C.ar    1  UNL1       -0.0472
     26 C           5.9511   -0.9045   -1.1368 C.ar    1  UNL1       -0.0532
     27 C           8.3728    0.5780    1.3103 C.2     1  UNL1        0.3368
     28 O           8.4279    1.4179    2.4399 O.3     1  UNL1       -0.4771
     29 O           9.4858    0.1473    0.9159 O.2     1  UNL1       -0.2451
     30 H          -3.1469   -0.0148    3.3882 H       1  UNL1        0.0238
     31 H          -3.0668    1.3842    2.1994 H       1  UNL1        0.0238
     32 H          -4.5855    0.9461    2.9985 H       1  UNL1        0.0238
     33 H          -5.2965   -1.9219    2.1361 H       1  UNL1        0.0238
     34 H          -3.6026   -2.0222    2.7415 H       1  UNL1        0.0238
     35 H          -4.0167   -2.5516    1.0659 H       1  UNL1        0.0238
     36 H          -5.1738    1.2230    0.7457 H       1  UNL1        0.0274
     37 H          -6.0531   -0.3363    0.9552 H       1  UNL1        0.0274
     38 H          -5.1366   -1.3011   -1.0170 H       1  UNL1        0.0274
     39 H          -5.8944    0.2821   -1.3665 H       1  UNL1        0.0274
     40 H          -4.8494    2.1238   -2.0192 H       1  UNL1        0.0238
     41 H          -3.8860    2.2616   -0.4511 H       1  UNL1        0.0238
     42 H          -3.0747    2.2536   -2.0992 H       1  UNL1        0.0238
     43 H          -4.6540   -0.0885   -3.4904 H       1  UNL1        0.0238
     44 H          -3.0667    0.7210   -3.4713 H       1  UNL1        0.0238
     45 H          -3.2079   -1.0659   -3.0283 H       1  UNL1        0.0238
     46 H          -1.5596   -1.0671    2.2739 H       1  UNL1        0.0621
     47 H           0.5383   -1.1728    1.1153 H       1  UNL1        0.0625
     48 H          -1.3513    0.1079   -2.4759 H       1  UNL1        0.0628
     49 H           3.5519   -1.4058   -2.2479 H       1  UNL1        0.0631
     50 H           3.4713    1.4570    1.7375 H       1  UNL1        0.0624
     51 H           1.4067    0.9566    0.6573 H       1  UNL1        0.0625
     52 H           5.8460    1.3545    1.9983 H       1  UNL1        0.0632
     53 H           8.0655   -0.9187   -0.8060 H       1  UNL1        0.0626
     54 H           6.0095   -1.5318   -2.0034 H       1  UNL1        0.0624
     55 H           9.1001    2.2037    2.4562 H       1  UNL1        0.2954
@<TRIPOS>BOND
     1     1     2    1
     2     2     3    1
     3     2     4    1
     4     4     5    1
     5     5     6    1
     6     6     7    1
     7     6     8    1
     8     6     9    1
     9     9    10   ar
    10    10    11   ar
    11    11    12   ar
    12    12    13   ar
    13    13    14   ar
    14    13    15    1
    15    15    16    2
    16    15    17    1
    17    17    18   ar
    18    18    19   ar
    19    19    20   ar
    20    20    21   ar
    21    21    22   ar
    22    20    23   ar
    23    23    24   ar
    24    24    25   ar
    25    25    26   ar
    26    24    27    1
    27    27    28    1
    28    27    29    2
    29    10     2    1
    30    22    17   ar
    31    14     9   ar
    32    26    19   ar
    33     1    30    1
    34     1    31    1
    35     1    32    1
    36     3    33    1
    37     3    34    1
    38     3    35    1
    39     4    36    1
    40     4    37    1
    41     5    38    1
    42     5    39    1
    43     7    40    1
    44     7    41    1
    45     7    42    1
    46     8    43    1
    47     8    44    1
    48     8    45    1
    49    11    46    1
    50    12    47    1
    51    14    48    1
    52    18    49    1
    53    21    50    1
    54    22    51    1
    55    23    52    1
    56    25    53    1
    57    26    54    1
    58    28    55    1
