
     RDKit          3D

 59 62  0  0  0  0  0  0  0  0999 V2000
    6.1123    3.3008   -1.1400 C   0  0  0  0  0  0  0  0  0  0  0  0
    5.4202    2.9067    0.0959 N   0  0  0  0  0  0  0  0  0  0  0  0
    4.0427    2.6354   -0.1886 C   0  0  0  0  0  0  0  0  0  0  0  0
    3.7633    1.1695   -0.4104 C   0  0  0  0  0  0  0  0  0  0  0  0
    4.1531    0.3732    0.7035 N   0  0  0  0  0  0  0  0  0  0  0  0
    4.0907   -1.0241    0.4142 C   0  0  0  0  0  0  0  0  0  0  0  0
    2.6978   -1.3743    0.0519 C   0  0  0  0  0  0  0  0  0  0  0  0
    1.8364   -1.7575    1.0424 C   0  0  0  0  0  0  0  0  0  0  0  0
    0.5280   -2.0921    0.7431 C   0  0  0  0  0  0  0  0  0  0  0  0
    0.0515   -2.0515   -0.5497 C   0  0  0  0  0  0  0  0  0  0  0  0
   -1.3212   -2.3981   -0.8961 C   0  0  0  0  0  0  0  0  0  0  0  0
   -1.6915   -2.3396   -2.0942 O   0  0  0  0  0  0  0  0  0  0  0  0
   -2.2674   -2.8036    0.0759 N   0  0  0  0  0  0  0  0  0  0  0  0
   -3.6170   -3.1411   -0.2879 C   0  0  0  0  0  0  0  0  0  0  0  0
   -3.9566   -4.4316   -0.6213 C   0  0  0  0  0  0  0  0  0  0  0  0
   -5.2747   -4.6907   -0.9624 C   0  0  0  0  0  0  0  0  0  0  0  0
   -6.2409   -3.7129   -0.9782 C   0  0  0  0  0  0  0  0  0  0  0  0
   -7.8960   -4.0638   -1.4117 Cl  0  0  0  0  0  0  0  0  0  0  0  0
   -5.8335   -2.4216   -0.6297 C   0  0  0  0  0  0  0  0  0  0  0  0
   -4.5530   -2.1244   -0.2892 C   0  0  0  0  0  0  0  0  0  0  0  0
   -4.1857   -0.7670    0.0638 C   0  0  0  0  0  0  0  0  0  0  0  0
   -2.9656   -0.5447    0.3759 O   0  0  0  0  0  0  0  0  0  0  0  0
   -5.0729    0.3369    0.0908 N   0  0  0  0  0  0  0  0  0  0  0  0
   -4.5655    1.6346    0.4625 C   0  0  0  0  0  0  0  0  0  0  0  0
   -5.3910    2.7352    0.5026 C   0  0  0  0  0  0  0  0  0  0  0  0
   -4.9139    3.9952    0.8600 C   0  0  0  0  0  0  0  0  0  0  0  0
   -3.5685    4.0657    1.1690 C   0  0  0  0  0  0  0  0  0  0  0  0
   -2.9058    5.6257    1.6274 Cl  0  0  0  0  0  0  0  0  0  0  0  0
   -2.7507    2.9576    1.1257 C   0  0  0  0  0  0  0  0  0  0  0  0
   -3.2683    1.7851    0.7770 N   0  0  0  0  0  0  0  0  0  0  0  0
    0.9509   -1.6567   -1.5446 C   0  0  0  0  0  0  0  0  0  0  0  0
    2.2466   -1.3268   -1.2378 C   0  0  0  0  0  0  0  0  0  0  0  0
    5.3226    0.8087    1.3813 C   0  0  0  0  0  0  0  0  0  0  0  0
    6.1440    1.8210    0.6675 C   0  0  0  0  0  0  0  0  0  0  0  0
    6.4880    4.3307   -0.9535 H   0  0  0  0  0  0  0  0  0  0  0  0
    5.3644    3.3709   -1.9585 H   0  0  0  0  0  0  0  0  0  0  0  0
    6.9339    2.6094   -1.3755 H   0  0  0  0  0  0  0  0  0  0  0  0
    3.7693    3.1673   -1.1278 H   0  0  0  0  0  0  0  0  0  0  0  0
    3.3575    3.0302    0.5921 H   0  0  0  0  0  0  0  0  0  0  0  0
    4.2534    0.8297   -1.3609 H   0  0  0  0  0  0  0  0  0  0  0  0
    2.6710    1.0672   -0.5749 H   0  0  0  0  0  0  0  0  0  0  0  0
    4.3679   -1.6219    1.3193 H   0  0  0  0  0  0  0  0  0  0  0  0
    4.7690   -1.3401   -0.4032 H   0  0  0  0  0  0  0  0  0  0  0  0
    2.1260   -1.8175    2.0852 H   0  0  0  0  0  0  0  0  0  0  0  0
   -0.1422   -2.3973    1.5647 H   0  0  0  0  0  0  0  0  0  0  0  0
   -2.0363   -2.8763    1.0869 H   0  0  0  0  0  0  0  0  0  0  0  0
   -3.2335   -5.2187   -0.6206 H   0  0  0  0  0  0  0  0  0  0  0  0
   -5.5859   -5.6905   -1.2314 H   0  0  0  0  0  0  0  0  0  0  0  0
   -6.5969   -1.6707   -0.6465 H   0  0  0  0  0  0  0  0  0  0  0  0
   -6.0718    0.2027   -0.1551 H   0  0  0  0  0  0  0  0  0  0  0  0
   -6.4348    2.6078    0.2483 H   0  0  0  0  0  0  0  0  0  0  0  0
   -5.5803    4.8451    0.8846 H   0  0  0  0  0  0  0  0  0  0  0  0
   -1.7002    3.1024    1.3850 H   0  0  0  0  0  0  0  0  0  0  0  0
    0.5517   -1.6336   -2.5487 H   0  0  0  0  0  0  0  0  0  0  0  0
    2.9006   -1.0270   -2.0548 H   0  0  0  0  0  0  0  0  0  0  0  0
    5.9680   -0.0861    1.5665 H   0  0  0  0  0  0  0  0  0  0  0  0
    5.0548    1.1744    2.4130 H   0  0  0  0  0  0  0  0  0  0  0  0
    6.8291    1.3492   -0.0924 H   0  0  0  0  0  0  0  0  0  0  0  0
    6.8569    2.2636    1.4247 H   0  0  0  0  0  0  0  0  0  0  0  0
  1  2  1  0
  2  3  1  0
  3  4  1  0
  4  5  1  0
  5  6  1  0
  6  7  1  0
  7  8  2  0
  8  9  1  0
  9 10  2  0
 10 11  1  0
 11 12  2  0
 11 13  1  0
 13 14  1  0
 14 15  2  0
 15 16  1  0
 16 17  2  0
 17 18  1  0
 17 19  1  0
 19 20  2  0
 20 21  1  0
 21 22  2  0
 21 23  1  0
 23 24  1  0
 24 25  2  0
 25 26  1  0
 26 27  2  0
 27 28  1  0
 27 29  1  0
 29 30  2  0
 10 31  1  0
 31 32  2  0
  5 33  1  0
 33 34  1  0
 34  2  1  0
 32  7  1  0
 20 14  1  0
 30 24  1  0
  1 35  1  0
  1 36  1  0
  1 37  1  0
  3 38  1  0
  3 39  1  0
  4 40  1  0
  4 41  1  0
  6 42  1  0
  6 43  1  0
  8 44  1  0
  9 45  1  0
 13 46  1  0
 15 47  1  0
 16 48  1  0
 19 49  1  0
 23 50  1  0
 25 51  1  0
 26 52  1  0
 29 53  1  0
 31 54  1  0
 32 55  1  0
 33 56  1  0
 33 57  1  0
 34 58  1  0
 34 59  1  0
M  END
$$$$
