@<TRIPOS>MOLECULE
*****
 59 62 0 0 0
SMALL
GASTEIGER

@<TRIPOS>ATOM
      1 C           6.1123    3.3008   -1.1400 C.3     1  UNL1       -0.0127
      2 N           5.4202    2.9067    0.0959 N.3     1  UNL1       -0.3029
      3 C           4.0427    2.6354   -0.1886 C.3     1  UNL1        0.0114
      4 C           3.7633    1.1695   -0.4104 C.3     1  UNL1        0.0120
      5 N           4.1531    0.3732    0.7035 N.3     1  UNL1       -0.2957
      6 C           4.0907   -1.0241    0.4142 C.3     1  UNL1        0.0241
      7 C           2.6978   -1.3743    0.0519 C.ar    1  UNL1       -0.0333
      8 C           1.8364   -1.7575    1.0424 C.ar    1  UNL1       -0.0566
      9 C           0.5280   -2.0921    0.7431 C.ar    1  UNL1       -0.0493
     10 C           0.0515   -2.0515   -0.5497 C.ar    1  UNL1        0.0370
     11 C          -1.3212   -2.3981   -0.8961 C.2     1  UNL1        0.2483
     12 O          -1.6915   -2.3396   -2.0942 O.2     1  UNL1       -0.2699
     13 N          -2.2674   -2.8036    0.0759 N.am    1  UNL1       -0.2808
     14 C          -3.6170   -3.1411   -0.2879 C.ar    1  UNL1        0.0459
     15 C          -3.9566   -4.4316   -0.6213 C.ar    1  UNL1       -0.0384
     16 C          -5.2747   -4.6907   -0.9624 C.ar    1  UNL1       -0.0416
     17 C          -6.2409   -3.7129   -0.9782 C.ar    1  UNL1        0.0418
     18 CL         -7.8960   -4.0638   -1.4117 Cl      1  UNL1       -0.0835
     19 C          -5.8335   -2.4216   -0.6297 C.ar    1  UNL1       -0.0295
     20 C          -4.5530   -2.1244   -0.2892 C.ar    1  UNL1        0.0596
     21 C          -4.1857   -0.7670    0.0638 C.2     1  UNL1        0.2511
     22 O          -2.9656   -0.5447    0.3759 O.2     1  UNL1       -0.2697
     23 N          -5.0729    0.3369    0.0908 N.am    1  UNL1       -0.2663
     24 C          -4.5655    1.6346    0.4625 C.ar    1  UNL1        0.1252
     25 C          -5.3910    2.7352    0.5026 C.ar    1  UNL1       -0.0201
     26 C          -4.9139    3.9952    0.8600 C.ar    1  UNL1       -0.0387
     27 C          -3.5685    4.0657    1.1690 C.ar    1  UNL1        0.0592
     28 CL         -2.9058    5.6257    1.6274 Cl      1  UNL1       -0.0820
     29 C          -2.7507    2.9576    1.1257 C.ar    1  UNL1        0.0480
     30 N          -3.2683    1.7851    0.7770 N.ar    1  UNL1       -0.2387
     31 C           0.9509   -1.6567   -1.5446 C.ar    1  UNL1       -0.0493
     32 C           2.2466   -1.3268   -1.2378 C.ar    1  UNL1       -0.0566
     33 C           5.3226    0.8087    1.3813 C.3     1  UNL1        0.0120
     34 C           6.1440    1.8210    0.6675 C.3     1  UNL1        0.0114
     35 H           6.4880    4.3307   -0.9535 H       1  UNL1        0.0391
     36 H           5.3644    3.3709   -1.9585 H       1  UNL1        0.0391
     37 H           6.9339    2.6094   -1.3755 H       1  UNL1        0.0391
     38 H           3.7693    3.1673   -1.1278 H       1  UNL1        0.0439
     39 H           3.3575    3.0302    0.5921 H       1  UNL1        0.0439
     40 H           4.2534    0.8297   -1.3609 H       1  UNL1        0.0439
     41 H           2.6710    1.0672   -0.5749 H       1  UNL1        0.0439
     42 H           4.3679   -1.6219    1.3193 H       1  UNL1        0.0476
     43 H           4.7690   -1.3401   -0.4032 H       1  UNL1        0.0476
     44 H           2.1260   -1.8175    2.0852 H       1  UNL1        0.0621
     45 H          -0.1422   -2.3973    1.5647 H       1  UNL1        0.0625
     46 H          -2.0363   -2.8763    1.0869 H       1  UNL1        0.1552
     47 H          -3.2335   -5.2187   -0.6206 H       1  UNL1        0.0637
     48 H          -5.5859   -5.6905   -1.2314 H       1  UNL1        0.0633
     49 H          -6.5969   -1.6707   -0.6465 H       1  UNL1        0.0640
     50 H          -6.0718    0.2027   -0.1551 H       1  UNL1        0.1566
     51 H          -6.4348    2.6078    0.2483 H       1  UNL1        0.0652
     52 H          -5.5803    4.8451    0.8846 H       1  UNL1        0.0634
     53 H          -1.7002    3.1024    1.3850 H       1  UNL1        0.0845
     54 H           0.5517   -1.6336   -2.5487 H       1  UNL1        0.0625
     55 H           2.9006   -1.0270   -2.0548 H       1  UNL1        0.0621
     56 H           5.9680   -0.0861    1.5665 H       1  UNL1        0.0439
     57 H           5.0548    1.1744    2.4130 H       1  UNL1        0.0439
     58 H           6.8291    1.3492   -0.0924 H       1  UNL1        0.0439
     59 H           6.8569    2.2636    1.4247 H       1  UNL1        0.0439
@<TRIPOS>BOND
     1     1     2    1
     2     2     3    1
     3     3     4    1
     4     4     5    1
     5     5     6    1
     6     6     7    1
     7     7     8   ar
     8     8     9   ar
     9     9    10   ar
    10    10    11    1
    11    11    12    2
    12    11    13   am
    13    13    14    1
    14    14    15   ar
    15    15    16   ar
    16    16    17   ar
    17    17    18    1
    18    17    19   ar
    19    19    20   ar
    20    20    21    1
    21    21    22    2
    22    21    23   am
    23    23    24    1
    24    24    25   ar
    25    25    26   ar
    26    26    27   ar
    27    27    28    1
    28    27    29   ar
    29    29    30   ar
    30    10    31   ar
    31    31    32   ar
    32     5    33    1
    33    33    34    1
    34    34     2    1
    35    32     7   ar
    36    20    14   ar
    37    30    24   ar
    38     1    35    1
    39     1    36    1
    40     1    37    1
    41     3    38    1
    42     3    39    1
    43     4    40    1
    44     4    41    1
    45     6    42    1
    46     6    43    1
    47     8    44    1
    48     9    45    1
    49    13    46    1
    50    15    47    1
    51    16    48    1
    52    19    49    1
    53    23    50    1
    54    25    51    1
    55    26    52    1
    56    29    53    1
    57    31    54    1
    58    32    55    1
    59    33    56    1
    60    33    57    1
    61    34    58    1
    62    34    59    1
