
     RDKit          3D

 41 44  0  0  0  0  0  0  0  0999 V2000
    5.3535    0.2101   -2.1494 O   0  0  0  0  0  0  0  0  0  0  0  0
    4.8928    0.6959   -1.0950 C   0  0  0  0  0  0  0  0  0  0  0  0
    5.6193    1.7476   -0.4883 N   0  0  0  0  0  0  0  0  0  0  0  0
    6.7869    2.2009   -1.0574 O   0  0  0  0  0  0  0  0  0  0  0  0
    3.6583    0.2135   -0.4974 C   0  0  0  0  0  0  0  0  0  0  0  0
    3.1346    0.7272    0.6537 C   0  0  0  0  0  0  0  0  0  0  0  0
    1.9445    0.2316    1.1917 C   0  0  0  0  0  0  0  0  0  0  0  0
    1.2505   -0.7904    0.5897 C   0  0  0  0  0  0  0  0  0  0  0  0
    0.0040   -1.3536    1.0941 C   0  0  0  0  0  0  0  0  0  0  0  0
   -1.2008   -0.7297    0.5581 N   0  0  0  0  0  0  0  0  0  0  0  0
   -1.8760   -1.0723   -0.5605 C   0  0  0  0  0  0  0  0  0  0  0  0
   -2.9251   -0.1914   -0.6180 C   0  0  0  0  0  0  0  0  0  0  0  0
   -2.9096    0.6797    0.4334 C   0  0  0  0  0  0  0  0  0  0  0  0
   -3.7042    1.7278    0.8453 C   0  0  0  0  0  0  0  0  0  0  0  0
   -3.4104    2.4342    1.9984 C   0  0  0  0  0  0  0  0  0  0  0  0
   -2.3050    2.0810    2.7438 C   0  0  0  0  0  0  0  0  0  0  0  0
   -1.5185    1.0301    2.3200 C   0  0  0  0  0  0  0  0  0  0  0  0
   -1.7871    0.3094    1.1761 C   0  0  0  0  0  0  0  0  0  0  0  0
   -3.8439   -0.6096   -2.0675 S   0  0  0  0  0  6  0  0  0  0  0  0
   -5.3012   -0.6412   -1.8165 O   0  0  0  0  0  0  0  0  0  0  0  0
   -3.4293    0.2576   -3.1975 O   0  0  0  0  0  0  0  0  0  0  0  0
   -3.1617   -2.2731   -2.2315 C   0  0  0  0  0  0  0  0  0  0  0  0
   -1.8079   -2.0381   -1.6481 C   0  0  0  0  0  0  0  0  0  0  0  0
    1.7963   -1.2956   -0.5721 C   0  0  0  0  0  0  0  0  0  0  0  0
    2.9640   -0.8221   -1.1160 C   0  0  0  0  0  0  0  0  0  0  0  0
    5.3376    2.2195    0.3746 H   0  0  0  0  0  0  0  0  0  0  0  0
    7.4769    1.4978   -0.9944 H   0  0  0  0  0  0  0  0  0  0  0  0
    3.6197    1.5301    1.1850 H   0  0  0  0  0  0  0  0  0  0  0  0
    1.5503    0.6573    2.1098 H   0  0  0  0  0  0  0  0  0  0  0  0
   -0.1027   -2.4530    0.8711 H   0  0  0  0  0  0  0  0  0  0  0  0
   -0.0097   -1.3101    2.2222 H   0  0  0  0  0  0  0  0  0  0  0  0
   -4.5780    2.0125    0.2628 H   0  0  0  0  0  0  0  0  0  0  0  0
   -4.0619    3.2513    2.2856 H   0  0  0  0  0  0  0  0  0  0  0  0
   -2.0588    2.6272    3.6554 H   0  0  0  0  0  0  0  0  0  0  0  0
   -0.6698    0.8002    2.9477 H   0  0  0  0  0  0  0  0  0  0  0  0
   -3.7925   -2.9750   -1.6927 H   0  0  0  0  0  0  0  0  0  0  0  0
   -3.0734   -2.4577   -3.3171 H   0  0  0  0  0  0  0  0  0  0  0  0
   -1.4558   -3.0254   -1.2654 H   0  0  0  0  0  0  0  0  0  0  0  0
   -1.0758   -1.7709   -2.4403 H   0  0  0  0  0  0  0  0  0  0  0  0
    1.2833   -2.1019   -1.0806 H   0  0  0  0  0  0  0  0  0  0  0  0
    3.3867   -1.2314   -2.0382 H   0  0  0  0  0  0  0  0  0  0  0  0
  1  2  2  0
  2  3  1  0
  3  4  1  0
  2  5  1  0
  5  6  2  0
  6  7  1  0
  7  8  2  0
  8  9  1  0
  9 10  1  0
 10 11  1  0
 11 12  2  0
 12 13  1  0
 13 14  2  0
 14 15  1  0
 15 16  2  0
 16 17  1  0
 17 18  2  0
 12 19  1  0
 19 20  2  0
 19 21  2  0
 19 22  1  0
 22 23  1  0
  8 24  1  0
 24 25  2  0
 25  5  1  0
 18 10  1  0
 23 11  1  0
 18 13  1  0
  3 26  1  0
  4 27  1  0
  6 28  1  0
  7 29  1  0
  9 30  1  0
  9 31  1  0
 14 32  1  0
 15 33  1  0
 16 34  1  0
 17 35  1  0
 22 36  1  0
 22 37  1  0
 23 38  1  0
 23 39  1  0
 24 40  1  0
 25 41  1  0
M  END
$$$$
