@<TRIPOS>MOLECULE
*****
 41 44 0 0 0
SMALL
GASTEIGER

@<TRIPOS>ATOM
      1 O           5.3535    0.2101   -2.1494 O.2     1  UNL1       -0.2681
      2 C           4.8928    0.6959   -1.0950 C.2     1  UNL1        0.2665
      3 N           5.6193    1.7476   -0.4883 N.am    1  UNL1       -0.1935
      4 O           6.7869    2.2009   -1.0574 O.3     1  UNL1       -0.2949
      5 C           3.6583    0.2135   -0.4974 C.ar    1  UNL1        0.0387
      6 C           3.1346    0.7272    0.6537 C.ar    1  UNL1       -0.0493
      7 C           1.9445    0.2316    1.1917 C.ar    1  UNL1       -0.0562
      8 C           1.2505   -0.7904    0.5897 C.ar    1  UNL1       -0.0277
      9 C           0.0040   -1.3536    1.0941 C.3     1  UNL1        0.0486
     10 N          -1.2008   -0.7297    0.5581 N.ar    1  UNL1       -0.3376
     11 C          -1.8760   -1.0723   -0.5605 C.ar    1  UNL1        0.0465
     12 C          -2.9251   -0.1914   -0.6180 C.ar    1  UNL1        0.1166
     13 C          -2.9096    0.6797    0.4334 C.ar    1  UNL1        0.0250
     14 C          -3.7042    1.7278    0.8453 C.ar    1  UNL1       -0.0507
     15 C          -3.4104    2.4342    1.9984 C.ar    1  UNL1       -0.0610
     16 C          -2.3050    2.0810    2.7438 C.ar    1  UNL1       -0.0598
     17 C          -1.5185    1.0301    2.3200 C.ar    1  UNL1       -0.0375
     18 C          -1.7871    0.3094    1.1761 C.ar    1  UNL1        0.0514
     19 S          -3.8439   -0.6096   -2.0675 S.O2    1  UNL1       -0.0005
     20 O          -5.3012   -0.6412   -1.8165 O.2     1  UNL1       -0.1693
     21 O          -3.4293    0.2576   -3.1975 O.2     1  UNL1       -0.1693
     22 C          -3.1617   -2.2731   -2.2315 C.3     1  UNL1        0.0763
     23 C          -1.8079   -2.0381   -1.6481 C.3     1  UNL1        0.0094
     24 C           1.7963   -1.2956   -0.5721 C.ar    1  UNL1       -0.0562
     25 C           2.9640   -0.8221   -1.1160 C.ar    1  UNL1       -0.0493
     26 H           5.3376    2.2195    0.3746 H       1  UNL1        0.1825
     27 H           7.4769    1.4978   -0.9944 H       1  UNL1        0.2414
     28 H           3.6197    1.5301    1.1850 H       1  UNL1        0.0625
     29 H           1.5503    0.6573    2.1098 H       1  UNL1        0.0621
     30 H          -0.1027   -2.4530    0.8711 H       1  UNL1        0.0541
     31 H          -0.0097   -1.3101    2.2222 H       1  UNL1        0.0541
     32 H          -4.5780    2.0125    0.2628 H       1  UNL1        0.0625
     33 H          -4.0619    3.2513    2.2856 H       1  UNL1        0.0618
     34 H          -2.0588    2.6272    3.6554 H       1  UNL1        0.0618
     35 H          -0.6698    0.8002    2.9477 H       1  UNL1        0.0638
     36 H          -3.7925   -2.9750   -1.6927 H       1  UNL1        0.0508
     37 H          -3.0734   -2.4577   -3.3171 H       1  UNL1        0.0508
     38 H          -1.4558   -3.0254   -1.2654 H       1  UNL1        0.0344
     39 H          -1.0758   -1.7709   -2.4403 H       1  UNL1        0.0344
     40 H           1.2833   -2.1019   -1.0806 H       1  UNL1        0.0621
     41 H           3.3867   -1.2314   -2.0382 H       1  UNL1        0.0625
@<TRIPOS>BOND
     1     1     2    2
     2     2     3   am
     3     3     4    1
     4     2     5    1
     5     5     6   ar
     6     6     7   ar
     7     7     8   ar
     8     8     9    1
     9     9    10    1
    10    10    11   ar
    11    11    12   ar
    12    12    13   ar
    13    13    14   ar
    14    14    15   ar
    15    15    16   ar
    16    16    17   ar
    17    17    18   ar
    18    12    19    1
    19    19    20    2
    20    19    21    2
    21    19    22    1
    22    22    23    1
    23     8    24   ar
    24    24    25   ar
    25    25     5   ar
    26    18    10   ar
    27    23    11    1
    28    18    13   ar
    29     3    26    1
    30     4    27    1
    31     6    28    1
    32     7    29    1
    33     9    30    1
    34     9    31    1
    35    14    32    1
    36    15    33    1
    37    16    34    1
    38    17    35    1
    39    22    36    1
    40    22    37    1
    41    23    38    1
    42    23    39    1
    43    24    40    1
    44    25    41    1
