
     RDKit          3D

 45 47  0  0  0  0  0  0  0  0999 V2000
    5.5672    1.6425   -0.7990 C   0  0  0  0  0  0  0  0  0  0  0  0
    5.0708    0.8725    0.2772 O   0  0  0  0  0  0  0  0  0  0  0  0
    3.7655    0.3885    0.2147 C   0  0  0  0  0  0  0  0  0  0  0  0
    2.9656    0.6527   -0.8765 C   0  0  0  0  0  0  0  0  0  0  0  0
    1.6779    0.1573   -0.9045 C   0  0  0  0  0  0  0  0  0  0  0  0
    1.2176   -0.5881    0.1523 C   0  0  0  0  0  0  0  0  0  0  0  0
   -0.1699   -1.1206    0.1225 C   0  0  0  0  0  0  0  0  0  0  0  0
   -1.1483   -0.1783    0.7058 C   0  0  0  0  0  0  0  0  0  0  0  0
   -2.1312    0.0444   -0.3761 C   0  0  0  0  0  0  0  0  0  0  0  0
   -3.3459    0.8856   -0.2507 C   0  0  0  0  0  0  0  0  0  0  0  0
   -4.1821    1.0066   -1.3483 C   0  0  0  0  0  0  0  0  0  0  0  0
   -5.3124    1.7850   -1.2431 C   0  0  0  0  0  0  0  0  0  0  0  0
   -5.6177    2.4372   -0.0727 C   0  0  0  0  0  0  0  0  0  0  0  0
   -6.7649    3.2273    0.0344 O   0  0  0  0  0  0  0  0  0  0  0  0
   -4.7603    2.2927    0.9999 C   0  0  0  0  0  0  0  0  0  0  0  0
   -3.6141    1.5202    0.9365 C   0  0  0  0  0  0  0  0  0  0  0  0
   -1.7730   -0.5882   -1.4070 N   0  0  0  0  0  0  0  0  0  0  0  0
   -0.5877   -1.2992   -1.2449 N   0  0  0  0  0  0  0  0  0  0  0  0
    0.0830   -2.0602   -2.2449 C   0  0  0  0  0  0  0  0  0  0  0  0
    1.3316   -2.7528   -1.8947 C   0  0  0  0  0  0  0  0  0  0  0  0
   -0.3776   -2.1412   -3.4013 O   0  0  0  0  0  0  0  0  0  0  0  0
    1.9818   -0.8774    1.2638 C   0  0  0  0  0  0  0  0  0  0  0  0
    1.4612   -1.6287    2.2867 O   0  0  0  0  0  0  0  0  0  0  0  0
    2.1197   -1.9907    3.4562 C   0  0  0  0  0  0  0  0  0  0  0  0
    3.2686   -0.3732    1.2747 C   0  0  0  0  0  0  0  0  0  0  0  0
    5.4479    0.9971   -1.7140 H   0  0  0  0  0  0  0  0  0  0  0  0
    4.9320    2.5386   -0.9973 H   0  0  0  0  0  0  0  0  0  0  0  0
    6.6284    1.8735   -0.6740 H   0  0  0  0  0  0  0  0  0  0  0  0
    3.3852    1.2458   -1.6777 H   0  0  0  0  0  0  0  0  0  0  0  0
    1.0653    0.3819   -1.7818 H   0  0  0  0  0  0  0  0  0  0  0  0
   -0.2215   -2.0740    0.6939 H   0  0  0  0  0  0  0  0  0  0  0  0
   -1.6600   -0.6019    1.6102 H   0  0  0  0  0  0  0  0  0  0  0  0
   -0.7151    0.8248    0.9327 H   0  0  0  0  0  0  0  0  0  0  0  0
   -3.9416    0.4901   -2.2773 H   0  0  0  0  0  0  0  0  0  0  0  0
   -5.9734    1.8835   -2.1032 H   0  0  0  0  0  0  0  0  0  0  0  0
   -7.5071    2.8672    0.6236 H   0  0  0  0  0  0  0  0  0  0  0  0
   -5.0089    2.8128    1.9244 H   0  0  0  0  0  0  0  0  0  0  0  0
   -2.9378    1.4026    1.7731 H   0  0  0  0  0  0  0  0  0  0  0  0
    1.2578   -3.7910   -2.3307 H   0  0  0  0  0  0  0  0  0  0  0  0
    2.2385   -2.2962   -2.3378 H   0  0  0  0  0  0  0  0  0  0  0  0
    1.4032   -2.8519   -0.8002 H   0  0  0  0  0  0  0  0  0  0  0  0
    1.4449   -2.1309    4.3244 H   0  0  0  0  0  0  0  0  0  0  0  0
    2.9396   -1.3097    3.7481 H   0  0  0  0  0  0  0  0  0  0  0  0
    2.5725   -3.0098    3.2774 H   0  0  0  0  0  0  0  0  0  0  0  0
    3.9245   -0.5663    2.1250 H   0  0  0  0  0  0  0  0  0  0  0  0
  1  2  1  0
  2  3  1  0
  3  4  2  0
  4  5  1  0
  5  6  2  0
  6  7  1  0
  7  8  1  0
  8  9  1  0
  9 10  1  0
 10 11  2  0
 11 12  1  0
 12 13  2  0
 13 14  1  0
 13 15  1  0
 15 16  2  0
  9 17  2  0
 17 18  1  0
 18 19  1  0
 19 20  1  0
 19 21  2  0
  6 22  1  0
 22 23  1  0
 23 24  1  0
 22 25  2  0
 25  3  1  0
 18  7  1  0
 16 10  1  0
  1 26  1  0
  1 27  1  0
  1 28  1  0
  4 29  1  0
  5 30  1  0
  7 31  1  0
  8 32  1  0
  8 33  1  0
 11 34  1  0
 12 35  1  0
 14 36  1  0
 15 37  1  0
 16 38  1  0
 20 39  1  0
 20 40  1  0
 20 41  1  0
 24 42  1  0
 24 43  1  0
 24 44  1  0
 25 45  1  0
M  END
$$$$
