@<TRIPOS>MOLECULE
*****
 45 47 0 0 0
SMALL
GASTEIGER

@<TRIPOS>ATOM
      1 C           5.5672    1.6425   -0.7990 C.3     1  UNL1        0.0788
      2 O           5.0708    0.8725    0.2772 O.3     1  UNL1       -0.4950
      3 C           3.7655    0.3885    0.2147 C.ar    1  UNL1        0.1236
      4 C           2.9656    0.6527   -0.8765 C.ar    1  UNL1       -0.0194
      5 C           1.6779    0.1573   -0.9045 C.ar    1  UNL1       -0.0498
      6 C           1.2176   -0.5881    0.1523 C.ar    1  UNL1        0.0172
      7 C          -0.1699   -1.1206    0.1225 C.3     1  UNL1        0.0828
      8 C          -1.1483   -0.1783    0.7058 C.3     1  UNL1        0.0165
      9 C          -2.1312    0.0444   -0.3761 C.2     1  UNL1        0.0688
     10 C          -3.3459    0.8856   -0.2507 C.ar    1  UNL1       -0.0020
     11 C          -4.1821    1.0066   -1.3483 C.ar    1  UNL1       -0.0494
     12 C          -5.3124    1.7850   -1.2431 C.ar    1  UNL1       -0.0196
     13 C          -5.6177    2.4372   -0.0727 C.ar    1  UNL1        0.1169
     14 O          -6.7649    3.2273    0.0344 O.3     1  UNL1       -0.5068
     15 C          -4.7603    2.2927    0.9999 C.ar    1  UNL1       -0.0196
     16 C          -3.6141    1.5202    0.9365 C.ar    1  UNL1       -0.0494
     17 N          -1.7730   -0.5882   -1.4070 N.2     1  UNL1       -0.1809
     18 N          -0.5877   -1.2992   -1.2449 N.am    1  UNL1       -0.1852
     19 C           0.0830   -2.0602   -2.2449 C.2     1  UNL1        0.2322
     20 C           1.3316   -2.7528   -1.8947 C.3     1  UNL1        0.0140
     21 O          -0.3776   -2.1412   -3.4013 O.2     1  UNL1       -0.2741
     22 C           1.9818   -0.8774    1.2638 C.ar    1  UNL1        0.1286
     23 O           1.4612   -1.6287    2.2867 O.3     1  UNL1       -0.4947
     24 C           2.1197   -1.9907    3.4562 C.3     1  UNL1        0.0788
     25 C           3.2686   -0.3732    1.2747 C.ar    1  UNL1        0.0221
     26 H           5.4479    0.9971   -1.7140 H       1  UNL1        0.0660
     27 H           4.9320    2.5386   -0.9973 H       1  UNL1        0.0660
     28 H           6.6284    1.8735   -0.6740 H       1  UNL1        0.0660
     29 H           3.3852    1.2458   -1.6777 H       1  UNL1        0.0654
     30 H           1.0653    0.3819   -1.7818 H       1  UNL1        0.0623
     31 H          -0.2215   -2.0740    0.6939 H       1  UNL1        0.0576
     32 H          -1.6600   -0.6019    1.6102 H       1  UNL1        0.0351
     33 H          -0.7151    0.8248    0.9327 H       1  UNL1        0.0351
     34 H          -3.9416    0.4901   -2.2773 H       1  UNL1        0.0625
     35 H          -5.9734    1.8835   -2.1032 H       1  UNL1        0.0654
     36 H          -7.5071    2.8672    0.6236 H       1  UNL1        0.2921
     37 H          -5.0089    2.8128    1.9244 H       1  UNL1        0.0654
     38 H          -2.9378    1.4026    1.7731 H       1  UNL1        0.0625
     39 H           1.2578   -3.7910   -2.3307 H       1  UNL1        0.0323
     40 H           2.2385   -2.2962   -2.3378 H       1  UNL1        0.0323
     41 H           1.4032   -2.8519   -0.8002 H       1  UNL1        0.0323
     42 H           1.4449   -2.1309    4.3244 H       1  UNL1        0.0660
     43 H           2.9396   -1.3097    3.7481 H       1  UNL1        0.0660
     44 H           2.5725   -3.0098    3.2774 H       1  UNL1        0.0660
     45 H           3.9245   -0.5663    2.1250 H       1  UNL1        0.0691
@<TRIPOS>BOND
     1     1     2    1
     2     2     3    1
     3     3     4   ar
     4     4     5   ar
     5     5     6   ar
     6     6     7    1
     7     7     8    1
     8     8     9    1
     9     9    10    1
    10    10    11   ar
    11    11    12   ar
    12    12    13   ar
    13    13    14    1
    14    13    15   ar
    15    15    16   ar
    16     9    17    2
    17    17    18    1
    18    18    19   am
    19    19    20    1
    20    19    21    2
    21     6    22   ar
    22    22    23    1
    23    23    24    1
    24    22    25   ar
    25    25     3   ar
    26    18     7    1
    27    16    10   ar
    28     1    26    1
    29     1    27    1
    30     1    28    1
    31     4    29    1
    32     5    30    1
    33     7    31    1
    34     8    32    1
    35     8    33    1
    36    11    34    1
    37    12    35    1
    38    14    36    1
    39    15    37    1
    40    16    38    1
    41    20    39    1
    42    20    40    1
    43    20    41    1
    44    24    42    1
    45    24    43    1
    46    24    44    1
    47    25    45    1
