@<TRIPOS>MOLECULE
*****
 60 65 0 0 0
SMALL
GASTEIGER

@<TRIPOS>ATOM
      1 C           7.3112   -2.7072   -1.3753 C.3     1  UNL1        0.0124
      2 C           5.9435   -3.0348   -0.8809 C.2     1  UNL1        0.2125
      3 O           5.7263   -4.2804   -0.6919 O.2     1  UNL1       -0.2759
      4 N           4.9561   -2.0753   -0.6346 N.am    1  UNL1       -0.3004
      5 C           4.8033   -0.6437   -0.7153 C.3     1  UNL1        0.0230
      6 C           3.9565   -0.7829    0.5463 C.3     1  UNL1        0.0178
      7 C           2.9054    0.2017    0.7090 C.ar    1  UNL1       -0.0114
      8 C           3.0902    1.5708    0.9454 C.ar    1  UNL1        0.0089
      9 N           1.9361    2.1814    1.0141 N.ar    1  UNL1       -0.3508
     10 C           1.6729    3.5779    1.2420 C.3     1  UNL1        0.0117
     11 C           0.9499    1.2565    0.8285 C.ar    1  UNL1        0.0565
     12 C           1.5411    0.0350    0.6424 C.ar    1  UNL1        0.0636
     13 C           0.4601   -0.9423    0.4929 C.2     1  UNL1        0.2538
     14 O           0.6964   -2.1618    0.3049 O.2     1  UNL1       -0.2695
     15 N          -0.7785   -0.2645    0.6001 N.am    1  UNL1       -0.2530
     16 C          -2.0751   -0.8935    0.5779 C.ar    1  UNL1        0.0545
     17 C          -2.2347   -2.2320    0.3663 C.ar    1  UNL1       -0.0324
     18 C          -3.5400   -2.7484    0.3771 C.ar    1  UNL1       -0.0041
     19 C          -3.7420   -4.2011    0.1497 C.3     1  UNL1       -0.0361
     20 C          -4.6112   -1.9198    0.5950 C.ar    1  UNL1        0.1641
     21 N          -5.9605   -2.1264    0.6606 N.ar    1  UNL1       -0.1292
     22 N          -6.5695   -0.9765    0.8978 N.ar    1  UNL1       -0.1340
     23 C          -5.5987   -0.0317    0.9836 C.ar    1  UNL1        0.1347
     24 C          -5.8100    1.4078    1.2396 C.3     1  UNL1       -0.0041
     25 N          -4.4117   -0.6235    0.7967 N.ar    1  UNL1       -0.2846
     26 C          -3.1778   -0.1095    0.7910 C.ar    1  UNL1        0.0344
     27 C          -0.5202    1.1163    0.7270 C.3     1  UNL1        0.0972
     28 C          -1.0651    1.9587   -0.3643 C.ar    1  UNL1       -0.0208
     29 C          -1.6053    3.1869   -0.0516 C.ar    1  UNL1       -0.0550
     30 C          -2.1302    4.0256   -1.0056 C.ar    1  UNL1       -0.0431
     31 C          -2.1205    3.6333   -2.3249 C.ar    1  UNL1        0.0410
     32 CL         -2.7580    4.6122   -3.6250 Cl      1  UNL1       -0.0835
     33 C          -1.5822    2.4059   -2.6489 C.ar    1  UNL1       -0.0431
     34 C          -1.0589    1.5743   -1.6815 C.ar    1  UNL1       -0.0550
     35 C           3.5769   -2.0871   -0.1656 C.3     1  UNL1        0.0230
     36 H           8.0255   -2.5904   -0.5303 H       1  UNL1        0.0323
     37 H           7.6815   -3.5045   -2.0222 H       1  UNL1        0.0323
     38 H           7.2914   -1.7689   -1.9838 H       1  UNL1        0.0323
     39 H           5.7092   -0.0516   -0.6018 H       1  UNL1        0.0471
     40 H           4.2079   -0.3768   -1.6050 H       1  UNL1        0.0471
     41 H           4.5951   -1.0249    1.4008 H       1  UNL1        0.0380
     42 H           4.0625    2.0249    1.0508 H       1  UNL1        0.0812
     43 H           2.5996    4.1727    1.3699 H       1  UNL1        0.0456
     44 H           1.0032    3.6472    2.1193 H       1  UNL1        0.0456
     45 H           1.1256    4.0550    0.3934 H       1  UNL1        0.0456
     46 H          -1.4066   -2.9113    0.1902 H       1  UNL1        0.0640
     47 H          -3.2882   -4.7578    0.9823 H       1  UNL1        0.0279
     48 H          -4.8116   -4.4191    0.1287 H       1  UNL1        0.0279
     49 H          -3.2382   -4.4646   -0.7979 H       1  UNL1        0.0279
     50 H          -6.5071    1.5087    2.0963 H       1  UNL1        0.0308
     51 H          -4.8634    1.8887    1.5025 H       1  UNL1        0.0308
     52 H          -6.1986    1.8790    0.3186 H       1  UNL1        0.0308
     53 H          -3.0333    0.9776    0.9697 H       1  UNL1        0.0833
     54 H          -0.9978    1.4558    1.6902 H       1  UNL1        0.0619
     55 H          -1.6212    3.5128    0.9858 H       1  UNL1        0.0621
     56 H          -2.5613    5.0036   -0.7638 H       1  UNL1        0.0632
     57 H          -1.5688    2.0836   -3.6921 H       1  UNL1        0.0632
     58 H          -0.6305    0.6068   -1.9062 H       1  UNL1        0.0621
     59 H           3.3043   -2.9211    0.4720 H       1  UNL1        0.0471
     60 H           2.9451   -1.9270   -1.0894 H       1  UNL1        0.0471
@<TRIPOS>BOND
     1     1     2    1
     2     2     3    2
     3     2     4   am
     4     4     5    1
     5     5     6    1
     6     6     7    1
     7     7     8   ar
     8     8     9   ar
     9     9    10    1
    10     9    11   ar
    11    11    12   ar
    12    12    13    1
    13    13    14    2
    14    13    15   am
    15    15    16    1
    16    16    17   ar
    17    17    18   ar
    18    18    19    1
    19    18    20   ar
    20    20    21   ar
    21    21    22   ar
    22    22    23   ar
    23    23    24    1
    24    23    25   ar
    25    25    26   ar
    26    15    27    1
    27    27    28    1
    28    28    29   ar
    29    29    30   ar
    30    30    31   ar
    31    31    32    1
    32    31    33   ar
    33    33    34   ar
    34     6    35    1
    35    35     4    1
    36    12     7   ar
    37    26    16   ar
    38    34    28   ar
    39    27    11    1
    40    25    20   ar
    41     1    36    1
    42     1    37    1
    43     1    38    1
    44     5    39    1
    45     5    40    1
    46     6    41    1
    47     8    42    1
    48    10    43    1
    49    10    44    1
    50    10    45    1
    51    17    46    1
    52    19    47    1
    53    19    48    1
    54    19    49    1
    55    24    50    1
    56    24    51    1
    57    24    52    1
    58    26    53    1
    59    27    54    1
    60    29    55    1
    61    30    56    1
    62    33    57    1
    63    34    58    1
    64    35    59    1
    65    35    60    1
