@<TRIPOS>MOLECULE
*****
 53 56 0 0 0
SMALL
GASTEIGER

@<TRIPOS>ATOM
      1 C          -8.3056    0.0440   -0.4638 C.3     1  UNL1        0.0596
      2 S          -7.1696    1.3969   -0.4107 S.O2    1  UNL1       -0.0059
      3 O          -7.6606    2.4685    0.5385 O.2     1  UNL1       -0.1696
      4 O          -7.0140    1.9572   -1.7958 O.2     1  UNL1       -0.1696
      5 C          -5.6167    0.8011    0.1172 C.ar    1  UNL1        0.0883
      6 C          -5.2986    0.7697    1.4582 C.ar    1  UNL1       -0.0334
      7 C          -4.0579    0.2899    1.8248 C.ar    1  UNL1       -0.0178
      8 C          -3.1408   -0.1521    0.9117 C.ar    1  UNL1        0.1246
      9 C          -3.5078   -0.1009   -0.4308 C.ar    1  UNL1       -0.0038
     10 C          -4.7249    0.3658   -0.8451 C.ar    1  UNL1       -0.0302
     11 C          -2.4701   -0.5924   -1.3843 C.3     1  UNL1       -0.0206
     12 C          -1.1804    0.1112   -0.9742 C.3     1  UNL1       -0.0087
     13 C          -0.7325   -0.3904    0.3801 C.3     1  UNL1        0.1138
     14 C           0.0780    0.6505    1.1205 C.3     1  UNL1        0.0030
     15 C           1.2653   -0.0536    1.7463 C.3     1  UNL1        0.0183
     16 N           2.1005   -0.5113    0.6518 N.am    1  UNL1       -0.3009
     17 C           3.4734   -0.1775    0.5470 C.2     1  UNL1        0.2199
     18 O           4.0308    0.5375    1.4106 O.2     1  UNL1       -0.2752
     19 C           4.2869   -0.6670   -0.5908 C.3     1  UNL1        0.0507
     20 C           5.6869   -0.2029   -0.5109 C.ar    1  UNL1       -0.0202
     21 C           6.7099   -1.0426   -0.1158 C.ar    1  UNL1       -0.0554
     22 C           8.0259   -0.6280   -0.0359 C.ar    1  UNL1       -0.0430
     23 C           8.3183    0.6700   -0.3637 C.ar    1  UNL1        0.0424
     24 CL          9.9763    1.2444   -0.2790 Cl      1  UNL1       -0.0835
     25 C           7.2944    1.5270   -0.7639 C.ar    1  UNL1       -0.0248
     26 C           5.9809    1.1118   -0.8433 C.ar    1  UNL1        0.0460
     27 CL          4.7150    2.2267   -1.3541 Cl      1  UNL1       -0.0832
     28 C           1.4436   -1.3377   -0.3414 C.3     1  UNL1        0.0183
     29 C           0.0525   -1.6535    0.1635 C.3     1  UNL1        0.0030
     30 O          -1.8926   -0.6420    1.1920 O.3     1  UNL1       -0.4853
     31 H          -9.3599    0.3855   -0.5517 H       1  UNL1        0.0468
     32 H          -8.1616   -0.5789    0.4406 H       1  UNL1        0.0468
     33 H          -8.0527   -0.5971   -1.3386 H       1  UNL1        0.0468
     34 H          -6.0330    1.1224    2.1668 H       1  UNL1        0.0638
     35 H          -3.7960    0.2598    2.8734 H       1  UNL1        0.0655
     36 H          -4.9809    0.3934   -1.8898 H       1  UNL1        0.0640
     37 H          -2.7199   -0.3988   -2.4250 H       1  UNL1        0.0316
     38 H          -2.3138   -1.6722   -1.1389 H       1  UNL1        0.0316
     39 H          -1.4713    1.1943   -0.8460 H       1  UNL1        0.0307
     40 H          -0.4395   -0.0223   -1.7562 H       1  UNL1        0.0307
     41 H           0.3978    1.4778    0.4533 H       1  UNL1        0.0319
     42 H          -0.5138    1.1126    1.9353 H       1  UNL1        0.0319
     43 H           1.8270    0.6100    2.4330 H       1  UNL1        0.0466
     44 H           0.8882   -0.8921    2.3326 H       1  UNL1        0.0466
     45 H           4.2240   -1.7821   -0.6584 H       1  UNL1        0.0407
     46 H           3.8668   -0.2845   -1.5474 H       1  UNL1        0.0407
     47 H           6.4747   -2.0833    0.1469 H       1  UNL1        0.0621
     48 H           8.8366   -1.2841    0.2748 H       1  UNL1        0.0632
     49 H           7.5414    2.5576   -1.0217 H       1  UNL1        0.0647
     50 H           1.4028   -0.7246   -1.2697 H       1  UNL1        0.0466
     51 H           2.0195   -2.2616   -0.5589 H       1  UNL1        0.0466
     52 H           0.1224   -2.2875    1.0574 H       1  UNL1        0.0319
     53 H          -0.4255   -2.2646   -0.6584 H       1  UNL1        0.0319
@<TRIPOS>BOND
     1     1     2    1
     2     2     3    2
     3     2     4    2
     4     2     5    1
     5     5     6   ar
     6     6     7   ar
     7     7     8   ar
     8     8     9   ar
     9     9    10   ar
    10     9    11    1
    11    11    12    1
    12    12    13    1
    13    13    14    1
    14    14    15    1
    15    15    16    1
    16    16    17   am
    17    17    18    2
    18    17    19    1
    19    19    20    1
    20    20    21   ar
    21    21    22   ar
    22    22    23   ar
    23    23    24    1
    24    23    25   ar
    25    25    26   ar
    26    26    27    1
    27    16    28    1
    28    28    29    1
    29    13    30    1
    30    10     5   ar
    31    29    13    1
    32    30     8    1
    33    26    20   ar
    34     1    31    1
    35     1    32    1
    36     1    33    1
    37     6    34    1
    38     7    35    1
    39    10    36    1
    40    11    37    1
    41    11    38    1
    42    12    39    1
    43    12    40    1
    44    14    41    1
    45    14    42    1
    46    15    43    1
    47    15    44    1
    48    19    45    1
    49    19    46    1
    50    21    47    1
    51    22    48    1
    52    25    49    1
    53    28    50    1
    54    28    51    1
    55    29    52    1
    56    29    53    1
