
     RDKit          3D

 72 76  0  0  0  0  0  0  0  0999 V2000
   -6.8692    1.4026    2.3299 C   0  0  0  0  0  0  0  0  0  0  0  0
   -6.8170    0.7512    0.9934 C   0  0  0  0  0  0  0  0  0  0  0  0
   -7.9879    0.5250    0.3870 N   0  0  0  0  0  0  0  0  0  0  0  0
   -8.0404   -0.0470   -0.7969 C   0  0  0  0  0  0  0  0  0  0  0  0
   -9.3165   -0.2612   -1.3903 N   0  0  0  0  0  0  0  0  0  0  0  0
   -6.8635   -0.4156   -1.4153 C   0  0  0  0  0  0  0  0  0  0  0  0
   -5.5905   -0.2234   -0.8679 C   0  0  0  0  0  0  0  0  0  0  0  0
   -5.6133    0.3940    0.4021 C   0  0  0  0  0  0  0  0  0  0  0  0
   -4.4180    0.6773    1.1809 C   0  0  0  0  0  0  0  0  0  0  0  0
   -3.3172    1.2058    0.3262 N   0  0  0  0  0  0  0  0  0  0  0  0
   -2.0442    1.3052    0.8816 C   0  0  0  0  0  0  0  0  0  0  0  0
   -2.1907    0.8989    2.1329 O   0  0  0  0  0  0  0  0  0  0  0  0
   -0.6908    1.7021    0.4730 C   0  0  0  0  0  0  0  0  0  0  0  0
    0.2234    2.2790    1.3943 C   0  0  0  0  0  0  0  0  0  0  0  0
    1.3510    2.4213    0.7413 N   0  0  0  0  0  0  0  0  0  0  0  0
    1.2191    1.9736   -0.5400 N   0  0  0  0  0  0  0  0  0  0  0  0
   -0.0108    1.5394   -0.7227 C   0  0  0  0  0  0  0  0  0  0  0  0
    2.4175    2.0029   -1.4124 C   0  0  0  0  0  0  0  0  0  0  0  0
    3.5919    1.5102   -0.6014 C   0  0  0  0  0  0  0  0  0  0  0  0
    4.5803    2.3723   -0.3089 C   0  0  0  0  0  0  0  0  0  0  0  0
    5.6764    2.0213    0.4808 C   0  0  0  0  0  0  0  0  0  0  0  0
    5.7401    0.7449    0.9747 C   0  0  0  0  0  0  0  0  0  0  0  0
    6.8739    0.2829    1.8283 C   0  0  0  0  0  0  0  0  0  0  0  0
    7.9341   -0.2700    1.0096 N   0  0  0  0  0  0  0  0  0  0  0  0
    8.0759   -1.5467    0.6256 C   0  0  0  0  0  0  0  0  0  0  0  0
    9.2189   -1.6194   -0.1376 C   0  0  0  0  0  0  0  0  0  0  0  0
    9.7510   -0.3402   -0.1933 C   0  0  0  0  0  0  0  0  0  0  0  0
    8.9263    0.4549    0.5269 N   0  0  0  0  0  0  0  0  0  0  0  0
    4.7099   -0.1333    0.6616 C   0  0  0  0  0  0  0  0  0  0  0  0
    3.6116    0.1706   -0.1153 C   0  0  0  0  0  0  0  0  0  0  0  0
    2.5923   -0.6254   -0.4564 O   0  0  0  0  0  0  0  0  0  0  0  0
    2.1795   -1.7139   -1.1257 C   0  0  0  0  0  0  0  0  0  0  0  0
    0.6499   -1.8795   -1.0260 C   0  0  0  0  0  0  0  0  0  0  0  0
    0.2646   -1.8879    0.4093 C   0  0  0  0  0  0  0  0  0  0  0  0
   -1.1546   -1.9467    0.7562 C   0  0  0  0  0  0  0  0  0  0  0  0
   -2.2569   -2.0183    0.0772 C   0  0  0  0  0  0  0  0  0  0  0  0
   -2.5564   -2.0779   -1.3407 C   0  0  0  0  0  0  0  0  0  0  0  0
   -3.3342   -0.9401   -1.9316 C   0  0  0  0  0  0  0  0  0  0  0  0
   -4.5388   -0.6032   -1.5315 O   0  0  0  0  0  0  0  0  0  0  0  0
   -6.7345    2.4961    2.2461 H   0  0  0  0  0  0  0  0  0  0  0  0
   -7.8762    1.2272    2.7538 H   0  0  0  0  0  0  0  0  0  0  0  0
   -6.1655    0.9427    3.0493 H   0  0  0  0  0  0  0  0  0  0  0  0
   -9.9669   -0.9064   -0.8986 H   0  0  0  0  0  0  0  0  0  0  0  0
   -9.6498    0.1739   -2.2728 H   0  0  0  0  0  0  0  0  0  0  0  0
   -7.0447   -0.8796   -2.3939 H   0  0  0  0  0  0  0  0  0  0  0  0
   -4.6054    1.5317    1.9014 H   0  0  0  0  0  0  0  0  0  0  0  0
   -4.0945   -0.1443    1.8128 H   0  0  0  0  0  0  0  0  0  0  0  0
   -3.6790    1.4551   -0.5859 H   0  0  0  0  0  0  0  0  0  0  0  0
    0.0243    2.5552    2.4483 H   0  0  0  0  0  0  0  0  0  0  0  0
   -0.4729    1.1237   -1.7046 H   0  0  0  0  0  0  0  0  0  0  0  0
    2.6766    3.0627   -1.6470 H   0  0  0  0  0  0  0  0  0  0  0  0
    2.4096    1.4418   -2.3123 H   0  0  0  0  0  0  0  0  0  0  0  0
    4.6017    3.4070   -0.6643 H   0  0  0  0  0  0  0  0  0  0  0  0
    6.4714    2.7014    0.7192 H   0  0  0  0  0  0  0  0  0  0  0  0
    7.2818    1.0929    2.4424 H   0  0  0  0  0  0  0  0  0  0  0  0
    6.4556   -0.4719    2.5337 H   0  0  0  0  0  0  0  0  0  0  0  0
    7.4489   -2.3917    0.8424 H   0  0  0  0  0  0  0  0  0  0  0  0
    9.6123   -2.5127   -0.5985 H   0  0  0  0  0  0  0  0  0  0  0  0
   10.6510   -0.0581   -0.7168 H   0  0  0  0  0  0  0  0  0  0  0  0
    4.8616   -1.1336    1.1329 H   0  0  0  0  0  0  0  0  0  0  0  0
    2.4922   -1.7949   -2.1939 H   0  0  0  0  0  0  0  0  0  0  0  0
    2.5565   -2.6709   -0.6726 H   0  0  0  0  0  0  0  0  0  0  0  0
    0.4564   -2.9322   -1.4050 H   0  0  0  0  0  0  0  0  0  0  0  0
    0.2076   -1.1021   -1.6202 H   0  0  0  0  0  0  0  0  0  0  0  0
    0.7712   -0.9987    0.9310 H   0  0  0  0  0  0  0  0  0  0  0  0
    0.8208   -2.7511    0.9249 H   0  0  0  0  0  0  0  0  0  0  0  0
   -1.3251   -1.9236    1.8930 H   0  0  0  0  0  0  0  0  0  0  0  0
   -3.2056   -2.0470    0.7136 H   0  0  0  0  0  0  0  0  0  0  0  0
   -1.6890   -2.2565   -1.9869 H   0  0  0  0  0  0  0  0  0  0  0  0
   -3.2151   -2.9938   -1.5541 H   0  0  0  0  0  0  0  0  0  0  0  0
   -3.4328   -1.2758   -3.0393 H   0  0  0  0  0  0  0  0  0  0  0  0
   -2.6192   -0.0528   -2.1172 H   0  0  0  0  0  0  0  0  0  0  0  0
  1  2  1  0
  2  3  2  0
  3  4  1  0
  4  5  1  0
  4  6  2  0
  6  7  1  0
  7  8  2  0
  8  9  1  0
  9 10  1  0
 10 11  1  0
 11 12  2  0
 11 13  1  0
 13 14  1  0
 14 15  2  0
 15 16  1  0
 16 17  1  0
 16 18  1  0
 18 19  1  0
 19 20  2  0
 20 21  1  0
 21 22  2  0
 22 23  1  0
 23 24  1  0
 24 25  1  0
 25 26  2  0
 26 27  1  0
 27 28  2  0
 22 29  1  0
 29 30  2  0
 30 31  1  0
 31 32  1  0
 32 33  1  0
 33 34  1  0
 34 35  1  0
 35 36  2  0
 36 37  1  0
 37 38  1  0
 38 39  1  0
  8  2  1  0
 17 13  2  0
 30 19  1  0
 39  7  1  0
 28 24  1  0
  1 40  1  0
  1 41  1  0
  1 42  1  0
  5 43  1  0
  5 44  1  0
  6 45  1  0
  9 46  1  0
  9 47  1  0
 10 48  1  0
 14 49  1  0
 17 50  1  0
 18 51  1  0
 18 52  1  0
 20 53  1  0
 21 54  1  0
 23 55  1  0
 23 56  1  0
 25 57  1  0
 26 58  1  0
 27 59  1  0
 29 60  1  0
 32 61  1  0
 32 62  1  0
 33 63  1  0
 33 64  1  0
 34 65  1  0
 34 66  1  0
 35 67  1  0
 36 68  1  0
 37 69  1  0
 37 70  1  0
 38 71  1  0
 38 72  1  0
M  END
$$$$
