@<TRIPOS>MOLECULE
*****
 72 76 0 0 0
SMALL
GASTEIGER

@<TRIPOS>ATOM
      1 C          -6.8692    1.4026    2.3299 C.3     1  UNL1       -0.0219
      2 C          -6.8170    0.7512    0.9934 C.ar    1  UNL1        0.0485
      3 N          -7.9879    0.5250    0.3870 N.ar    1  UNL1       -0.2371
      4 C          -8.0404   -0.0470   -0.7969 C.ar    1  UNL1        0.1199
      5 N          -9.3165   -0.2612   -1.3903 N.pl3   1  UNL1       -0.3430
      6 C          -6.8635   -0.4156   -1.4153 C.ar    1  UNL1        0.0200
      7 C          -5.5905   -0.2234   -0.8679 C.ar    1  UNL1        0.1301
      8 C          -5.6133    0.3940    0.4021 C.ar    1  UNL1        0.0324
      9 C          -4.4180    0.6773    1.1809 C.3     1  UNL1        0.0423
     10 N          -3.3172    1.2058    0.3262 N.am    1  UNL1       -0.3070
     11 C          -2.0442    1.3052    0.8816 C.2     1  UNL1        0.2473
     12 O          -2.1907    0.8989    2.1329 O.2     1  UNL1       -0.2701
     13 C          -0.6908    1.7021    0.4730 C.ar    1  UNL1        0.0741
     14 C           0.2234    2.2790    1.3943 C.ar    1  UNL1        0.0615
     15 N           1.3510    2.4213    0.7413 N.ar    1  UNL1       -0.1786
     16 N           1.2191    1.9736   -0.5400 N.ar    1  UNL1       -0.2662
     17 C          -0.0108    1.5394   -0.7227 C.ar    1  UNL1        0.0380
     18 C           2.4175    2.0029   -1.4124 C.3     1  UNL1        0.0699
     19 C           3.5919    1.5102   -0.6014 C.ar    1  UNL1        0.0155
     20 C           4.5803    2.3723   -0.3089 C.ar    1  UNL1       -0.0530
     21 C           5.6764    2.0213    0.4808 C.ar    1  UNL1       -0.0563
     22 C           5.7401    0.7449    0.9747 C.ar    1  UNL1       -0.0227
     23 C           6.8739    0.2829    1.8283 C.3     1  UNL1        0.0666
     24 N           7.9341   -0.2700    1.0096 N.ar    1  UNL1       -0.2671
     25 C           8.0759   -1.5467    0.6256 C.ar    1  UNL1        0.0258
     26 C           9.2189   -1.6194   -0.1376 C.ar    1  UNL1       -0.0242
     27 C           9.7510   -0.3402   -0.1933 C.ar    1  UNL1        0.0494
     28 N           8.9263    0.4549    0.5269 N.ar    1  UNL1       -0.1794
     29 C           4.7099   -0.1333    0.6616 C.ar    1  UNL1       -0.0147
     30 C           3.6116    0.1706   -0.1153 C.ar    1  UNL1        0.1257
     31 O           2.5923   -0.6254   -0.4564 O.3     1  UNL1       -0.4916
     32 C           2.1795   -1.7139   -1.1257 C.3     1  UNL1        0.0899
     33 C           0.6499   -1.8795   -1.0260 C.3     1  UNL1       -0.0152
     34 C           0.2646   -1.8879    0.4093 C.3     1  UNL1       -0.0317
     35 C          -1.1546   -1.9467    0.7562 C.2     1  UNL1       -0.0877
     36 C          -2.2569   -2.0183    0.0772 C.2     1  UNL1       -0.0847
     37 C          -2.5564   -2.0779   -1.3407 C.3     1  UNL1       -0.0004
     38 C          -3.3342   -0.9401   -1.9316 C.3     1  UNL1        0.0930
     39 O          -4.5388   -0.6032   -1.5315 O.3     1  UNL1       -0.4912
     40 H          -6.7345    2.4961    2.2461 H       1  UNL1        0.0293
     41 H          -7.8762    1.2272    2.7538 H       1  UNL1        0.0293
     42 H          -6.1655    0.9427    3.0493 H       1  UNL1        0.0293
     43 H          -9.9669   -0.9064   -0.8986 H       1  UNL1        0.1437
     44 H          -9.6498    0.1739   -2.2728 H       1  UNL1        0.1437
     45 H          -7.0447   -0.8796   -2.3939 H       1  UNL1        0.0689
     46 H          -4.6054    1.5317    1.9014 H       1  UNL1        0.0513
     47 H          -4.0945   -0.1443    1.8128 H       1  UNL1        0.0513
     48 H          -3.6790    1.4551   -0.5859 H       1  UNL1        0.1493
     49 H           0.0243    2.5552    2.4483 H       1  UNL1        0.0855
     50 H          -0.4729    1.1237   -1.7046 H       1  UNL1        0.0834
     51 H           2.6766    3.0627   -1.6470 H       1  UNL1        0.0560
     52 H           2.4096    1.4418   -2.3123 H       1  UNL1        0.0560
     53 H           4.6017    3.4070   -0.6643 H       1  UNL1        0.0622
     54 H           6.4714    2.7014    0.7192 H       1  UNL1        0.0621
     55 H           7.2818    1.0929    2.4424 H       1  UNL1        0.0558
     56 H           6.4556   -0.4719    2.5337 H       1  UNL1        0.0558
     57 H           7.4489   -2.3917    0.8424 H       1  UNL1        0.0826
     58 H           9.6123   -2.5127   -0.5985 H       1  UNL1        0.0648
     59 H          10.6510   -0.0581   -0.7168 H       1  UNL1        0.0848
     60 H           4.8616   -1.1336    1.1329 H       1  UNL1        0.0657
     61 H           2.4922   -1.7949   -2.1939 H       1  UNL1        0.0696
     62 H           2.5565   -2.6709   -0.6726 H       1  UNL1        0.0696
     63 H           0.4564   -2.9322   -1.4050 H       1  UNL1        0.0301
     64 H           0.2076   -1.1021   -1.6202 H       1  UNL1        0.0301
     65 H           0.7712   -0.9987    0.9310 H       1  UNL1        0.0308
     66 H           0.8208   -2.7511    0.9249 H       1  UNL1        0.0308
     67 H          -1.3251   -1.9236    1.8930 H       1  UNL1        0.0569
     68 H          -3.2056   -2.0470    0.7136 H       1  UNL1        0.0570
     69 H          -1.6890   -2.2565   -1.9869 H       1  UNL1        0.0340
     70 H          -3.2151   -2.9938   -1.5541 H       1  UNL1        0.0340
     71 H          -3.4328   -1.2758   -3.0393 H       1  UNL1        0.0699
     72 H          -2.6192   -0.0528   -2.1172 H       1  UNL1        0.0699
@<TRIPOS>BOND
     1     1     2    1
     2     2     3   ar
     3     3     4   ar
     4     4     5    1
     5     4     6   ar
     6     6     7   ar
     7     7     8   ar
     8     8     9    1
     9     9    10    1
    10    10    11   am
    11    11    12    2
    12    11    13    1
    13    13    14   ar
    14    14    15   ar
    15    15    16   ar
    16    16    17   ar
    17    16    18    1
    18    18    19    1
    19    19    20   ar
    20    20    21   ar
    21    21    22   ar
    22    22    23    1
    23    23    24    1
    24    24    25   ar
    25    25    26   ar
    26    26    27   ar
    27    27    28   ar
    28    22    29   ar
    29    29    30   ar
    30    30    31    1
    31    31    32    1
    32    32    33    1
    33    33    34    1
    34    34    35    1
    35    35    36    2
    36    36    37    1
    37    37    38    1
    38    38    39    1
    39     8     2   ar
    40    17    13   ar
    41    30    19   ar
    42    39     7    1
    43    28    24   ar
    44     1    40    1
    45     1    41    1
    46     1    42    1
    47     5    43    1
    48     5    44    1
    49     6    45    1
    50     9    46    1
    51     9    47    1
    52    10    48    1
    53    14    49    1
    54    17    50    1
    55    18    51    1
    56    18    52    1
    57    20    53    1
    58    21    54    1
    59    23    55    1
    60    23    56    1
    61    25    57    1
    62    26    58    1
    63    27    59    1
    64    29    60    1
    65    32    61    1
    66    32    62    1
    67    33    63    1
    68    33    64    1
    69    34    65    1
    70    34    66    1
    71    35    67    1
    72    36    68    1
    73    37    69    1
    74    37    70    1
    75    38    71    1
    76    38    72    1
