@<TRIPOS>MOLECULE
*****
 20 20 0 0 0
SMALL
GASTEIGER

@<TRIPOS>ATOM
      1 C          -1.1768   -0.0895    0.3933 C.3     1  UNL1        0.0119
      2 C          -2.2891   -1.0476    0.0527 C.3     1  UNL1       -0.0560
      3 C           0.0681   -0.4349   -0.4097 C.3     1  UNL1       -0.0412
      4 C           1.2004    0.4976   -0.0989 C.3     1  UNL1       -0.0404
      5 C           2.5185    0.3689   -0.7505 C.3     1  UNL1       -0.0499
      6 C           2.3481   -0.0805    0.6705 C.3     1  UNL1       -0.0499
      7 C          -1.5497    1.3060    0.0635 C.2     1  UNL1        0.1231
      8 O          -2.6732    1.2790   -0.3988 O.2     1  UNL1       -0.3008
      9 H          -0.9331   -0.2150    1.4606 H       1  UNL1        0.0372
     10 H          -2.0305   -2.0521    0.4515 H       1  UNL1        0.0236
     11 H          -3.1942   -0.7068    0.6059 H       1  UNL1        0.0236
     12 H          -2.5218   -1.0440   -1.0330 H       1  UNL1        0.0236
     13 H           0.3636   -1.4580   -0.1083 H       1  UNL1        0.0274
     14 H          -0.1608   -0.4532   -1.5070 H       1  UNL1        0.0274
     15 H           0.8919    1.5500    0.1040 H       1  UNL1        0.0301
     16 H           3.1524    1.2558   -0.8945 H       1  UNL1        0.0268
     17 H           2.6139   -0.4282   -1.5095 H       1  UNL1        0.0268
     18 H           2.3486   -1.1808    0.8686 H       1  UNL1        0.0268
     19 H           2.7029    0.5714    1.5116 H       1  UNL1        0.0268
     20 H          -1.6792    2.3618   -0.1228 H       1  UNL1        0.1029
@<TRIPOS>BOND
     1     1     2    1
     2     1     3    1
     3     3     4    1
     4     4     5    1
     5     5     6    1
     6     1     7    1
     7     7     8    2
     8     6     4    1
     9     1     9    1
    10     2    10    1
    11     2    11    1
    12     2    12    1
    13     3    13    1
    14     3    14    1
    15     4    15    1
    16     5    16    1
    17     5    17    1
    18     6    18    1
    19     6    19    1
    20     7    20    1
