@<TRIPOS>MOLECULE
*****
 34 37 0 0 0
SMALL
GASTEIGER

@<TRIPOS>ATOM
      1 N          -3.0951    1.4131   -1.6322 N.pl3   1  UNL1       -0.2513
      2 C          -1.8163    1.5777   -1.0269 C.cat   1  UNL1        0.3700
      3 N          -1.1710    2.6699   -1.2199 N.2     1  UNL1       -0.1133
      4 C           0.1063    2.7431   -0.5740 C.3     1  UNL1        0.1405
      5 C           0.1365    1.5323    0.2914 C.3     1  UNL1        0.1360
      6 N          -0.9702    0.7941   -0.1881 N.pl3   1  UNL1       -0.1823
      7 C          -1.3430   -0.5631    0.0335 C.ar    1  UNL1        0.0985
      8 C          -2.7362   -0.6889    0.1538 C.ar    1  UNL1       -0.0247
      9 C          -3.2543   -1.9677    0.3650 C.ar    1  UNL1       -0.0587
     10 C          -2.3851   -3.0532    0.4479 C.ar    1  UNL1       -0.0613
     11 C          -1.0313   -2.9394    0.3328 C.ar    1  UNL1       -0.0552
     12 C          -0.4889   -1.6738    0.1213 C.ar    1  UNL1       -0.0065
     13 C           0.9887   -1.7553    0.0258 C.3     1  UNL1        0.0010
     14 C           1.6881   -0.4935    0.2453 C.ar    1  UNL1       -0.0366
     15 C           3.0163   -0.8572    0.3570 C.ar    1  UNL1       -0.0579
     16 C           4.0764    0.0293    0.5754 C.ar    1  UNL1       -0.0615
     17 C           3.7699    1.3873    0.6895 C.ar    1  UNL1       -0.0614
     18 C           2.4551    1.7460    0.5789 C.ar    1  UNL1       -0.0551
     19 C           1.4251    0.8518    0.3634 C.ar    1  UNL1       -0.0057
     20 H          -3.4258    0.7735   -2.3932 H       1  UNL1        0.2412
     21 H          -3.8795    2.0330   -1.2749 H       1  UNL1        0.2412
     22 H           0.8739    2.6102   -1.3637 H       1  UNL1        0.0730
     23 H           0.2261    3.6906   -0.0176 H       1  UNL1        0.0730
     24 H          -0.1165    1.9150    1.3313 H       1  UNL1        0.0760
     25 H          -3.4152    0.1403    0.1107 H       1  UNL1        0.0650
     26 H          -4.3293   -2.1605    0.4705 H       1  UNL1        0.0619
     27 H          -2.8218   -4.0437    0.6132 H       1  UNL1        0.0618
     28 H          -0.4315   -3.8402    0.4113 H       1  UNL1        0.0621
     29 H           1.3866   -2.5418    0.7001 H       1  UNL1        0.0363
     30 H           1.3058   -2.1108   -1.0001 H       1  UNL1        0.0363
     31 H           3.4041   -1.8816    0.2895 H       1  UNL1        0.0620
     32 H           5.1114   -0.2524    0.6613 H       1  UNL1        0.0618
     33 H           4.5532    2.1074    0.8570 H       1  UNL1        0.0618
     34 H           2.1874    2.8084    0.6647 H       1  UNL1        0.0621
@<TRIPOS>BOND
     1     1     2    1
     2     2     3    2
     3     3     4    1
     4     4     5    1
     5     5     6    1
     6     6     7    1
     7     7     8   ar
     8     8     9   ar
     9     9    10   ar
    10    10    11   ar
    11    11    12   ar
    12    12    13    1
    13    13    14    1
    14    14    15   ar
    15    15    16   ar
    16    16    17   ar
    17    17    18   ar
    18    18    19   ar
    19     6     2    1
    20    12     7   ar
    21    19    14   ar
    22    19     5    1
    23     1    20    1
    24     1    21    1
    25     4    22    1
    26     4    23    1
    27     5    24    1
    28     8    25    1
    29     9    26    1
    30    10    27    1
    31    11    28    1
    32    13    29    1
    33    13    30    1
    34    15    31    1
    35    16    32    1
    36    17    33    1
    37    18    34    1
