
     RDKit          3D

 67 70  0  0  0  0  0  0  0  0999 V2000
    3.5268    1.8425    0.4281 O   0  0  0  0  0  0  0  0  0  0  0  0
    4.2943    0.9265   -0.0351 C   0  0  0  0  0  0  0  0  0  0  0  0
    4.0919   -0.4330    0.3249 N   0  0  0  0  0  0  0  0  0  0  0  0
    3.0076   -0.8069    1.2259 C   0  0  2  0  0  0  0  0  0  0  0  0
    3.4539   -1.3255    2.5423 C   0  0  0  0  0  0  0  0  0  0  0  0
    3.9364   -2.6951    2.6675 C   0  0  0  0  0  0  0  0  0  0  0  0
    4.3594   -3.4584    1.4752 C   0  0  0  0  0  0  0  0  0  0  0  0
    3.2642   -3.7238    0.4814 C   0  0  0  0  0  0  0  0  0  0  0  0
    1.9559   -3.0762    0.8717 C   0  0  0  0  0  0  0  0  0  0  0  0
    1.9514   -1.6034    0.5281 C   0  0  1  0  0  0  0  0  0  0  0  0
    0.6408   -1.1177    0.7607 O   0  0  0  0  0  0  0  0  0  0  0  0
   -0.1655   -0.6757   -0.2816 C   0  0  0  0  0  0  0  0  0  0  0  0
    0.3136   -0.7254   -1.4315 O   0  0  0  0  0  0  0  0  0  0  0  0
   -1.5039   -0.1848    0.0082 C   0  0  0  0  0  0  0  0  0  0  0  0
   -1.9809   -0.1486    1.3008 C   0  0  0  0  0  0  0  0  0  0  0  0
   -3.2351    0.3065    1.6163 C   0  0  0  0  0  0  0  0  0  0  0  0
   -3.6853    0.3299    2.9269 O   0  0  0  0  0  0  0  0  0  0  0  0
   -4.1197    0.7689    0.6301 C   0  0  0  0  0  0  0  0  0  0  0  0
   -5.3939    1.3454    1.0203 C   0  0  0  0  0  0  0  0  0  0  0  0
   -5.4443    1.8132    2.2372 O   0  0  0  0  0  0  0  0  0  0  0  0
   -6.6023    1.4919    0.2794 C   0  0  0  0  0  0  0  0  0  0  0  0
   -7.3313    2.6776    0.4757 C   0  0  0  0  0  0  0  0  0  0  0  0
   -6.8462    3.6520    1.3357 O   0  0  0  0  0  0  0  0  0  0  0  0
   -8.5234    2.9288   -0.1513 C   0  0  0  0  0  0  0  0  0  0  0  0
   -9.0416    1.9882   -1.0135 C   0  0  0  0  0  0  0  0  0  0  0  0
   -8.3619    0.8237   -1.2250 C   0  0  0  0  0  0  0  0  0  0  0  0
   -7.1456    0.5704   -0.5787 C   0  0  0  0  0  0  0  0  0  0  0  0
   -6.6437   -0.7991   -0.7320 C   0  0  0  0  0  0  0  0  0  0  0  0
   -7.1452   -1.5321   -1.6262 O   0  0  0  0  0  0  0  0  0  0  0  0
   -5.6589   -1.3726    0.0345 O   0  0  0  0  0  0  0  0  0  0  0  0
   -3.6412    0.7342   -0.6648 C   0  0  0  0  0  0  0  0  0  0  0  0
   -4.4723    1.1887   -1.6937 O   0  0  0  0  0  0  0  0  0  0  0  0
   -2.3571    0.2652   -0.9694 C   0  0  0  0  0  0  0  0  0  0  0  0
    5.3689    1.3093   -0.9309 C   0  0  0  0  0  0  0  0  0  0  0  0
    6.2590    0.4530   -1.4893 C   0  0  0  0  0  0  0  0  0  0  0  0
    7.2732    0.8926   -2.3478 C   0  0  0  0  0  0  0  0  0  0  0  0
    7.3839    2.2321   -2.6445 C   0  0  0  0  0  0  0  0  0  0  0  0
    8.3689    2.7168   -3.4866 O   0  0  0  0  0  0  0  0  0  0  0  0
    6.4945    3.0953   -2.0876 C   0  0  0  0  0  0  0  0  0  0  0  0
    5.5069    2.6495   -1.2488 C   0  0  0  0  0  0  0  0  0  0  0  0
    4.7432   -1.1307   -0.0829 H   0  0  0  0  0  0  0  0  0  0  0  0
    2.4956    0.1855    1.4674 H   0  0  0  0  0  0  0  0  0  0  0  0
    4.2630   -0.6060    2.8904 H   0  0  0  0  0  0  0  0  0  0  0  0
    2.6211   -1.0922    3.2849 H   0  0  0  0  0  0  0  0  0  0  0  0
    3.1855   -3.3462    3.2170 H   0  0  0  0  0  0  0  0  0  0  0  0
    4.8225   -2.7176    3.3786 H   0  0  0  0  0  0  0  0  0  0  0  0
    5.3203   -3.1436    1.0108 H   0  0  0  0  0  0  0  0  0  0  0  0
    4.6254   -4.4949    1.8679 H   0  0  0  0  0  0  0  0  0  0  0  0
    3.5789   -3.2628   -0.4870 H   0  0  0  0  0  0  0  0  0  0  0  0
    3.0659   -4.7747    0.2856 H   0  0  0  0  0  0  0  0  0  0  0  0
    1.1750   -3.5387    0.2030 H   0  0  0  0  0  0  0  0  0  0  0  0
    1.6321   -3.2938    1.8956 H   0  0  0  0  0  0  0  0  0  0  0  0
    2.1970   -1.5636   -0.5747 H   0  0  0  0  0  0  0  0  0  0  0  0
   -1.2928   -0.5077    2.0661 H   0  0  0  0  0  0  0  0  0  0  0  0
   -3.1805   -0.1525    3.6621 H   0  0  0  0  0  0  0  0  0  0  0  0
   -7.0524    4.6329    1.1869 H   0  0  0  0  0  0  0  0  0  0  0  0
   -9.0910    3.8361   -0.0070 H   0  0  0  0  0  0  0  0  0  0  0  0
   -9.9914    2.1963   -1.5129 H   0  0  0  0  0  0  0  0  0  0  0  0
   -8.7722    0.1016   -1.8964 H   0  0  0  0  0  0  0  0  0  0  0  0
   -5.0736   -2.0814   -0.3947 H   0  0  0  0  0  0  0  0  0  0  0  0
   -4.2568    1.0336   -2.6695 H   0  0  0  0  0  0  0  0  0  0  0  0
   -2.0206    0.2524   -1.9877 H   0  0  0  0  0  0  0  0  0  0  0  0
    6.2213   -0.5871   -1.2973 H   0  0  0  0  0  0  0  0  0  0  0  0
    7.9850    0.2282   -2.7969 H   0  0  0  0  0  0  0  0  0  0  0  0
    9.2608    2.9500   -3.0542 H   0  0  0  0  0  0  0  0  0  0  0  0
    6.5625    4.1499   -2.3062 H   0  0  0  0  0  0  0  0  0  0  0  0
    4.8241    3.4039   -0.8344 H   0  0  0  0  0  0  0  0  0  0  0  0
  1  2  2  0
  2  3  1  0
  3  4  1  0
  4  5  1  0
  5  6  1  0
  6  7  1  0
  7  8  1  0
  8  9  1  0
  9 10  1  0
 10 11  1  0
 11 12  1  0
 12 13  2  0
 12 14  1  0
 14 15  2  0
 15 16  1  0
 16 17  1  0
 16 18  2  0
 18 19  1  0
 19 20  2  0
 19 21  1  0
 21 22  2  0
 22 23  1  0
 22 24  1  0
 24 25  2  0
 25 26  1  0
 26 27  2  0
 27 28  1  0
 28 29  2  0
 28 30  1  0
 18 31  1  0
 31 32  1  0
 31 33  2  0
  2 34  1  0
 34 35  2  0
 35 36  1  0
 36 37  2  0
 37 38  1  0
 37 39  1  0
 39 40  2  0
 10  4  1  0
 33 14  1  0
 40 34  1  0
 27 21  1  0
  3 41  1  0
  4 42  1  1
  5 43  1  0
  5 44  1  0
  6 45  1  0
  6 46  1  0
  7 47  1  0
  7 48  1  0
  8 49  1  0
  8 50  1  0
  9 51  1  0
  9 52  1  0
 10 53  1  6
 15 54  1  0
 17 55  1  0
 23 56  1  0
 24 57  1  0
 25 58  1  0
 26 59  1  0
 30 60  1  0
 32 61  1  0
 33 62  1  0
 35 63  1  0
 36 64  1  0
 38 65  1  0
 39 66  1  0
 40 67  1  0
M  END
$$$$
