@<TRIPOS>MOLECULE
*****
 67 70 0 0 0
SMALL
GASTEIGER

@<TRIPOS>ATOM
      1 O           3.5268    1.8425    0.4281 O.2     1  UNL1       -0.2702
      2 C           4.2943    0.9265   -0.0351 C.2     1  UNL1        0.2444
      3 N           4.0919   -0.4330    0.3249 N.am    1  UNL1       -0.3050
      4 C           3.0076   -0.8069    1.2259 C.3     1  UNL1        0.0604
      5 C           3.4539   -1.3255    2.5423 C.3     1  UNL1       -0.0311
      6 C           3.9364   -2.6951    2.6675 C.3     1  UNL1       -0.0513
      7 C           4.3594   -3.4584    1.4752 C.3     1  UNL1       -0.0529
      8 C           3.2642   -3.7238    0.4814 C.3     1  UNL1       -0.0496
      9 C           1.9559   -3.0762    0.8717 C.3     1  UNL1       -0.0139
     10 C           1.9514   -1.6034    0.5281 C.3     1  UNL1        0.1216
     11 O           0.6408   -1.1177    0.7607 O.3     1  UNL1       -0.4560
     12 C          -0.1655   -0.6757   -0.2816 C.2     1  UNL1        0.3397
     13 O           0.3136   -0.7254   -1.4315 O.2     1  UNL1       -0.2449
     14 C          -1.5039   -0.1848    0.0082 C.ar    1  UNL1        0.0659
     15 C          -1.9809   -0.1486    1.3008 C.ar    1  UNL1       -0.0053
     16 C          -3.2351    0.3065    1.6163 C.ar    1  UNL1        0.1320
     17 O          -3.6853    0.3299    2.9269 O.3     1  UNL1       -0.5059
     18 C          -4.1197    0.7689    0.6301 C.ar    1  UNL1        0.1050
     19 C          -5.3939    1.3454    1.0203 C.2     1  UNL1        0.2044
     20 O          -5.4443    1.8132    2.2372 O.2     1  UNL1       -0.2863
     21 C          -6.6023    1.4919    0.2794 C.ar    1  UNL1        0.0778
     22 C          -7.3313    2.6776    0.4757 C.ar    1  UNL1        0.1285
     23 O          -6.8462    3.6520    1.3357 O.3     1  UNL1       -0.5060
     24 C          -8.5234    2.9288   -0.1513 C.ar    1  UNL1       -0.0194
     25 C          -9.0416    1.9882   -1.0135 C.ar    1  UNL1       -0.0575
     26 C          -8.3619    0.8237   -1.2250 C.ar    1  UNL1       -0.0468
     27 C          -7.1456    0.5704   -0.5787 C.ar    1  UNL1        0.0731
     28 C          -6.6437   -0.7991   -0.7320 C.2     1  UNL1        0.3376
     29 O          -7.1452   -1.5321   -1.6262 O.2     1  UNL1       -0.2451
     30 O          -5.6589   -1.3726    0.0345 O.3     1  UNL1       -0.4771
     31 C          -3.6412    0.7342   -0.6648 C.ar    1  UNL1        0.1320
     32 O          -4.4723    1.1887   -1.6937 O.3     1  UNL1       -0.5059
     33 C          -2.3571    0.2652   -0.9694 C.ar    1  UNL1       -0.0053
     34 C           5.3689    1.3093   -0.9309 C.ar    1  UNL1        0.0369
     35 C           6.2590    0.4530   -1.4893 C.ar    1  UNL1       -0.0462
     36 C           7.2732    0.8926   -2.3478 C.ar    1  UNL1       -0.0195
     37 C           7.3839    2.2321   -2.6445 C.ar    1  UNL1        0.1169
     38 O           8.3689    2.7168   -3.4866 O.3     1  UNL1       -0.5068
     39 C           6.4945    3.0953   -2.0876 C.ar    1  UNL1       -0.0195
     40 C           5.5069    2.6495   -1.2488 C.ar    1  UNL1       -0.0462
     41 H           4.7432   -1.1307   -0.0829 H       1  UNL1        0.1494
     42 H           2.4956    0.1855    1.4674 H       1  UNL1        0.0535
     43 H           4.2630   -0.6060    2.8904 H       1  UNL1        0.0284
     44 H           2.6211   -1.0922    3.2849 H       1  UNL1        0.0284
     45 H           3.1855   -3.3462    3.2170 H       1  UNL1        0.0266
     46 H           4.8225   -2.7176    3.3786 H       1  UNL1        0.0266
     47 H           5.3203   -3.1436    1.0108 H       1  UNL1        0.0265
     48 H           4.6254   -4.4949    1.8679 H       1  UNL1        0.0265
     49 H           3.5789   -3.2628   -0.4870 H       1  UNL1        0.0266
     50 H           3.0659   -4.7747    0.2856 H       1  UNL1        0.0266
     51 H           1.1750   -3.5387    0.2030 H       1  UNL1        0.0301
     52 H           1.6321   -3.2938    1.8956 H       1  UNL1        0.0301
     53 H           2.1970   -1.5636   -0.5747 H       1  UNL1        0.0753
     54 H          -1.2928   -0.5077    2.0661 H       1  UNL1        0.0662
     55 H          -3.1805   -0.1525    3.6621 H       1  UNL1        0.2922
     56 H          -7.0524    4.6329    1.1869 H       1  UNL1        0.2922
     57 H          -9.0910    3.8361   -0.0070 H       1  UNL1        0.0654
     58 H          -9.9914    2.1963   -1.5129 H       1  UNL1        0.0619
     59 H          -8.7722    0.1016   -1.8964 H       1  UNL1        0.0626
     60 H          -5.0736   -2.0814   -0.3947 H       1  UNL1        0.2954
     61 H          -4.2568    1.0336   -2.6695 H       1  UNL1        0.2922
     62 H          -2.0206    0.2524   -1.9877 H       1  UNL1        0.0662
     63 H           6.2213   -0.5871   -1.2973 H       1  UNL1        0.0626
     64 H           7.9850    0.2282   -2.7969 H       1  UNL1        0.0654
     65 H           9.2608    2.9500   -3.0542 H       1  UNL1        0.2921
     66 H           6.5625    4.1499   -2.3062 H       1  UNL1        0.0654
     67 H           4.8241    3.4039   -0.8344 H       1  UNL1        0.0626
@<TRIPOS>BOND
     1     1     2    2
     2     2     3   am
     3     3     4    1
     4     4     5    1
     5     5     6    1
     6     6     7    1
     7     7     8    1
     8     8     9    1
     9     9    10    1
    10    10    11    1
    11    11    12    1
    12    12    13    2
    13    12    14    1
    14    14    15   ar
    15    15    16   ar
    16    16    17    1
    17    16    18   ar
    18    18    19    1
    19    19    20    2
    20    19    21    1
    21    21    22   ar
    22    22    23    1
    23    22    24   ar
    24    24    25   ar
    25    25    26   ar
    26    26    27   ar
    27    27    28    1
    28    28    29    2
    29    28    30    1
    30    18    31   ar
    31    31    32    1
    32    31    33   ar
    33     2    34    1
    34    34    35   ar
    35    35    36   ar
    36    36    37   ar
    37    37    38    1
    38    37    39   ar
    39    39    40   ar
    40    10     4    1
    41    33    14   ar
    42    40    34   ar
    43    27    21   ar
    44     3    41    1
    45     4    42    1
    46     5    43    1
    47     5    44    1
    48     6    45    1
    49     6    46    1
    50     7    47    1
    51     7    48    1
    52     8    49    1
    53     8    50    1
    54     9    51    1
    55     9    52    1
    56    10    53    1
    57    15    54    1
    58    17    55    1
    59    23    56    1
    60    24    57    1
    61    25    58    1
    62    26    59    1
    63    30    60    1
    64    32    61    1
    65    33    62    1
    66    35    63    1
    67    36    64    1
    68    38    65    1
    69    39    66    1
    70    40    67    1
