@<TRIPOS>MOLECULE
*****
 67 71 0 0 0
SMALL
GASTEIGER

@<TRIPOS>ATOM
      1 C           1.2348   -2.9956    2.5242 C.3     1  UNL1       -0.0391
      2 C           2.3802   -2.3026    1.8881 C.ar    1  UNL1       -0.0427
      3 C           3.6924   -2.6961    2.1830 C.ar    1  UNL1       -0.0575
      4 C           4.7643   -2.0500    1.6012 C.ar    1  UNL1       -0.0493
      5 C           4.5261   -1.0167    0.7301 C.ar    1  UNL1        0.0376
      6 C           5.6595   -0.3134    0.0972 C.2     1  UNL1        0.2483
      7 O           5.3515    0.6185   -0.6776 O.2     1  UNL1       -0.2699
      8 N           7.0045   -0.5977    0.2896 N.am    1  UNL1       -0.2815
      9 C           8.1361    0.0246   -0.2749 C.ar    1  UNL1        0.0342
     10 C           9.4116   -0.4481    0.0698 C.ar    1  UNL1       -0.0404
     11 C          10.5677    0.1026   -0.4357 C.ar    1  UNL1       -0.0595
     12 C          10.5215    1.1571   -1.3146 C.ar    1  UNL1       -0.0500
     13 C           9.2893    1.6442   -1.6731 C.ar    1  UNL1        0.0566
     14 C           9.1685    2.7785   -2.6156 C.3     1  UNL1        0.4175
     15 F           7.8681    3.0738   -2.9166 F       1  UNL1       -0.1659
     16 F           9.7331    3.9355   -2.0792 F       1  UNL1       -0.1659
     17 F           9.8504    2.4338   -3.7739 F       1  UNL1       -0.1659
     18 C           8.1127    1.0739   -1.1506 C.ar    1  UNL1       -0.0288
     19 C           3.2264   -0.6518    0.4589 C.ar    1  UNL1       -0.0416
     20 C           2.1332   -1.2713    1.0184 C.ar    1  UNL1       -0.0142
     21 C           0.7858   -0.8492    0.6887 C.ar    1  UNL1       -0.0169
     22 C           0.5212    0.5032    0.7477 C.ar    1  UNL1       -0.0520
     23 C          -0.7415    0.9617    0.4343 C.ar    1  UNL1       -0.0350
     24 C          -1.7619    0.1256    0.0612 C.ar    1  UNL1        0.0761
     25 N          -3.0052    0.5233   -0.2531 N.ar    1  UNL1       -0.2145
     26 C          -3.9772   -0.3264   -0.6140 C.ar    1  UNL1        0.2157
     27 N          -5.3046    0.1524   -0.9445 N.pl3   1  UNL1       -0.3122
     28 C          -6.3399   -0.7399   -1.3276 C.3     1  UNL1        0.0246
     29 C          -7.6789   -0.1191   -1.4033 C.3     1  UNL1        0.0146
     30 N          -8.2158    0.3449   -0.1896 N.3     1  UNL1       -0.2965
     31 C          -7.6731    1.4617    0.4763 C.3     1  UNL1        0.0225
     32 C          -7.8601    2.6955   -0.3768 C.3     1  UNL1        0.0604
     33 O          -8.9196    2.5261   -1.2752 O.3     1  UNL1       -0.3772
     34 C         -10.0003    1.9410   -0.6145 C.3     1  UNL1        0.0604
     35 C          -9.6751    0.4926   -0.2627 C.3     1  UNL1        0.0225
     36 N          -3.7524   -1.6579   -0.6819 N.ar    1  UNL1       -0.2223
     37 C          -2.5050   -2.0755   -0.3685 C.ar    1  UNL1        0.0404
     38 C          -1.5020   -1.2171    0.0019 C.ar    1  UNL1        0.0192
     39 C          -0.2331   -1.7008    0.3146 C.ar    1  UNL1       -0.0434
     40 H           1.0574   -3.9625    2.0004 H       1  UNL1        0.0278
     41 H           0.3288   -2.3914    2.5986 H       1  UNL1        0.0278
     42 H           1.5644   -3.3170    3.5602 H       1  UNL1        0.0278
     43 H           3.8420   -3.5278    2.8855 H       1  UNL1        0.0621
     44 H           5.7465   -2.3704    1.8441 H       1  UNL1        0.0625
     45 H           7.2022   -1.4051    0.9636 H       1  UNL1        0.1551
     46 H           9.4918   -1.2784    0.7604 H       1  UNL1        0.0636
     47 H          11.5415   -0.2924   -0.1442 H       1  UNL1        0.0618
     48 H          11.4491    1.5632   -1.6902 H       1  UNL1        0.0623
     49 H           7.1678    1.4834   -1.4551 H       1  UNL1        0.0642
     50 H           3.0717    0.1730   -0.2376 H       1  UNL1        0.0631
     51 H           1.2584    1.2365    1.0304 H       1  UNL1        0.0624
     52 H          -0.9500    2.0194    0.4800 H       1  UNL1        0.0639
     53 H          -5.4038    1.1838   -0.9032 H       1  UNL1        0.1489
     54 H          -6.0736   -1.1478   -2.3450 H       1  UNL1        0.0475
     55 H          -6.3855   -1.6319   -0.6343 H       1  UNL1        0.0475
     56 H          -7.6239    0.7288   -2.1779 H       1  UNL1        0.0442
     57 H          -8.4315   -0.8075   -1.9103 H       1  UNL1        0.0442
     58 H          -8.3349    1.6811    1.3994 H       1  UNL1        0.0449
     59 H          -6.6793    1.3391    0.9161 H       1  UNL1        0.0449
     60 H          -6.9407    2.9464   -0.8875 H       1  UNL1        0.0572
     61 H          -8.1161    3.5787    0.2612 H       1  UNL1        0.0572
     62 H         -10.2358    2.5213    0.2885 H       1  UNL1        0.0572
     63 H         -10.9042    1.9162   -1.2423 H       1  UNL1        0.0572
     64 H         -10.0892   -0.2018   -1.0139 H       1  UNL1        0.0449
     65 H         -10.0547    0.3231    0.7614 H       1  UNL1        0.0449
     66 H          -2.2537   -3.1407   -0.4024 H       1  UNL1        0.0837
     67 H          -0.0379   -2.7606    0.2611 H       1  UNL1        0.0631
@<TRIPOS>BOND
     1     1     2    1
     2     2     3   ar
     3     3     4   ar
     4     4     5   ar
     5     5     6    1
     6     6     7    2
     7     6     8   am
     8     8     9    1
     9     9    10   ar
    10    10    11   ar
    11    11    12   ar
    12    12    13   ar
    13    13    14    1
    14    14    15    1
    15    14    16    1
    16    14    17    1
    17    13    18   ar
    18     5    19   ar
    19    19    20   ar
    20    20    21    1
    21    21    22   ar
    22    22    23   ar
    23    23    24   ar
    24    24    25   ar
    25    25    26   ar
    26    26    27    1
    27    27    28    1
    28    28    29    1
    29    29    30    1
    30    30    31    1
    31    31    32    1
    32    32    33    1
    33    33    34    1
    34    34    35    1
    35    26    36   ar
    36    36    37   ar
    37    37    38   ar
    38    38    39   ar
    39    20     2   ar
    40    39    21   ar
    41    18     9   ar
    42    38    24   ar
    43    35    30    1
    44     1    40    1
    45     1    41    1
    46     1    42    1
    47     3    43    1
    48     4    44    1
    49     8    45    1
    50    10    46    1
    51    11    47    1
    52    12    48    1
    53    18    49    1
    54    19    50    1
    55    22    51    1
    56    23    52    1
    57    27    53    1
    58    28    54    1
    59    28    55    1
    60    29    56    1
    61    29    57    1
    62    31    58    1
    63    31    59    1
    64    32    60    1
    65    32    61    1
    66    34    62    1
    67    34    63    1
    68    35    64    1
    69    35    65    1
    70    37    66    1
    71    39    67    1
