
     RDKit          3D

 67 71  0  0  0  0  0  0  0  0999 V2000
    1.2348   -2.9956    2.5242 C   0  0  0  0  0  0  0  0  0  0  0  0
    2.3802   -2.3026    1.8881 C   0  0  0  0  0  0  0  0  0  0  0  0
    3.6924   -2.6961    2.1830 C   0  0  0  0  0  0  0  0  0  0  0  0
    4.7643   -2.0500    1.6012 C   0  0  0  0  0  0  0  0  0  0  0  0
    4.5261   -1.0167    0.7301 C   0  0  0  0  0  0  0  0  0  0  0  0
    5.6595   -0.3134    0.0972 C   0  0  0  0  0  0  0  0  0  0  0  0
    5.3515    0.6185   -0.6776 O   0  0  0  0  0  0  0  0  0  0  0  0
    7.0045   -0.5977    0.2896 N   0  0  0  0  0  0  0  0  0  0  0  0
    8.1361    0.0246   -0.2749 C   0  0  0  0  0  0  0  0  0  0  0  0
    9.4116   -0.4481    0.0698 C   0  0  0  0  0  0  0  0  0  0  0  0
   10.5677    0.1026   -0.4357 C   0  0  0  0  0  0  0  0  0  0  0  0
   10.5215    1.1571   -1.3146 C   0  0  0  0  0  0  0  0  0  0  0  0
    9.2893    1.6442   -1.6731 C   0  0  0  0  0  0  0  0  0  0  0  0
    9.1685    2.7785   -2.6156 C   0  0  0  0  0  0  0  0  0  0  0  0
    7.8681    3.0738   -2.9166 F   0  0  0  0  0  0  0  0  0  0  0  0
    9.7331    3.9355   -2.0792 F   0  0  0  0  0  0  0  0  0  0  0  0
    9.8504    2.4338   -3.7739 F   0  0  0  0  0  0  0  0  0  0  0  0
    8.1127    1.0739   -1.1506 C   0  0  0  0  0  0  0  0  0  0  0  0
    3.2264   -0.6518    0.4589 C   0  0  0  0  0  0  0  0  0  0  0  0
    2.1332   -1.2713    1.0184 C   0  0  0  0  0  0  0  0  0  0  0  0
    0.7858   -0.8492    0.6887 C   0  0  0  0  0  0  0  0  0  0  0  0
    0.5212    0.5032    0.7477 C   0  0  0  0  0  0  0  0  0  0  0  0
   -0.7415    0.9617    0.4343 C   0  0  0  0  0  0  0  0  0  0  0  0
   -1.7619    0.1256    0.0612 C   0  0  0  0  0  0  0  0  0  0  0  0
   -3.0052    0.5233   -0.2531 N   0  0  0  0  0  0  0  0  0  0  0  0
   -3.9772   -0.3264   -0.6140 C   0  0  0  0  0  0  0  0  0  0  0  0
   -5.3046    0.1524   -0.9445 N   0  0  0  0  0  0  0  0  0  0  0  0
   -6.3399   -0.7399   -1.3276 C   0  0  0  0  0  0  0  0  0  0  0  0
   -7.6789   -0.1191   -1.4033 C   0  0  0  0  0  0  0  0  0  0  0  0
   -8.2158    0.3449   -0.1896 N   0  0  0  0  0  0  0  0  0  0  0  0
   -7.6731    1.4617    0.4763 C   0  0  0  0  0  0  0  0  0  0  0  0
   -7.8601    2.6955   -0.3768 C   0  0  0  0  0  0  0  0  0  0  0  0
   -8.9196    2.5261   -1.2752 O   0  0  0  0  0  0  0  0  0  0  0  0
  -10.0003    1.9410   -0.6145 C   0  0  0  0  0  0  0  0  0  0  0  0
   -9.6751    0.4926   -0.2627 C   0  0  0  0  0  0  0  0  0  0  0  0
   -3.7524   -1.6579   -0.6819 N   0  0  0  0  0  0  0  0  0  0  0  0
   -2.5050   -2.0755   -0.3685 C   0  0  0  0  0  0  0  0  0  0  0  0
   -1.5020   -1.2171    0.0019 C   0  0  0  0  0  0  0  0  0  0  0  0
   -0.2331   -1.7008    0.3146 C   0  0  0  0  0  0  0  0  0  0  0  0
    1.0574   -3.9625    2.0004 H   0  0  0  0  0  0  0  0  0  0  0  0
    0.3288   -2.3914    2.5986 H   0  0  0  0  0  0  0  0  0  0  0  0
    1.5644   -3.3170    3.5602 H   0  0  0  0  0  0  0  0  0  0  0  0
    3.8420   -3.5278    2.8855 H   0  0  0  0  0  0  0  0  0  0  0  0
    5.7465   -2.3704    1.8441 H   0  0  0  0  0  0  0  0  0  0  0  0
    7.2022   -1.4051    0.9636 H   0  0  0  0  0  0  0  0  0  0  0  0
    9.4918   -1.2784    0.7604 H   0  0  0  0  0  0  0  0  0  0  0  0
   11.5415   -0.2924   -0.1442 H   0  0  0  0  0  0  0  0  0  0  0  0
   11.4491    1.5632   -1.6902 H   0  0  0  0  0  0  0  0  0  0  0  0
    7.1678    1.4834   -1.4551 H   0  0  0  0  0  0  0  0  0  0  0  0
    3.0717    0.1730   -0.2376 H   0  0  0  0  0  0  0  0  0  0  0  0
    1.2584    1.2365    1.0304 H   0  0  0  0  0  0  0  0  0  0  0  0
   -0.9500    2.0194    0.4800 H   0  0  0  0  0  0  0  0  0  0  0  0
   -5.4038    1.1838   -0.9032 H   0  0  0  0  0  0  0  0  0  0  0  0
   -6.0736   -1.1478   -2.3450 H   0  0  0  0  0  0  0  0  0  0  0  0
   -6.3855   -1.6319   -0.6343 H   0  0  0  0  0  0  0  0  0  0  0  0
   -7.6239    0.7288   -2.1779 H   0  0  0  0  0  0  0  0  0  0  0  0
   -8.4315   -0.8075   -1.9103 H   0  0  0  0  0  0  0  0  0  0  0  0
   -8.3349    1.6811    1.3994 H   0  0  0  0  0  0  0  0  0  0  0  0
   -6.6793    1.3391    0.9161 H   0  0  0  0  0  0  0  0  0  0  0  0
   -6.9407    2.9464   -0.8875 H   0  0  0  0  0  0  0  0  0  0  0  0
   -8.1161    3.5787    0.2612 H   0  0  0  0  0  0  0  0  0  0  0  0
  -10.2358    2.5213    0.2885 H   0  0  0  0  0  0  0  0  0  0  0  0
  -10.9042    1.9162   -1.2423 H   0  0  0  0  0  0  0  0  0  0  0  0
  -10.0892   -0.2018   -1.0139 H   0  0  0  0  0  0  0  0  0  0  0  0
  -10.0547    0.3231    0.7614 H   0  0  0  0  0  0  0  0  0  0  0  0
   -2.2537   -3.1407   -0.4024 H   0  0  0  0  0  0  0  0  0  0  0  0
   -0.0379   -2.7606    0.2611 H   0  0  0  0  0  0  0  0  0  0  0  0
  1  2  1  0
  2  3  2  0
  3  4  1  0
  4  5  2  0
  5  6  1  0
  6  7  2  0
  6  8  1  0
  8  9  1  0
  9 10  2  0
 10 11  1  0
 11 12  2  0
 12 13  1  0
 13 14  1  0
 14 15  1  0
 14 16  1  0
 14 17  1  0
 13 18  2  0
  5 19  1  0
 19 20  2  0
 20 21  1  0
 21 22  2  0
 22 23  1  0
 23 24  2  0
 24 25  1  0
 25 26  2  0
 26 27  1  0
 27 28  1  0
 28 29  1  0
 29 30  1  0
 30 31  1  0
 31 32  1  0
 32 33  1  0
 33 34  1  0
 34 35  1  0
 26 36  1  0
 36 37  2  0
 37 38  1  0
 38 39  2  0
 20  2  1  0
 39 21  1  0
 18  9  1  0
 38 24  1  0
 35 30  1  0
  1 40  1  0
  1 41  1  0
  1 42  1  0
  3 43  1  0
  4 44  1  0
  8 45  1  0
 10 46  1  0
 11 47  1  0
 12 48  1  0
 18 49  1  0
 19 50  1  0
 22 51  1  0
 23 52  1  0
 27 53  1  0
 28 54  1  0
 28 55  1  0
 29 56  1  0
 29 57  1  0
 31 58  1  0
 31 59  1  0
 32 60  1  0
 32 61  1  0
 34 62  1  0
 34 63  1  0
 35 64  1  0
 35 65  1  0
 37 66  1  0
 39 67  1  0
M  END
$$$$
