@<TRIPOS>MOLECULE
*****
 26 26 0 0 0
SMALL
GASTEIGER

@<TRIPOS>ATOM
      1 C          -4.8895    0.2813    0.0319 C.3     1  UNL1       -0.0307
      2 C          -3.4536    0.3099    0.5101 C.3     1  UNL1        0.0868
      3 O          -2.6541   -0.2869   -0.5084 O.3     1  UNL1       -0.4922
      4 C          -1.2702   -0.3825   -0.3061 C.ar    1  UNL1        0.1206
      5 C          -0.7840    0.1175    0.8835 C.ar    1  UNL1       -0.0182
      6 C           0.5844    0.0418    1.1232 C.ar    1  UNL1       -0.0370
      7 C           1.3624   -0.5393    0.1316 C.ar    1  UNL1        0.0336
      8 N           2.7845   -0.6571    0.2984 N.am    1  UNL1       -0.2857
      9 C           3.4109    0.5101   -0.2226 C.2     1  UNL1        0.2141
     10 C           4.9074    0.6810   -0.1908 C.3     1  UNL1        0.0125
     11 O           2.6147    1.3812   -0.7086 O.2     1  UNL1       -0.2758
     12 C           0.8470   -1.0327   -1.0528 C.ar    1  UNL1       -0.0370
     13 C          -0.5036   -0.9605   -1.2944 C.ar    1  UNL1       -0.0182
     14 H          -4.9909    1.0702   -0.7566 H       1  UNL1        0.0262
     15 H          -5.1084   -0.7342   -0.3429 H       1  UNL1        0.0262
     16 H          -5.5557    0.4694    0.8834 H       1  UNL1        0.0262
     17 H          -3.3866   -0.3824    1.3849 H       1  UNL1        0.0694
     18 H          -3.1104    1.3259    0.7056 H       1  UNL1        0.0694
     19 H          -1.4177    0.5646    1.6364 H       1  UNL1        0.0655
     20 H           1.0697    0.3961    2.0071 H       1  UNL1        0.0637
     21 H           3.3609   -1.4205    0.7150 H       1  UNL1        0.1548
     22 H           5.3129   -0.1320   -0.8274 H       1  UNL1        0.0323
     23 H           5.1399    1.6919   -0.5463 H       1  UNL1        0.0323
     24 H           5.2037    0.5064    0.8774 H       1  UNL1        0.0323
     25 H           1.4612   -1.4837   -1.8193 H       1  UNL1        0.0637
     26 H          -0.9347   -1.3353   -2.2056 H       1  UNL1        0.0655
@<TRIPOS>BOND
     1     1     2    1
     2     2     3    1
     3     3     4    1
     4     4     5   ar
     5     5     6   ar
     6     6     7   ar
     7     7     8    1
     8     8     9   am
     9     9    10    1
    10     9    11    2
    11     7    12   ar
    12    12    13   ar
    13    13     4   ar
    14     1    14    1
    15     1    15    1
    16     1    16    1
    17     2    17    1
    18     2    18    1
    19     5    19    1
    20     6    20    1
    21     8    21    1
    22    10    22    1
    23    10    23    1
    24    10    24    1
    25    12    25    1
    26    13    26    1
