@<TRIPOS>MOLECULE
*****
 77 82 0 0 0
SMALL
GASTEIGER

@<TRIPOS>ATOM
      1 C          -9.2490   -2.1891   -1.5756 C.3     1  UNL1        0.0790
      2 O          -8.4951   -1.0333   -1.3629 O.3     1  UNL1       -0.4914
      3 C          -7.2149   -1.0327   -0.8542 C.ar    1  UNL1        0.1618
      4 C          -6.6301   -2.2371   -0.5347 C.ar    1  UNL1       -0.0160
      5 C          -5.3397   -2.2717   -0.0190 C.ar    1  UNL1       -0.0534
      6 C          -4.6092   -1.1215    0.1889 C.ar    1  UNL1       -0.0255
      7 C          -5.2139    0.0614   -0.1361 C.ar    1  UNL1        0.0158
      8 C          -6.4963    0.1300   -0.6518 C.ar    1  UNL1        0.1667
      9 O          -6.8422    1.4546   -0.8865 O.3     1  UNL1       -0.4836
     10 C          -5.5847    2.0926   -1.1696 C.3     1  UNL1        0.1161
     11 C          -5.6286    3.5734   -1.0166 C.3     1  UNL1        0.0151
     12 C          -6.2485    4.0244    0.2617 C.3     1  UNL1        0.0768
     13 O          -7.6480    4.0872    0.1808 O.3     1  UNL1       -0.3876
     14 C          -5.8028    3.1996    1.4043 C.2     1  UNL1       -0.0588
     15 C          -5.1328    2.0598    1.2636 C.2     1  UNL1       -0.0715
     16 C          -4.7585    1.4900   -0.0429 C.3     1  UNL1        0.0558
     17 C          -3.2965    1.4953   -0.3469 C.3     1  UNL1       -0.0235
     18 C          -2.5519    0.8210    0.7540 C.3     1  UNL1        0.0004
     19 N          -2.2719   -0.5448    0.5549 N.3     1  UNL1       -0.2980
     20 C          -0.9339   -0.9477    0.4445 C.3     1  UNL1        0.0023
     21 C          -0.2317   -0.4620   -0.8024 C.3     1  UNL1       -0.0058
     22 C           1.1900   -0.9524   -0.8021 C.3     1  UNL1        0.0907
     23 O           1.9202   -0.5070    0.3077 O.3     1  UNL1       -0.4919
     24 C           3.2609   -0.8989    0.4026 C.ar    1  UNL1        0.1205
     25 C           4.0505   -0.5095    1.4659 C.ar    1  UNL1       -0.0196
     26 C           5.3751   -0.9026    1.5489 C.ar    1  UNL1       -0.0539
     27 C           5.9687   -1.6904    0.5917 C.ar    1  UNL1       -0.0331
     28 C           7.3741   -2.0839    0.7363 C.3     1  UNL1        0.0240
     29 N           8.3308   -1.1692    0.2027 N.3     1  UNL1       -0.2982
     30 C           8.2673    0.1425    0.8227 C.3     1  UNL1       -0.0008
     31 C           9.4734    0.9285    0.3510 C.3     1  UNL1       -0.0402
     32 C           9.2423    1.2762   -1.1020 C.3     1  UNL1       -0.0507
     33 C           8.2621    0.3335   -1.7305 C.3     1  UNL1       -0.0402
     34 C           8.3926   -1.0897   -1.2216 C.3     1  UNL1       -0.0008
     35 C           5.1784   -2.0788   -0.4703 C.ar    1  UNL1       -0.0539
     36 C           3.8501   -1.6915   -0.5643 C.ar    1  UNL1       -0.0196
     37 C          -3.2870   -1.4830    0.7314 C.3     1  UNL1        0.0244
     38 H         -10.1477   -1.9946   -2.2064 H       1  UNL1        0.0660
     39 H          -9.5517   -2.6292   -0.5862 H       1  UNL1        0.0660
     40 H          -8.6591   -2.9434   -2.1076 H       1  UNL1        0.0660
     41 H          -7.2004   -3.1388   -0.6961 H       1  UNL1        0.0655
     42 H          -4.9539   -3.2571    0.2045 H       1  UNL1        0.0622
     43 H          -5.1652    1.7957   -2.1291 H       1  UNL1        0.0746
     44 H          -4.5723    3.9347   -1.0164 H       1  UNL1        0.0329
     45 H          -6.1849    4.0499   -1.8499 H       1  UNL1        0.0329
     46 H          -5.9057    5.0695    0.4749 H       1  UNL1        0.0639
     47 H          -7.9830    4.1010    1.1319 H       1  UNL1        0.2102
     48 H          -6.0551    3.5779    2.4053 H       1  UNL1        0.0595
     49 H          -4.8599    1.5339    2.1655 H       1  UNL1        0.0580
     50 H          -2.9012    2.4976   -0.6048 H       1  UNL1        0.0290
     51 H          -3.1637    0.8568   -1.2686 H       1  UNL1        0.0290
     52 H          -2.9728    0.9593    1.7692 H       1  UNL1        0.0427
     53 H          -1.5513    1.3513    0.8107 H       1  UNL1        0.0427
     54 H          -0.8812   -2.0559    0.4383 H       1  UNL1        0.0428
     55 H          -0.3524   -0.6309    1.3487 H       1  UNL1        0.0428
     56 H          -0.7340   -0.9543   -1.6842 H       1  UNL1        0.0310
     57 H          -0.3022    0.6168   -0.9413 H       1  UNL1        0.0310
     58 H           1.1980   -2.0666   -0.7816 H       1  UNL1        0.0697
     59 H           1.6923   -0.5744   -1.7180 H       1  UNL1        0.0697
     60 H           3.5786    0.1143    2.2252 H       1  UNL1        0.0654
     61 H           5.9152   -0.5472    2.4211 H       1  UNL1        0.0622
     62 H           7.6622   -2.2889    1.7938 H       1  UNL1        0.0476
     63 H           7.5422   -3.0648    0.2005 H       1  UNL1        0.0476
     64 H           8.3270    0.0423    1.9235 H       1  UNL1        0.0427
     65 H           7.3802    0.7208    0.4857 H       1  UNL1        0.0427
     66 H          10.3461    0.2314    0.4001 H       1  UNL1        0.0278
     67 H           9.6330    1.8401    0.9608 H       1  UNL1        0.0278
     68 H           8.7917    2.2908   -1.1143 H       1  UNL1        0.0266
     69 H          10.2196    1.2536   -1.6418 H       1  UNL1        0.0266
     70 H           8.4379    0.3103   -2.8205 H       1  UNL1        0.0278
     71 H           7.2137    0.7016   -1.5835 H       1  UNL1        0.0278
     72 H           7.6807   -1.7049   -1.7715 H       1  UNL1        0.0427
     73 H           9.4196   -1.4251   -1.5345 H       1  UNL1        0.0427
     74 H           5.5725   -2.7005   -1.2620 H       1  UNL1        0.0622
     75 H           3.2489   -2.0170   -1.4213 H       1  UNL1        0.0654
     76 H          -2.9969   -2.4617    0.2986 H       1  UNL1        0.0476
     77 H          -3.4337   -1.6676    1.8306 H       1  UNL1        0.0476
@<TRIPOS>BOND
     1     1     2    1
     2     2     3    1
     3     3     4   ar
     4     4     5   ar
     5     5     6   ar
     6     6     7   ar
     7     7     8   ar
     8     8     9    1
     9     9    10    1
    10    10    11    1
    11    11    12    1
    12    12    13    1
    13    12    14    1
    14    14    15    2
    15    15    16    1
    16    16    17    1
    17    17    18    1
    18    18    19    1
    19    19    20    1
    20    20    21    1
    21    21    22    1
    22    22    23    1
    23    23    24    1
    24    24    25   ar
    25    25    26   ar
    26    26    27   ar
    27    27    28    1
    28    28    29    1
    29    29    30    1
    30    30    31    1
    31    31    32    1
    32    32    33    1
    33    33    34    1
    34    27    35   ar
    35    35    36   ar
    36    19    37    1
    37     8     3   ar
    38    16    10    1
    39    36    24   ar
    40    37     6    1
    41    16     7    1
    42    34    29    1
    43     1    38    1
    44     1    39    1
    45     1    40    1
    46     4    41    1
    47     5    42    1
    48    10    43    1
    49    11    44    1
    50    11    45    1
    51    12    46    1
    52    13    47    1
    53    14    48    1
    54    15    49    1
    55    17    50    1
    56    17    51    1
    57    18    52    1
    58    18    53    1
    59    20    54    1
    60    20    55    1
    61    21    56    1
    62    21    57    1
    63    22    58    1
    64    22    59    1
    65    25    60    1
    66    26    61    1
    67    28    62    1
    68    28    63    1
    69    30    64    1
    70    30    65    1
    71    31    66    1
    72    31    67    1
    73    32    68    1
    74    32    69    1
    75    33    70    1
    76    33    71    1
    77    34    72    1
    78    34    73    1
    79    35    74    1
    80    36    75    1
    81    37    76    1
    82    37    77    1
