
     RDKit          3D

 77 82  0  0  0  0  0  0  0  0999 V2000
   -9.2490   -2.1891   -1.5756 C   0  0  0  0  0  0  0  0  0  0  0  0
   -8.4951   -1.0333   -1.3629 O   0  0  0  0  0  0  0  0  0  0  0  0
   -7.2149   -1.0327   -0.8542 C   0  0  0  0  0  0  0  0  0  0  0  0
   -6.6301   -2.2371   -0.5347 C   0  0  0  0  0  0  0  0  0  0  0  0
   -5.3397   -2.2717   -0.0190 C   0  0  0  0  0  0  0  0  0  0  0  0
   -4.6092   -1.1215    0.1889 C   0  0  0  0  0  0  0  0  0  0  0  0
   -5.2139    0.0614   -0.1361 C   0  0  0  0  0  0  0  0  0  0  0  0
   -6.4963    0.1300   -0.6518 C   0  0  0  0  0  0  0  0  0  0  0  0
   -6.8422    1.4546   -0.8865 O   0  0  0  0  0  0  0  0  0  0  0  0
   -5.5847    2.0926   -1.1696 C   0  0  1  0  0  0  0  0  0  0  0  0
   -5.6286    3.5734   -1.0166 C   0  0  0  0  0  0  0  0  0  0  0  0
   -6.2485    4.0244    0.2617 C   0  0  1  0  0  0  0  0  0  0  0  0
   -7.6480    4.0872    0.1808 O   0  0  0  0  0  0  0  0  0  0  0  0
   -5.8028    3.1996    1.4043 C   0  0  0  0  0  0  0  0  0  0  0  0
   -5.1328    2.0598    1.2636 C   0  0  0  0  0  0  0  0  0  0  0  0
   -4.7585    1.4900   -0.0429 C   0  0  1  0  0  0  0  0  0  0  0  0
   -3.2965    1.4953   -0.3469 C   0  0  0  0  0  0  0  0  0  0  0  0
   -2.5519    0.8210    0.7540 C   0  0  0  0  0  0  0  0  0  0  0  0
   -2.2719   -0.5448    0.5549 N   0  0  0  0  0  0  0  0  0  0  0  0
   -0.9339   -0.9477    0.4445 C   0  0  0  0  0  0  0  0  0  0  0  0
   -0.2317   -0.4620   -0.8024 C   0  0  0  0  0  0  0  0  0  0  0  0
    1.1900   -0.9524   -0.8021 C   0  0  0  0  0  0  0  0  0  0  0  0
    1.9202   -0.5070    0.3077 O   0  0  0  0  0  0  0  0  0  0  0  0
    3.2609   -0.8989    0.4026 C   0  0  0  0  0  0  0  0  0  0  0  0
    4.0505   -0.5095    1.4659 C   0  0  0  0  0  0  0  0  0  0  0  0
    5.3751   -0.9026    1.5489 C   0  0  0  0  0  0  0  0  0  0  0  0
    5.9687   -1.6904    0.5917 C   0  0  0  0  0  0  0  0  0  0  0  0
    7.3741   -2.0839    0.7363 C   0  0  0  0  0  0  0  0  0  0  0  0
    8.3308   -1.1692    0.2027 N   0  0  0  0  0  0  0  0  0  0  0  0
    8.2673    0.1425    0.8227 C   0  0  0  0  0  0  0  0  0  0  0  0
    9.4734    0.9285    0.3510 C   0  0  0  0  0  0  0  0  0  0  0  0
    9.2423    1.2762   -1.1020 C   0  0  0  0  0  0  0  0  0  0  0  0
    8.2621    0.3335   -1.7305 C   0  0  0  0  0  0  0  0  0  0  0  0
    8.3926   -1.0897   -1.2216 C   0  0  0  0  0  0  0  0  0  0  0  0
    5.1784   -2.0788   -0.4703 C   0  0  0  0  0  0  0  0  0  0  0  0
    3.8501   -1.6915   -0.5643 C   0  0  0  0  0  0  0  0  0  0  0  0
   -3.2870   -1.4830    0.7314 C   0  0  0  0  0  0  0  0  0  0  0  0
  -10.1477   -1.9946   -2.2064 H   0  0  0  0  0  0  0  0  0  0  0  0
   -9.5517   -2.6292   -0.5862 H   0  0  0  0  0  0  0  0  0  0  0  0
   -8.6591   -2.9434   -2.1076 H   0  0  0  0  0  0  0  0  0  0  0  0
   -7.2004   -3.1388   -0.6961 H   0  0  0  0  0  0  0  0  0  0  0  0
   -4.9539   -3.2571    0.2045 H   0  0  0  0  0  0  0  0  0  0  0  0
   -5.1652    1.7957   -2.1291 H   0  0  0  0  0  0  0  0  0  0  0  0
   -4.5723    3.9347   -1.0164 H   0  0  0  0  0  0  0  0  0  0  0  0
   -6.1849    4.0499   -1.8499 H   0  0  0  0  0  0  0  0  0  0  0  0
   -5.9057    5.0695    0.4749 H   0  0  0  0  0  0  0  0  0  0  0  0
   -7.9830    4.1010    1.1319 H   0  0  0  0  0  0  0  0  0  0  0  0
   -6.0551    3.5779    2.4053 H   0  0  0  0  0  0  0  0  0  0  0  0
   -4.8599    1.5339    2.1655 H   0  0  0  0  0  0  0  0  0  0  0  0
   -2.9012    2.4976   -0.6048 H   0  0  0  0  0  0  0  0  0  0  0  0
   -3.1637    0.8568   -1.2686 H   0  0  0  0  0  0  0  0  0  0  0  0
   -2.9728    0.9593    1.7692 H   0  0  0  0  0  0  0  0  0  0  0  0
   -1.5513    1.3513    0.8107 H   0  0  0  0  0  0  0  0  0  0  0  0
   -0.8812   -2.0559    0.4383 H   0  0  0  0  0  0  0  0  0  0  0  0
   -0.3524   -0.6309    1.3487 H   0  0  0  0  0  0  0  0  0  0  0  0
   -0.7340   -0.9543   -1.6842 H   0  0  0  0  0  0  0  0  0  0  0  0
   -0.3022    0.6168   -0.9413 H   0  0  0  0  0  0  0  0  0  0  0  0
    1.1980   -2.0666   -0.7816 H   0  0  0  0  0  0  0  0  0  0  0  0
    1.6923   -0.5744   -1.7180 H   0  0  0  0  0  0  0  0  0  0  0  0
    3.5786    0.1143    2.2252 H   0  0  0  0  0  0  0  0  0  0  0  0
    5.9152   -0.5472    2.4211 H   0  0  0  0  0  0  0  0  0  0  0  0
    7.6622   -2.2889    1.7938 H   0  0  0  0  0  0  0  0  0  0  0  0
    7.5422   -3.0648    0.2005 H   0  0  0  0  0  0  0  0  0  0  0  0
    8.3270    0.0423    1.9235 H   0  0  0  0  0  0  0  0  0  0  0  0
    7.3802    0.7208    0.4857 H   0  0  0  0  0  0  0  0  0  0  0  0
   10.3461    0.2314    0.4001 H   0  0  0  0  0  0  0  0  0  0  0  0
    9.6330    1.8401    0.9608 H   0  0  0  0  0  0  0  0  0  0  0  0
    8.7917    2.2908   -1.1143 H   0  0  0  0  0  0  0  0  0  0  0  0
   10.2196    1.2536   -1.6418 H   0  0  0  0  0  0  0  0  0  0  0  0
    8.4379    0.3103   -2.8205 H   0  0  0  0  0  0  0  0  0  0  0  0
    7.2137    0.7016   -1.5835 H   0  0  0  0  0  0  0  0  0  0  0  0
    7.6807   -1.7049   -1.7715 H   0  0  0  0  0  0  0  0  0  0  0  0
    9.4196   -1.4251   -1.5345 H   0  0  0  0  0  0  0  0  0  0  0  0
    5.5725   -2.7005   -1.2620 H   0  0  0  0  0  0  0  0  0  0  0  0
    3.2489   -2.0170   -1.4213 H   0  0  0  0  0  0  0  0  0  0  0  0
   -2.9969   -2.4617    0.2986 H   0  0  0  0  0  0  0  0  0  0  0  0
   -3.4337   -1.6676    1.8306 H   0  0  0  0  0  0  0  0  0  0  0  0
  1  2  1  0
  2  3  1  0
  3  4  2  0
  4  5  1  0
  5  6  2  0
  6  7  1  0
  7  8  2  0
  8  9  1  0
  9 10  1  0
 10 11  1  0
 11 12  1  0
 12 13  1  0
 12 14  1  0
 14 15  2  0
 15 16  1  0
 16 17  1  6
 17 18  1  0
 18 19  1  0
 19 20  1  0
 20 21  1  0
 21 22  1  0
 22 23  1  0
 23 24  1  0
 24 25  2  0
 25 26  1  0
 26 27  2  0
 27 28  1  0
 28 29  1  0
 29 30  1  0
 30 31  1  0
 31 32  1  0
 32 33  1  0
 33 34  1  0
 27 35  1  0
 35 36  2  0
 19 37  1  0
  8  3  1  0
 16 10  1  0
 36 24  1  0
 37  6  1  0
 16  7  1  0
 34 29  1  0
  1 38  1  0
  1 39  1  0
  1 40  1  0
  4 41  1  0
  5 42  1  0
 10 43  1  6
 11 44  1  0
 11 45  1  0
 12 46  1  1
 13 47  1  0
 14 48  1  0
 15 49  1  0
 17 50  1  0
 17 51  1  0
 18 52  1  0
 18 53  1  0
 20 54  1  0
 20 55  1  0
 21 56  1  0
 21 57  1  0
 22 58  1  0
 22 59  1  0
 25 60  1  0
 26 61  1  0
 28 62  1  0
 28 63  1  0
 30 64  1  0
 30 65  1  0
 31 66  1  0
 31 67  1  0
 32 68  1  0
 32 69  1  0
 33 70  1  0
 33 71  1  0
 34 72  1  0
 34 73  1  0
 35 74  1  0
 36 75  1  0
 37 76  1  0
 37 77  1  0
M  END
$$$$
