@<TRIPOS>MOLECULE
*****
 30 33 0 0 0
SMALL
GASTEIGER

@<TRIPOS>ATOM
      1 CL          0.1766   -0.9903    2.0708 Cl      1  UNL1       -0.0812
      2 C           1.7323   -0.5802    1.4119 C.ar    1  UNL1        0.0708
      3 C           2.9436   -0.7409    2.0844 C.ar    1  UNL1        0.0226
      4 N           3.9417   -0.2990    1.2636 N.ar    1  UNL1       -0.3443
      5 C           3.4557    0.1431    0.0894 C.ar    1  UNL1        0.1446
      6 C           2.0984   -0.0398    0.2028 C.ar    1  UNL1        0.0768
      7 C           1.2023    0.2902   -0.7836 C.ar    1  UNL1        0.1355
      8 N           1.6857    0.8314   -1.9397 N.ar    1  UNL1       -0.2200
      9 C           3.0331    1.0184   -2.0637 C.ar    1  UNL1        0.1204
     10 N           3.8860    0.6731   -1.0546 N.ar    1  UNL1       -0.2178
     11 N          -0.2070    0.1617   -0.9115 N.pl3   1  UNL1       -0.3083
     12 C          -0.7303   -1.1697   -1.1158 C.3     1  UNL1        0.0193
     13 C          -2.0841   -1.4117   -0.5191 C.3     1  UNL1        0.0051
     14 C          -2.6215   -0.2210    0.1430 C.ar    1  UNL1        0.0416
     15 C          -2.1993    1.0865    0.0484 C.ar    1  UNL1        0.0793
     16 C          -1.0427    1.3494   -0.8434 C.3     1  UNL1        0.0574
     17 N          -2.9625    1.8889    0.8216 N.ar    1  UNL1       -0.2390
     18 C          -3.8712    1.0868    1.4078 C.ar    1  UNL1        0.0939
     19 N          -3.6760   -0.1829    1.0076 N.ar    1  UNL1       -0.3479
     20 H           3.0566   -1.1469    3.0834 H       1  UNL1        0.0822
     21 H           4.9656   -0.2902    1.4859 H       1  UNL1        0.1668
     22 H           3.4934    1.4481   -2.9638 H       1  UNL1        0.1048
     23 H          -0.0263   -1.9261   -0.7143 H       1  UNL1        0.0468
     24 H          -0.7675   -1.3383   -2.2322 H       1  UNL1        0.0468
     25 H          -2.0306   -2.2492    0.2411 H       1  UNL1        0.0343
     26 H          -2.7749   -1.7217   -1.3543 H       1  UNL1        0.0343
     27 H          -0.4003    2.1641   -0.4517 H       1  UNL1        0.0529
     28 H          -1.3657    1.6376   -1.8667 H       1  UNL1        0.0529
     29 H          -4.6202    1.4859    2.0926 H       1  UNL1        0.1027
     30 H          -4.2909   -0.9574    1.3601 H       1  UNL1        0.1665
@<TRIPOS>BOND
     1     1     2    1
     2     2     3   ar
     3     3     4   ar
     4     4     5   ar
     5     5     6   ar
     6     6     7   ar
     7     7     8   ar
     8     8     9   ar
     9     9    10   ar
    10     7    11    1
    11    11    12    1
    12    12    13    1
    13    13    14    1
    14    14    15   ar
    15    15    16    1
    16    15    17   ar
    17    17    18   ar
    18    18    19   ar
    19     6     2   ar
    20    16    11    1
    21    10     5   ar
    22    19    14   ar
    23     3    20    1
    24     4    21    1
    25     9    22    1
    26    12    23    1
    27    12    24    1
    28    13    25    1
    29    13    26    1
    30    16    27    1
    31    16    28    1
    32    18    29    1
    33    19    30    1
