
     RDKit          3D

 30 33  0  0  0  0  0  0  0  0999 V2000
    0.1766   -0.9903    2.0708 Cl  0  0  0  0  0  0  0  0  0  0  0  0
    1.7323   -0.5802    1.4119 C   0  0  0  0  0  0  0  0  0  0  0  0
    2.9436   -0.7409    2.0844 C   0  0  0  0  0  0  0  0  0  0  0  0
    3.9417   -0.2990    1.2636 N   0  0  0  0  0  0  0  0  0  0  0  0
    3.4557    0.1431    0.0894 C   0  0  0  0  0  0  0  0  0  0  0  0
    2.0984   -0.0398    0.2028 C   0  0  0  0  0  0  0  0  0  0  0  0
    1.2023    0.2902   -0.7836 C   0  0  0  0  0  0  0  0  0  0  0  0
    1.6857    0.8314   -1.9397 N   0  0  0  0  0  0  0  0  0  0  0  0
    3.0331    1.0184   -2.0637 C   0  0  0  0  0  0  0  0  0  0  0  0
    3.8860    0.6731   -1.0546 N   0  0  0  0  0  0  0  0  0  0  0  0
   -0.2070    0.1617   -0.9115 N   0  0  0  0  0  0  0  0  0  0  0  0
   -0.7303   -1.1697   -1.1158 C   0  0  0  0  0  0  0  0  0  0  0  0
   -2.0841   -1.4117   -0.5191 C   0  0  0  0  0  0  0  0  0  0  0  0
   -2.6215   -0.2210    0.1430 C   0  0  0  0  0  0  0  0  0  0  0  0
   -2.1993    1.0865    0.0484 C   0  0  0  0  0  0  0  0  0  0  0  0
   -1.0427    1.3494   -0.8434 C   0  0  0  0  0  0  0  0  0  0  0  0
   -2.9625    1.8889    0.8216 N   0  0  0  0  0  0  0  0  0  0  0  0
   -3.8712    1.0868    1.4078 C   0  0  0  0  0  0  0  0  0  0  0  0
   -3.6760   -0.1829    1.0076 N   0  0  0  0  0  0  0  0  0  0  0  0
    3.0566   -1.1469    3.0834 H   0  0  0  0  0  0  0  0  0  0  0  0
    4.9656   -0.2902    1.4859 H   0  0  0  0  0  0  0  0  0  0  0  0
    3.4934    1.4481   -2.9638 H   0  0  0  0  0  0  0  0  0  0  0  0
   -0.0263   -1.9261   -0.7143 H   0  0  0  0  0  0  0  0  0  0  0  0
   -0.7675   -1.3383   -2.2322 H   0  0  0  0  0  0  0  0  0  0  0  0
   -2.0306   -2.2492    0.2411 H   0  0  0  0  0  0  0  0  0  0  0  0
   -2.7749   -1.7217   -1.3543 H   0  0  0  0  0  0  0  0  0  0  0  0
   -0.4003    2.1641   -0.4517 H   0  0  0  0  0  0  0  0  0  0  0  0
   -1.3657    1.6376   -1.8667 H   0  0  0  0  0  0  0  0  0  0  0  0
   -4.6202    1.4859    2.0926 H   0  0  0  0  0  0  0  0  0  0  0  0
   -4.2909   -0.9574    1.3601 H   0  0  0  0  0  0  0  0  0  0  0  0
  1  2  1  0
  2  3  2  0
  3  4  1  0
  4  5  1  0
  5  6  2  0
  6  7  1  0
  7  8  2  0
  8  9  1  0
  9 10  2  0
  7 11  1  0
 11 12  1  0
 12 13  1  0
 13 14  1  0
 14 15  2  0
 15 16  1  0
 15 17  1  0
 17 18  2  0
 18 19  1  0
  6  2  1  0
 16 11  1  0
 10  5  1  0
 19 14  1  0
  3 20  1  0
  4 21  1  0
  9 22  1  0
 12 23  1  0
 12 24  1  0
 13 25  1  0
 13 26  1  0
 16 27  1  0
 16 28  1  0
 18 29  1  0
 19 30  1  0
M  END
$$$$
