@<TRIPOS>MOLECULE
*****
 152 157 0 0 0
SMALL
GASTEIGER

@<TRIPOS>ATOM
      1 C         -12.6707    1.0176    0.4185 C.3     1  UNL1        0.0790
      2 O         -12.6440   -0.3401    0.8244 O.3     1  UNL1       -0.4913
      3 C         -11.6183   -1.1583    0.3179 C.ar    1  UNL1        0.1654
      4 C         -10.6930   -0.6146   -0.5465 C.ar    1  UNL1       -0.0127
      5 C          -9.6618   -1.3493   -1.0815 C.ar    1  UNL1       -0.0346
      6 C          -8.6775   -0.7510   -2.0059 C.3     1  UNL1        0.0203
      7 C          -7.4305   -0.2387   -1.3439 C.3     1  UNL1        0.0145
      8 C          -7.7380    0.7992   -0.3445 C.ar    1  UNL1        0.0493
      9 C          -7.5310    0.6357    1.0495 C.ar    1  UNL1        0.1739
     10 O          -6.9997   -0.6018    1.2861 O.3     1  UNL1       -0.4908
     11 C          -7.8138   -1.6593    1.8532 C.3     1  UNL1        0.0790
     12 C          -7.8910    1.7152    1.8154 C.ar    1  UNL1        0.2040
     13 O          -7.6544    1.4483    3.1734 O.3     1  UNL1       -0.4885
     14 C          -8.7284    0.8832    3.9019 C.3     1  UNL1        0.0791
     15 C          -8.4096    2.8863    1.3168 C.ar    1  UNL1        0.1655
     16 O          -8.6866    3.8039    2.2953 O.3     1  UNL1       -0.4913
     17 C          -9.2061    5.0751    2.0735 C.3     1  UNL1        0.0790
     18 C          -8.6039    3.0422   -0.0627 C.ar    1  UNL1       -0.0122
     19 C          -8.2529    1.9771   -0.8544 C.ar    1  UNL1       -0.0266
     20 C          -8.3260    2.1908   -2.3278 C.3     1  UNL1        0.0135
     21 C          -7.4298    1.3222   -3.1327 C.3     1  UNL1       -0.0257
     22 N          -6.5777    0.4166   -2.3325 N.4     1  UNL1        0.2472
     23 C          -6.1148   -0.6150   -3.2366 C.3     1  UNL1       -0.0407
     24 C          -5.5611    1.1781   -1.7464 C.3     1  UNL1       -0.0266
     25 C          -4.1782    0.6173   -1.5961 C.3     1  UNL1        0.0219
     26 C          -4.0794   -0.5906   -0.7142 C.3     1  UNL1        0.0973
     27 O          -2.7865   -1.1217   -0.5545 O.3     1  UNL1       -0.4644
     28 C          -1.7218   -0.4591   -0.0485 C.2     1  UNL1        0.3076
     29 O          -1.8163    0.7230    0.3181 O.2     1  UNL1       -0.2508
     30 C          -0.5779   -1.4063   -0.0513 C.3     1  UNL1        0.0550
     31 C           0.7098   -0.7994    0.4713 C.3     1  UNL1        0.0550
     32 C           1.1341    0.3379   -0.4211 C.2     1  UNL1        0.3076
     33 O           2.1926    1.0154   -0.4184 O.2     1  UNL1       -0.2508
     34 O           2.2076    1.0331   -0.4271 O.3     1  UNL1       -0.4644
     35 C           3.3140    1.7303   -0.4112 C.3     1  UNL1        0.0973
     36 C           4.6414    0.9313   -0.3691 C.3     1  UNL1        0.0219
     37 C           4.7555    0.1376    0.8730 C.3     1  UNL1       -0.0266
     38 N           5.8779   -0.6747    1.1455 N.4     1  UNL1        0.2472
     39 C           5.7640   -0.8614    2.6415 C.3     1  UNL1       -0.0407
     40 C           5.6607   -2.0127    0.6656 C.3     1  UNL1       -0.0257
     41 C           6.9278   -2.8430    0.9619 C.3     1  UNL1        0.0135
     42 C           7.8487   -2.2916   -0.1105 C.ar    1  UNL1       -0.0266
     43 C           8.4448   -3.2449   -0.9318 C.ar    1  UNL1       -0.0122
     44 C           9.1597   -2.6763   -1.9295 C.ar    1  UNL1        0.1655
     45 O           9.8206   -3.5352   -2.8350 O.3     1  UNL1       -0.4913
     46 C           9.6759   -4.9332   -2.6112 C.3     1  UNL1        0.0790
     47 C           9.3133   -1.3322   -2.1633 C.ar    1  UNL1        0.2040
     48 O          10.0480   -0.8014   -3.1999 O.3     1  UNL1       -0.4885
     49 C          11.4231   -0.5455   -3.0021 C.3     1  UNL1        0.0791
     50 C           8.6540   -0.5468   -1.2550 C.ar    1  UNL1        0.1739
     51 O           8.8015    0.7870   -1.4943 O.3     1  UNL1       -0.4908
     52 C           7.9412    1.5110   -2.3869 C.3     1  UNL1        0.0790
     53 C           7.8804   -0.8655   -0.1634 C.ar    1  UNL1        0.0493
     54 C           7.2104   -0.2206    0.9514 C.3     1  UNL1        0.0145
     55 C           7.5348    1.1041    1.4754 C.3     1  UNL1        0.0203
     56 C           8.8857    1.6483    1.2894 C.ar    1  UNL1       -0.0346
     57 C           9.9646    1.0851    1.9081 C.ar    1  UNL1       -0.0127
     58 C          11.2793    1.5012    1.8851 C.ar    1  UNL1        0.1654
     59 O          12.3412    0.8918    2.5355 O.3     1  UNL1       -0.4913
     60 C          12.0134   -0.2846    3.2931 C.3     1  UNL1        0.0790
     61 C          11.4694    2.6528    1.1132 C.ar    1  UNL1        0.2035
     62 O          12.7599    3.2041    0.9920 O.3     1  UNL1       -0.4885
     63 C          13.5177    2.6867   -0.0967 C.3     1  UNL1        0.0791
     64 C          10.4811    3.3228    0.4396 C.ar    1  UNL1        0.1654
     65 O          10.7245    4.4575   -0.3036 O.3     1  UNL1       -0.4913
     66 C           9.6510    5.1669   -0.9398 C.3     1  UNL1        0.0790
     67 C           9.2167    2.7994    0.5496 C.ar    1  UNL1       -0.0127
     68 C          -9.5056   -2.6832   -0.7705 C.ar    1  UNL1       -0.0127
     69 C         -10.4366   -3.1947    0.0939 C.ar    1  UNL1        0.1654
     70 O         -10.4611   -4.5115    0.5570 O.3     1  UNL1       -0.4913
     71 C          -9.5794   -5.5261    0.2461 C.3     1  UNL1        0.0790
     72 C         -11.4803   -2.5079    0.6472 C.ar    1  UNL1        0.2035
     73 O         -12.4647   -2.9743    1.5262 O.3     1  UNL1       -0.4885
     74 C         -12.2106   -2.9595    2.9393 C.3     1  UNL1        0.0791
     75 H         -13.5727    1.5391    0.7505 H       1  UNL1        0.0660
     76 H         -12.6500    1.0605   -0.6843 H       1  UNL1        0.0660
     77 H         -11.7970    1.5305    0.8397 H       1  UNL1        0.0660
     78 H         -10.7185    0.4259   -0.8549 H       1  UNL1        0.0658
     79 H          -9.2078   -0.0702   -2.6583 H       1  UNL1        0.0372
     80 H          -8.3159   -1.5874   -2.7059 H       1  UNL1        0.0372
     81 H          -6.8917   -1.0680   -0.8990 H       1  UNL1        0.0909
     82 H          -7.5481   -2.5801    1.3014 H       1  UNL1        0.0660
     83 H          -7.4192   -1.8214    2.8992 H       1  UNL1        0.0660
     84 H          -8.8757   -1.4058    1.8800 H       1  UNL1        0.0660
     85 H          -8.3002    0.0960    4.5550 H       1  UNL1        0.0660
     86 H          -9.4696    0.4849    3.2084 H       1  UNL1        0.0660
     87 H          -9.2417    1.6387    4.5368 H       1  UNL1        0.0660
     88 H          -9.4143    5.5264    3.0748 H       1  UNL1        0.0660
     89 H         -10.1270    5.0002    1.4542 H       1  UNL1        0.0660
     90 H          -8.4529    5.6934    1.5568 H       1  UNL1        0.0660
     91 H          -9.0113    3.9909   -0.3807 H       1  UNL1        0.0658
     92 H          -8.0189    3.2918   -2.4612 H       1  UNL1        0.0365
     93 H          -9.3749    2.1611   -2.6332 H       1  UNL1        0.0365
     94 H          -6.6712    1.9837   -3.6482 H       1  UNL1        0.0818
     95 H          -7.9478    0.7906   -3.9516 H       1  UNL1        0.0818
     96 H          -6.2964   -1.6572   -2.8320 H       1  UNL1        0.0778
     97 H          -6.7379   -0.5846   -4.1899 H       1  UNL1        0.0778
     98 H          -5.0474   -0.4979   -3.5288 H       1  UNL1        0.0778
     99 H          -5.4473    2.1682   -2.2872 H       1  UNL1        0.0816
    100 H          -5.9023    1.4626   -0.6880 H       1  UNL1        0.0816
    101 H          -3.6173    0.4996   -2.5412 H       1  UNL1        0.0350
    102 H          -3.5752    1.4247   -1.0465 H       1  UNL1        0.0350
    103 H          -4.7205   -1.4239   -1.1057 H       1  UNL1        0.0699
    104 H          -4.4442   -0.2672    0.3095 H       1  UNL1        0.0699
    105 H          -0.4244   -1.7084   -1.1360 H       1  UNL1        0.0383
    106 H          -0.8218   -2.3046    0.5182 H       1  UNL1        0.0383
    107 H           1.4819   -1.5825    0.3496 H       1  UNL1        0.0383
    108 H           0.6645   -0.5079    1.5147 H       1  UNL1        0.0383
    109 H           3.4873    2.4400   -1.2855 H       1  UNL1        0.0699
    110 H           3.3390    2.4828    0.4534 H       1  UNL1        0.0699
    111 H           4.6487    0.2537   -1.2414 H       1  UNL1        0.0350
    112 H           5.4106    1.7005   -0.5414 H       1  UNL1        0.0350
    113 H           4.4402    0.7525    1.7921 H       1  UNL1        0.0816
    114 H           3.8780   -0.5943    0.8543 H       1  UNL1        0.0816
    115 H           4.8813   -1.4571    2.8535 H       1  UNL1        0.0778
    116 H           5.5843    0.1730    3.0075 H       1  UNL1        0.0778
    117 H           6.7064   -1.1786    3.0685 H       1  UNL1        0.0778
    118 H           5.5400   -2.0088   -0.4349 H       1  UNL1        0.0818
    119 H           4.8528   -2.5672    1.1279 H       1  UNL1        0.0818
    120 H           7.3002   -2.7644    1.9606 H       1  UNL1        0.0365
    121 H           6.6639   -3.8876    0.7259 H       1  UNL1        0.0365
    122 H           8.3127   -4.2793   -0.7293 H       1  UNL1        0.0658
    123 H           8.6317   -5.2774   -2.7312 H       1  UNL1        0.0660
    124 H          10.3648   -5.4987   -3.3104 H       1  UNL1        0.0660
    125 H          10.0075   -5.2078   -1.5927 H       1  UNL1        0.0660
    126 H          11.6645   -0.4321   -1.9293 H       1  UNL1        0.0660
    127 H          12.0365   -1.3675   -3.4376 H       1  UNL1        0.0660
    128 H          11.6727    0.4378   -3.4599 H       1  UNL1        0.0660
    129 H           6.8887    1.2893   -2.2697 H       1  UNL1        0.0660
    130 H           8.2920    1.2423   -3.4386 H       1  UNL1        0.0660
    131 H           8.1643    2.5895   -2.3120 H       1  UNL1        0.0660
    132 H           7.7890   -0.8646    1.8459 H       1  UNL1        0.0909
    133 H           6.7496    1.8910    1.2750 H       1  UNL1        0.0372
    134 H           7.4782    1.0982    2.6280 H       1  UNL1        0.0372
    135 H           9.7829    0.1804    2.5056 H       1  UNL1        0.0658
    136 H          11.4869   -1.0141    2.6438 H       1  UNL1        0.0660
    137 H          12.9430   -0.7901    3.5976 H       1  UNL1        0.0660
    138 H          11.3320   -0.0629    4.1367 H       1  UNL1        0.0660
    139 H          13.2182    3.1114   -1.0781 H       1  UNL1        0.0660
    140 H          14.6010    2.7962    0.0822 H       1  UNL1        0.0660
    141 H          13.2846    1.5817   -0.1677 H       1  UNL1        0.0660
    142 H           8.7740    5.2485   -0.2437 H       1  UNL1        0.0660
    143 H           9.3532    4.6008   -1.8276 H       1  UNL1        0.0660
    144 H           9.9756    6.1791   -1.2495 H       1  UNL1        0.0660
    145 H           8.3750    3.2838    0.0397 H       1  UNL1        0.0658
    146 H          -8.7482   -3.3248   -1.1854 H       1  UNL1        0.0658
    147 H          -8.8877   -5.2532   -0.5841 H       1  UNL1        0.0660
    148 H          -8.9429   -5.7653    1.1311 H       1  UNL1        0.0660
    149 H         -10.0907   -6.4964    0.0023 H       1  UNL1        0.0660
    150 H         -11.7119   -2.0118    3.1607 H       1  UNL1        0.0660
    151 H         -11.4910   -3.8124    3.1290 H       1  UNL1        0.0660
    152 H         -13.1517   -3.1225    3.4894 H       1  UNL1        0.0660
@<TRIPOS>UNITY_ATOM_ATTR
22 1
charge 1
38 1
charge 1
@<TRIPOS>BOND
     1     1     2    1
     2     2     3    1
     3     3     4   ar
     4     4     5   ar
     5     5     6    1
     6     6     7    1
     7     7     8    1
     8     8     9   ar
     9     9    10    1
    10    10    11    1
    11     9    12   ar
    12    12    13    1
    13    13    14    1
    14    12    15   ar
    15    15    16    1
    16    16    17    1
    17    15    18   ar
    18    18    19   ar
    19    19    20    1
    20    20    21    1
    21    21    22    1
    22    22    23    1
    23    22    24    1
    24    24    25    1
    25    25    26    1
    26    26    27    1
    27    27    28    1
    28    28    29    2
    29    28    30    1
    30    30    31    1
    31    31    32    1
    32    32    33    2
    33    32    34    1
    34    34    35    1
    35    35    36    1
    36    36    37    1
    37    37    38    1
    38    38    39    1
    39    38    40    1
    40    40    41    1
    41    41    42    1
    42    42    43   ar
    43    43    44   ar
    44    44    45    1
    45    45    46    1
    46    44    47   ar
    47    47    48    1
    48    48    49    1
    49    47    50   ar
    50    50    51    1
    51    51    52    1
    52    50    53   ar
    53    53    54    1
    54    54    55    1
    55    55    56    1
    56    56    57   ar
    57    57    58   ar
    58    58    59    1
    59    59    60    1
    60    58    61   ar
    61    61    62    1
    62    62    63    1
    63    61    64   ar
    64    64    65    1
    65    65    66    1
    66    64    67   ar
    67     5    68   ar
    68    68    69   ar
    69    69    70    1
    70    70    71    1
    71    69    72   ar
    72    72    73    1
    73    73    74    1
    74    72     3   ar
    75    22     7    1
    76    54    38    1
    77    67    56   ar
    78    19     8   ar
    79    53    42   ar
    80     1    75    1
    81     1    76    1
    82     1    77    1
    83     4    78    1
    84     6    79    1
    85     6    80    1
    86     7    81    1
    87    11    82    1
    88    11    83    1
    89    11    84    1
    90    14    85    1
    91    14    86    1
    92    14    87    1
    93    17    88    1
    94    17    89    1
    95    17    90    1
    96    18    91    1
    97    20    92    1
    98    20    93    1
    99    21    94    1
   100    21    95    1
   101    23    96    1
   102    23    97    1
   103    23    98    1
   104    24    99    1
   105    24   100    1
   106    25   101    1
   107    25   102    1
   108    26   103    1
   109    26   104    1
   110    30   105    1
   111    30   106    1
   112    31   107    1
   113    31   108    1
   114    35   109    1
   115    35   110    1
   116    36   111    1
   117    36   112    1
   118    37   113    1
   119    37   114    1
   120    39   115    1
   121    39   116    1
   122    39   117    1
   123    40   118    1
   124    40   119    1
   125    41   120    1
   126    41   121    1
   127    43   122    1
   128    46   123    1
   129    46   124    1
   130    46   125    1
   131    49   126    1
   132    49   127    1
   133    49   128    1
   134    52   129    1
   135    52   130    1
   136    52   131    1
   137    54   132    1
   138    55   133    1
   139    55   134    1
   140    57   135    1
   141    60   136    1
   142    60   137    1
   143    60   138    1
   144    63   139    1
   145    63   140    1
   146    63   141    1
   147    66   142    1
   148    66   143    1
   149    66   144    1
   150    67   145    1
   151    68   146    1
   152    71   147    1
   153    71   148    1
   154    71   149    1
   155    74   150    1
   156    74   151    1
   157    74   152    1
