
     RDKit          3D

152157  0  0  0  0  0  0  0  0999 V2000
  -12.6707    1.0176    0.4185 C   0  0  0  0  0  0  0  0  0  0  0  0
  -12.6440   -0.3401    0.8244 O   0  0  0  0  0  0  0  0  0  0  0  0
  -11.6183   -1.1583    0.3179 C   0  0  0  0  0  0  0  0  0  0  0  0
  -10.6930   -0.6146   -0.5465 C   0  0  0  0  0  0  0  0  0  0  0  0
   -9.6618   -1.3493   -1.0815 C   0  0  0  0  0  0  0  0  0  0  0  0
   -8.6775   -0.7510   -2.0059 C   0  0  0  0  0  0  0  0  0  0  0  0
   -7.4305   -0.2387   -1.3439 C   0  0  0  0  0  0  0  0  0  0  0  0
   -7.7380    0.7992   -0.3445 C   0  0  0  0  0  0  0  0  0  0  0  0
   -7.5310    0.6357    1.0495 C   0  0  0  0  0  0  0  0  0  0  0  0
   -6.9997   -0.6018    1.2861 O   0  0  0  0  0  0  0  0  0  0  0  0
   -7.8138   -1.6593    1.8532 C   0  0  0  0  0  0  0  0  0  0  0  0
   -7.8910    1.7152    1.8154 C   0  0  0  0  0  0  0  0  0  0  0  0
   -7.6544    1.4483    3.1734 O   0  0  0  0  0  0  0  0  0  0  0  0
   -8.7284    0.8832    3.9019 C   0  0  0  0  0  0  0  0  0  0  0  0
   -8.4096    2.8863    1.3168 C   0  0  0  0  0  0  0  0  0  0  0  0
   -8.6866    3.8039    2.2953 O   0  0  0  0  0  0  0  0  0  0  0  0
   -9.2061    5.0751    2.0735 C   0  0  0  0  0  0  0  0  0  0  0  0
   -8.6039    3.0422   -0.0627 C   0  0  0  0  0  0  0  0  0  0  0  0
   -8.2529    1.9771   -0.8544 C   0  0  0  0  0  0  0  0  0  0  0  0
   -8.3260    2.1908   -2.3278 C   0  0  0  0  0  0  0  0  0  0  0  0
   -7.4298    1.3222   -3.1327 C   0  0  0  0  0  0  0  0  0  0  0  0
   -6.5777    0.4166   -2.3325 N   0  0  0  0  0  4  0  0  0  0  0  0
   -6.1148   -0.6150   -3.2366 C   0  0  0  0  0  0  0  0  0  0  0  0
   -5.5611    1.1781   -1.7464 C   0  0  0  0  0  0  0  0  0  0  0  0
   -4.1782    0.6173   -1.5961 C   0  0  0  0  0  0  0  0  0  0  0  0
   -4.0794   -0.5906   -0.7142 C   0  0  0  0  0  0  0  0  0  0  0  0
   -2.7865   -1.1217   -0.5545 O   0  0  0  0  0  0  0  0  0  0  0  0
   -1.7218   -0.4591   -0.0485 C   0  0  0  0  0  0  0  0  0  0  0  0
   -1.8163    0.7230    0.3181 O   0  0  0  0  0  0  0  0  0  0  0  0
   -0.5779   -1.4063   -0.0513 C   0  0  0  0  0  0  0  0  0  0  0  0
    0.7098   -0.7994    0.4713 C   0  0  0  0  0  0  0  0  0  0  0  0
    1.1341    0.3379   -0.4211 C   0  0  0  0  0  0  0  0  0  0  0  0
    2.1926    1.0154   -0.4184 O   0  0  0  0  0  0  0  0  0  0  0  0
    2.2076    1.0331   -0.4271 O   0  0  0  0  0  0  0  0  0  0  0  0
    3.3140    1.7303   -0.4112 C   0  0  0  0  0  0  0  0  0  0  0  0
    4.6414    0.9313   -0.3691 C   0  0  0  0  0  0  0  0  0  0  0  0
    4.7555    0.1376    0.8730 C   0  0  0  0  0  0  0  0  0  0  0  0
    5.8779   -0.6747    1.1455 N   0  0  0  0  0  4  0  0  0  0  0  0
    5.7640   -0.8614    2.6415 C   0  0  0  0  0  0  0  0  0  0  0  0
    5.6607   -2.0127    0.6656 C   0  0  0  0  0  0  0  0  0  0  0  0
    6.9278   -2.8430    0.9619 C   0  0  0  0  0  0  0  0  0  0  0  0
    7.8487   -2.2916   -0.1105 C   0  0  0  0  0  0  0  0  0  0  0  0
    8.4448   -3.2449   -0.9318 C   0  0  0  0  0  0  0  0  0  0  0  0
    9.1597   -2.6763   -1.9295 C   0  0  0  0  0  0  0  0  0  0  0  0
    9.8206   -3.5352   -2.8350 O   0  0  0  0  0  0  0  0  0  0  0  0
    9.6759   -4.9332   -2.6112 C   0  0  0  0  0  0  0  0  0  0  0  0
    9.3133   -1.3322   -2.1633 C   0  0  0  0  0  0  0  0  0  0  0  0
   10.0480   -0.8014   -3.1999 O   0  0  0  0  0  0  0  0  0  0  0  0
   11.4231   -0.5455   -3.0021 C   0  0  0  0  0  0  0  0  0  0  0  0
    8.6540   -0.5468   -1.2550 C   0  0  0  0  0  0  0  0  0  0  0  0
    8.8015    0.7870   -1.4943 O   0  0  0  0  0  0  0  0  0  0  0  0
    7.9412    1.5110   -2.3869 C   0  0  0  0  0  0  0  0  0  0  0  0
    7.8804   -0.8655   -0.1634 C   0  0  0  0  0  0  0  0  0  0  0  0
    7.2104   -0.2206    0.9514 C   0  0  0  0  0  0  0  0  0  0  0  0
    7.5348    1.1041    1.4754 C   0  0  0  0  0  0  0  0  0  0  0  0
    8.8857    1.6483    1.2894 C   0  0  0  0  0  0  0  0  0  0  0  0
    9.9646    1.0851    1.9081 C   0  0  0  0  0  0  0  0  0  0  0  0
   11.2793    1.5012    1.8851 C   0  0  0  0  0  0  0  0  0  0  0  0
   12.3412    0.8918    2.5355 O   0  0  0  0  0  0  0  0  0  0  0  0
   12.0134   -0.2846    3.2931 C   0  0  0  0  0  0  0  0  0  0  0  0
   11.4694    2.6528    1.1132 C   0  0  0  0  0  0  0  0  0  0  0  0
   12.7599    3.2041    0.9920 O   0  0  0  0  0  0  0  0  0  0  0  0
   13.5177    2.6867   -0.0967 C   0  0  0  0  0  0  0  0  0  0  0  0
   10.4811    3.3228    0.4396 C   0  0  0  0  0  0  0  0  0  0  0  0
   10.7245    4.4575   -0.3036 O   0  0  0  0  0  0  0  0  0  0  0  0
    9.6510    5.1669   -0.9398 C   0  0  0  0  0  0  0  0  0  0  0  0
    9.2167    2.7994    0.5496 C   0  0  0  0  0  0  0  0  0  0  0  0
   -9.5056   -2.6832   -0.7705 C   0  0  0  0  0  0  0  0  0  0  0  0
  -10.4366   -3.1947    0.0939 C   0  0  0  0  0  0  0  0  0  0  0  0
  -10.4611   -4.5115    0.5570 O   0  0  0  0  0  0  0  0  0  0  0  0
   -9.5794   -5.5261    0.2461 C   0  0  0  0  0  0  0  0  0  0  0  0
  -11.4803   -2.5079    0.6472 C   0  0  0  0  0  0  0  0  0  0  0  0
  -12.4647   -2.9743    1.5262 O   0  0  0  0  0  0  0  0  0  0  0  0
  -12.2106   -2.9595    2.9393 C   0  0  0  0  0  0  0  0  0  0  0  0
  -13.5727    1.5391    0.7505 H   0  0  0  0  0  0  0  0  0  0  0  0
  -12.6500    1.0605   -0.6843 H   0  0  0  0  0  0  0  0  0  0  0  0
  -11.7970    1.5305    0.8397 H   0  0  0  0  0  0  0  0  0  0  0  0
  -10.7185    0.4259   -0.8549 H   0  0  0  0  0  0  0  0  0  0  0  0
   -9.2078   -0.0702   -2.6583 H   0  0  0  0  0  0  0  0  0  0  0  0
   -8.3159   -1.5874   -2.7059 H   0  0  0  0  0  0  0  0  0  0  0  0
   -6.8917   -1.0680   -0.8990 H   0  0  0  0  0  0  0  0  0  0  0  0
   -7.5481   -2.5801    1.3014 H   0  0  0  0  0  0  0  0  0  0  0  0
   -7.4192   -1.8214    2.8992 H   0  0  0  0  0  0  0  0  0  0  0  0
   -8.8757   -1.4058    1.8800 H   0  0  0  0  0  0  0  0  0  0  0  0
   -8.3002    0.0960    4.5550 H   0  0  0  0  0  0  0  0  0  0  0  0
   -9.4696    0.4849    3.2084 H   0  0  0  0  0  0  0  0  0  0  0  0
   -9.2417    1.6387    4.5368 H   0  0  0  0  0  0  0  0  0  0  0  0
   -9.4143    5.5264    3.0748 H   0  0  0  0  0  0  0  0  0  0  0  0
  -10.1270    5.0002    1.4542 H   0  0  0  0  0  0  0  0  0  0  0  0
   -8.4529    5.6934    1.5568 H   0  0  0  0  0  0  0  0  0  0  0  0
   -9.0113    3.9909   -0.3807 H   0  0  0  0  0  0  0  0  0  0  0  0
   -8.0189    3.2918   -2.4612 H   0  0  0  0  0  0  0  0  0  0  0  0
   -9.3749    2.1611   -2.6332 H   0  0  0  0  0  0  0  0  0  0  0  0
   -6.6712    1.9837   -3.6482 H   0  0  0  0  0  0  0  0  0  0  0  0
   -7.9478    0.7906   -3.9516 H   0  0  0  0  0  0  0  0  0  0  0  0
   -6.2964   -1.6572   -2.8320 H   0  0  0  0  0  0  0  0  0  0  0  0
   -6.7379   -0.5846   -4.1899 H   0  0  0  0  0  0  0  0  0  0  0  0
   -5.0474   -0.4979   -3.5288 H   0  0  0  0  0  0  0  0  0  0  0  0
   -5.4473    2.1682   -2.2872 H   0  0  0  0  0  0  0  0  0  0  0  0
   -5.9023    1.4626   -0.6880 H   0  0  0  0  0  0  0  0  0  0  0  0
   -3.6173    0.4996   -2.5412 H   0  0  0  0  0  0  0  0  0  0  0  0
   -3.5752    1.4247   -1.0465 H   0  0  0  0  0  0  0  0  0  0  0  0
   -4.7205   -1.4239   -1.1057 H   0  0  0  0  0  0  0  0  0  0  0  0
   -4.4442   -0.2672    0.3095 H   0  0  0  0  0  0  0  0  0  0  0  0
   -0.4244   -1.7084   -1.1360 H   0  0  0  0  0  0  0  0  0  0  0  0
   -0.8218   -2.3046    0.5182 H   0  0  0  0  0  0  0  0  0  0  0  0
    1.4819   -1.5825    0.3496 H   0  0  0  0  0  0  0  0  0  0  0  0
    0.6645   -0.5079    1.5147 H   0  0  0  0  0  0  0  0  0  0  0  0
    3.4873    2.4400   -1.2855 H   0  0  0  0  0  0  0  0  0  0  0  0
    3.3390    2.4828    0.4534 H   0  0  0  0  0  0  0  0  0  0  0  0
    4.6487    0.2537   -1.2414 H   0  0  0  0  0  0  0  0  0  0  0  0
    5.4106    1.7005   -0.5414 H   0  0  0  0  0  0  0  0  0  0  0  0
    4.4402    0.7525    1.7921 H   0  0  0  0  0  0  0  0  0  0  0  0
    3.8780   -0.5943    0.8543 H   0  0  0  0  0  0  0  0  0  0  0  0
    4.8813   -1.4571    2.8535 H   0  0  0  0  0  0  0  0  0  0  0  0
    5.5843    0.1730    3.0075 H   0  0  0  0  0  0  0  0  0  0  0  0
    6.7064   -1.1786    3.0685 H   0  0  0  0  0  0  0  0  0  0  0  0
    5.5400   -2.0088   -0.4349 H   0  0  0  0  0  0  0  0  0  0  0  0
    4.8528   -2.5672    1.1279 H   0  0  0  0  0  0  0  0  0  0  0  0
    7.3002   -2.7644    1.9606 H   0  0  0  0  0  0  0  0  0  0  0  0
    6.6639   -3.8876    0.7259 H   0  0  0  0  0  0  0  0  0  0  0  0
    8.3127   -4.2793   -0.7293 H   0  0  0  0  0  0  0  0  0  0  0  0
    8.6317   -5.2774   -2.7312 H   0  0  0  0  0  0  0  0  0  0  0  0
   10.3648   -5.4987   -3.3104 H   0  0  0  0  0  0  0  0  0  0  0  0
   10.0075   -5.2078   -1.5927 H   0  0  0  0  0  0  0  0  0  0  0  0
   11.6645   -0.4321   -1.9293 H   0  0  0  0  0  0  0  0  0  0  0  0
   12.0365   -1.3675   -3.4376 H   0  0  0  0  0  0  0  0  0  0  0  0
   11.6727    0.4378   -3.4599 H   0  0  0  0  0  0  0  0  0  0  0  0
    6.8887    1.2893   -2.2697 H   0  0  0  0  0  0  0  0  0  0  0  0
    8.2920    1.2423   -3.4386 H   0  0  0  0  0  0  0  0  0  0  0  0
    8.1643    2.5895   -2.3120 H   0  0  0  0  0  0  0  0  0  0  0  0
    7.7890   -0.8646    1.8459 H   0  0  0  0  0  0  0  0  0  0  0  0
    6.7496    1.8910    1.2750 H   0  0  0  0  0  0  0  0  0  0  0  0
    7.4782    1.0982    2.6280 H   0  0  0  0  0  0  0  0  0  0  0  0
    9.7829    0.1804    2.5056 H   0  0  0  0  0  0  0  0  0  0  0  0
   11.4869   -1.0141    2.6438 H   0  0  0  0  0  0  0  0  0  0  0  0
   12.9430   -0.7901    3.5976 H   0  0  0  0  0  0  0  0  0  0  0  0
   11.3320   -0.0629    4.1367 H   0  0  0  0  0  0  0  0  0  0  0  0
   13.2182    3.1114   -1.0781 H   0  0  0  0  0  0  0  0  0  0  0  0
   14.6010    2.7962    0.0822 H   0  0  0  0  0  0  0  0  0  0  0  0
   13.2846    1.5817   -0.1677 H   0  0  0  0  0  0  0  0  0  0  0  0
    8.7740    5.2485   -0.2437 H   0  0  0  0  0  0  0  0  0  0  0  0
    9.3532    4.6008   -1.8276 H   0  0  0  0  0  0  0  0  0  0  0  0
    9.9756    6.1791   -1.2495 H   0  0  0  0  0  0  0  0  0  0  0  0
    8.3750    3.2838    0.0397 H   0  0  0  0  0  0  0  0  0  0  0  0
   -8.7482   -3.3248   -1.1854 H   0  0  0  0  0  0  0  0  0  0  0  0
   -8.8877   -5.2532   -0.5841 H   0  0  0  0  0  0  0  0  0  0  0  0
   -8.9429   -5.7653    1.1311 H   0  0  0  0  0  0  0  0  0  0  0  0
  -10.0907   -6.4964    0.0023 H   0  0  0  0  0  0  0  0  0  0  0  0
  -11.7119   -2.0118    3.1607 H   0  0  0  0  0  0  0  0  0  0  0  0
  -11.4910   -3.8124    3.1290 H   0  0  0  0  0  0  0  0  0  0  0  0
  -13.1517   -3.1225    3.4894 H   0  0  0  0  0  0  0  0  0  0  0  0
  1  2  1  0
  2  3  1  0
  3  4  2  0
  4  5  1  0
  5  6  1  0
  6  7  1  0
  7  8  1  0
  8  9  2  0
  9 10  1  0
 10 11  1  0
  9 12  1  0
 12 13  1  0
 13 14  1  0
 12 15  2  0
 15 16  1  0
 16 17  1  0
 15 18  1  0
 18 19  2  0
 19 20  1  0
 20 21  1  0
 21 22  1  0
 22 23  1  0
 22 24  1  0
 24 25  1  0
 25 26  1  0
 26 27  1  0
 27 28  1  0
 28 29  2  0
 28 30  1  0
 30 31  1  0
 31 32  1  0
 32 33  2  0
 32 34  1  0
 34 35  1  0
 35 36  1  0
 36 37  1  0
 37 38  1  0
 38 39  1  0
 38 40  1  0
 40 41  1  0
 41 42  1  0
 42 43  2  0
 43 44  1  0
 44 45  1  0
 45 46  1  0
 44 47  2  0
 47 48  1  0
 48 49  1  0
 47 50  1  0
 50 51  1  0
 51 52  1  0
 50 53  2  0
 53 54  1  0
 54 55  1  0
 55 56  1  0
 56 57  2  0
 57 58  1  0
 58 59  1  0
 59 60  1  0
 58 61  2  0
 61 62  1  0
 62 63  1  0
 61 64  1  0
 64 65  1  0
 65 66  1  0
 64 67  2  0
  5 68  2  0
 68 69  1  0
 69 70  1  0
 70 71  1  0
 69 72  2  0
 72 73  1  0
 73 74  1  0
 72  3  1  0
 22  7  1  0
 54 38  1  0
 67 56  1  0
 19  8  1  0
 53 42  1  0
  1 75  1  0
  1 76  1  0
  1 77  1  0
  4 78  1  0
  6 79  1  0
  6 80  1  0
  7 81  1  0
 11 82  1  0
 11 83  1  0
 11 84  1  0
 14 85  1  0
 14 86  1  0
 14 87  1  0
 17 88  1  0
 17 89  1  0
 17 90  1  0
 18 91  1  0
 20 92  1  0
 20 93  1  0
 21 94  1  0
 21 95  1  0
 23 96  1  0
 23 97  1  0
 23 98  1  0
 24 99  1  0
 24100  1  0
 25101  1  0
 25102  1  0
 26103  1  0
 26104  1  0
 30105  1  0
 30106  1  0
 31107  1  0
 31108  1  0
 35109  1  0
 35110  1  0
 36111  1  0
 36112  1  0
 37113  1  0
 37114  1  0
 39115  1  0
 39116  1  0
 39117  1  0
 40118  1  0
 40119  1  0
 41120  1  0
 41121  1  0
 43122  1  0
 46123  1  0
 46124  1  0
 46125  1  0
 49126  1  0
 49127  1  0
 49128  1  0
 52129  1  0
 52130  1  0
 52131  1  0
 54132  1  0
 55133  1  0
 55134  1  0
 57135  1  0
 60136  1  0
 60137  1  0
 60138  1  0
 63139  1  0
 63140  1  0
 63141  1  0
 66142  1  0
 66143  1  0
 66144  1  0
 67145  1  0
 68146  1  0
 71147  1  0
 71148  1  0
 71149  1  0
 74150  1  0
 74151  1  0
 74152  1  0
M  CHG  2  22   1  38   1
M  END
$$$$
