@<TRIPOS>MOLECULE
*****
 31 32 0 0 0
SMALL
GASTEIGER

@<TRIPOS>ATOM
      1 C          -3.6199   -0.4055    0.0300 C.3     1  UNL1        0.0000
      2 C          -4.9776   -0.9479   -0.3455 C.3     1  UNL1        0.0000
      3 O          -5.6954   -1.0811    0.8473 O.3     1  UNL1        0.0000
      4 C          -3.7154    1.0134    0.5500 C.3     1  UNL1        0.0000
      5 O          -2.4757    1.6058    0.2929 O.3     1  UNL1        0.0000
      6 B          -1.7329    0.5817   -0.4656 B       1  UNL1        0.0000
      7 O          -2.7899   -0.2238   -1.0983 O.3     1  UNL1        0.0000
      8 C          -0.2412    0.2127   -0.2478 C.ar    1  UNL1        0.0000
      9 C           0.1346   -0.8287    0.5638 C.ar    1  UNL1        0.0000
     10 C           1.4722   -1.1202    0.7278 C.ar    1  UNL1        0.0000
     11 C           2.5017   -0.4052    0.1047 C.ar    1  UNL1        0.0000
     12 N           3.8573   -0.7707    0.3119 N.pl3   1  UNL1        0.3300
     13 C           4.9430    0.0155   -0.1558 C.cat   1  UNL1        0.0000
     14 N           6.0164   -0.6082   -0.8457 N.pl3   1  UNL1        0.3300
     15 N           4.9027    1.2800    0.0807 N.pl3   1  UNL1        0.3300
     16 C           2.0390    0.6184   -0.6887 C.ar    1  UNL1        0.0000
     17 C           0.7338    0.9387   -0.8772 C.ar    1  UNL1        0.0000
     18 H          -3.0874   -1.0555    0.7312 H       1  UNL1        0.0000
     19 H          -4.8527   -1.9122   -0.8541 H       1  UNL1        0.0000
     20 H          -5.4903   -0.1940   -0.9714 H       1  UNL1        0.0000
     21 H          -5.1468   -0.8914    1.6579 H       1  UNL1        0.0000
     22 H          -4.5517    1.5256    0.0494 H       1  UNL1        0.0000
     23 H          -3.8528    1.0375    1.6670 H       1  UNL1        0.0000
     24 H          -0.6351   -1.4055    1.0634 H       1  UNL1        0.0000
     25 H           1.7065   -1.9584    1.3846 H       1  UNL1        0.0000
     26 H           4.0561   -1.6696    0.8293 H       1  UNL1        0.0000
     27 H           6.9689   -0.6421   -0.3922 H       1  UNL1        0.0000
     28 H           6.1409   -1.0974   -1.7807 H       1  UNL1        0.0000
     29 H           4.1849    1.8108    0.5686 H       1  UNL1        0.0000
     30 H           2.7665    1.2184   -1.2150 H       1  UNL1        0.0000
     31 H           0.4403    1.7664   -1.5225 H       1  UNL1        0.0000
@<TRIPOS>BOND
     1     1     2    1
     2     2     3    1
     3     1     4    1
     4     4     5    1
     5     5     6    1
     6     6     7    1
     7     6     8    1
     8     8     9   ar
     9     9    10   ar
    10    10    11   ar
    11    11    12    1
    12    12    13    1
    13    13    14    1
    14    13    15    2
    15    11    16   ar
    16    16    17   ar
    17     7     1    1
    18    17     8   ar
    19     1    18    1
    20     2    19    1
    21     2    20    1
    22     3    21    1
    23     4    22    1
    24     4    23    1
    25     9    24    1
    26    10    25    1
    27    12    26    1
    28    14    27    1
    29    14    28    1
    30    15    29    1
    31    16    30    1
    32    17    31    1
