
     RDKit          3D

 31 32  0  0  0  0  0  0  0  0999 V2000
   -3.6199   -0.4055    0.0300 C   0  0  2  0  0  0  0  0  0  0  0  0
   -4.9776   -0.9479   -0.3455 C   0  0  0  0  0  0  0  0  0  0  0  0
   -5.6954   -1.0811    0.8473 O   0  0  0  0  0  0  0  0  0  0  0  0
   -3.7154    1.0134    0.5500 C   0  0  0  0  0  0  0  0  0  0  0  0
   -2.4757    1.6058    0.2929 O   0  0  0  0  0  0  0  0  0  0  0  0
   -1.7329    0.5817   -0.4656 B   0  0  0  0  0  0  0  0  0  0  0  0
   -2.7899   -0.2238   -1.0983 O   0  0  0  0  0  0  0  0  0  0  0  0
   -0.2412    0.2127   -0.2478 C   0  0  0  0  0  0  0  0  0  0  0  0
    0.1346   -0.8287    0.5638 C   0  0  0  0  0  0  0  0  0  0  0  0
    1.4722   -1.1202    0.7278 C   0  0  0  0  0  0  0  0  0  0  0  0
    2.5017   -0.4052    0.1047 C   0  0  0  0  0  0  0  0  0  0  0  0
    3.8573   -0.7707    0.3119 N   0  0  0  0  0  0  0  0  0  0  0  0
    4.9430    0.0155   -0.1558 C   0  0  0  0  0  0  0  0  0  0  0  0
    6.0164   -0.6082   -0.8457 N   0  0  0  0  0  0  0  0  0  0  0  0
    4.9027    1.2800    0.0807 N   0  0  0  0  0  0  0  0  0  0  0  0
    2.0390    0.6184   -0.6887 C   0  0  0  0  0  0  0  0  0  0  0  0
    0.7338    0.9387   -0.8772 C   0  0  0  0  0  0  0  0  0  0  0  0
   -3.0874   -1.0555    0.7312 H   0  0  0  0  0  0  0  0  0  0  0  0
   -4.8527   -1.9122   -0.8541 H   0  0  0  0  0  0  0  0  0  0  0  0
   -5.4903   -0.1940   -0.9714 H   0  0  0  0  0  0  0  0  0  0  0  0
   -5.1468   -0.8914    1.6579 H   0  0  0  0  0  0  0  0  0  0  0  0
   -4.5517    1.5256    0.0494 H   0  0  0  0  0  0  0  0  0  0  0  0
   -3.8528    1.0375    1.6670 H   0  0  0  0  0  0  0  0  0  0  0  0
   -0.6351   -1.4055    1.0634 H   0  0  0  0  0  0  0  0  0  0  0  0
    1.7065   -1.9584    1.3846 H   0  0  0  0  0  0  0  0  0  0  0  0
    4.0561   -1.6696    0.8293 H   0  0  0  0  0  0  0  0  0  0  0  0
    6.9689   -0.6421   -0.3922 H   0  0  0  0  0  0  0  0  0  0  0  0
    6.1409   -1.0974   -1.7807 H   0  0  0  0  0  0  0  0  0  0  0  0
    4.1849    1.8108    0.5686 H   0  0  0  0  0  0  0  0  0  0  0  0
    2.7665    1.2184   -1.2150 H   0  0  0  0  0  0  0  0  0  0  0  0
    0.4403    1.7664   -1.5225 H   0  0  0  0  0  0  0  0  0  0  0  0
  1  2  1  0
  2  3  1  0
  1  4  1  0
  4  5  1  0
  5  6  1  0
  6  7  1  0
  6  8  1  0
  8  9  2  0
  9 10  1  0
 10 11  2  0
 11 12  1  0
 12 13  1  0
 13 14  1  0
 13 15  2  3
 11 16  1  0
 16 17  2  0
  7  1  1  0
 17  8  1  0
  1 18  1  1
  2 19  1  0
  2 20  1  0
  3 21  1  0
  4 22  1  0
  4 23  1  0
  9 24  1  0
 10 25  1  0
 12 26  1  0
 14 27  1  0
 14 28  1  0
 15 29  1  0
 16 30  1  0
 17 31  1  0
M  END
$$$$
