
     RDKit          3D

 77 83  0  0  0  0  0  0  0  0999 V2000
    2.4010   -0.0050   -1.2193 O   0  0  0  0  0  0  0  0  0  0  0  0
    2.3496    0.4445   -0.0588 C   0  0  0  0  0  0  0  0  0  0  0  0
    3.5592    0.9322    0.6627 C   0  0  0  0  0  0  0  0  0  0  0  0
    4.6909    0.8002   -0.1589 N   0  0  0  0  0  0  0  0  0  0  0  0
    5.1647   -0.4869   -0.4874 C   0  0  0  0  0  0  0  0  0  0  0  0
    6.6420   -0.4588   -0.8951 C   0  0  0  0  0  0  0  0  0  0  0  0
    7.1889    0.8195   -0.4049 N   0  0  0  0  0  0  0  0  0  0  0  0
    8.6119    0.8367   -0.5075 C   0  0  0  0  0  0  0  0  0  0  0  0
    9.1924    2.0848    0.0741 C   0  0  0  0  0  0  0  0  0  0  0  0
   10.6019    1.9740   -0.0788 O   0  0  0  0  0  0  0  0  0  0  0  0
    6.6072    1.8257   -1.2461 C   0  0  0  0  0  0  0  0  0  0  0  0
    5.0976    1.8894   -0.9560 C   0  0  0  0  0  0  0  0  0  0  0  0
    1.0717    0.4827    0.5830 N   0  0  0  0  0  0  0  0  0  0  0  0
   -0.1231    0.0418   -0.0161 C   0  0  0  0  0  0  0  0  0  0  0  0
   -0.7569    0.9482   -0.8272 C   0  0  0  0  0  0  0  0  0  0  0  0
   -1.9250    0.7054   -1.5035 C   0  0  0  0  0  0  0  0  0  0  0  0
   -2.4854   -0.5289   -1.3494 C   0  0  0  0  0  0  0  0  0  0  0  0
   -3.7290   -0.9271   -2.0074 C   0  0  0  0  0  0  0  0  0  0  0  0
   -3.7139   -1.5275   -3.2369 C   0  0  0  0  0  0  0  0  0  0  0  0
   -4.8970   -1.9167   -3.8779 C   0  0  0  0  0  0  0  0  0  0  0  0
   -6.0944   -1.6838   -3.2444 C   0  0  0  0  0  0  0  0  0  0  0  0
   -6.1386   -1.0830   -2.0101 C   0  0  0  0  0  0  0  0  0  0  0  0
   -7.3170   -0.8320   -1.3443 C   0  0  0  0  0  0  0  0  0  0  0  0
   -8.4111   -1.1468   -1.8422 O   0  0  0  0  0  0  0  0  0  0  0  0
   -7.2064   -0.2138   -0.0974 C   0  0  0  0  0  0  0  0  0  0  0  0
   -6.0043    0.1386    0.4637 C   0  0  0  0  0  0  0  0  0  0  0  0
   -5.8841    0.7748    1.7386 N   0  0  0  0  0  0  0  0  0  0  0  0
   -7.0241    1.1625    2.5073 C   0  0  0  0  0  0  0  0  0  0  0  0
   -6.8035    2.4399    3.2957 C   0  0  0  0  0  0  0  0  0  0  0  0
   -5.5153    2.6492    3.7019 O   0  0  0  0  0  0  0  0  0  0  0  0
   -4.6021    2.5425    2.6655 C   0  0  0  0  0  0  0  0  0  0  0  0
   -4.5657    1.0488    2.3114 C   0  0  0  0  0  0  0  0  0  0  0  0
   -4.9070   -0.1337   -0.2340 O   0  0  0  0  0  0  0  0  0  0  0  0
   -4.9461   -0.7050   -1.3939 C   0  0  0  0  0  0  0  0  0  0  0  0
   -1.8294   -1.4246   -0.5269 C   0  0  0  0  0  0  0  0  0  0  0  0
   -2.3054   -3.1530   -0.0992 S   0  0  0  0  0  0  0  0  0  0  0  0
   -0.8644   -3.4519    0.9966 C   0  0  0  0  0  0  0  0  0  0  0  0
   -0.5508   -4.5542    1.6941 C   0  0  0  0  0  0  0  0  0  0  0  0
    0.5920   -4.5348    2.4664 C   0  0  0  0  0  0  0  0  0  0  0  0
    1.3280   -3.3784    2.4632 C   0  0  0  0  0  0  0  0  0  0  0  0
    0.9758   -2.2692    1.7362 C   0  0  0  0  0  0  0  0  0  0  0  0
   -0.2006   -2.2563    0.9248 C   0  0  0  0  0  0  0  0  0  0  0  0
   -0.6799   -1.2529    0.1681 C   0  0  0  0  0  0  0  0  0  0  0  0
    3.7003    0.2529    1.5612 H   0  0  0  0  0  0  0  0  0  0  0  0
    3.4034    1.9571    1.0726 H   0  0  0  0  0  0  0  0  0  0  0  0
    5.0233   -1.1714    0.3567 H   0  0  0  0  0  0  0  0  0  0  0  0
    4.6066   -0.8659   -1.3759 H   0  0  0  0  0  0  0  0  0  0  0  0
    7.1966   -1.3022   -0.4595 H   0  0  0  0  0  0  0  0  0  0  0  0
    6.7268   -0.4332   -1.9899 H   0  0  0  0  0  0  0  0  0  0  0  0
    9.0673   -0.0620   -0.0251 H   0  0  0  0  0  0  0  0  0  0  0  0
    8.9665    0.7998   -1.5789 H   0  0  0  0  0  0  0  0  0  0  0  0
    8.8833    3.0091   -0.3998 H   0  0  0  0  0  0  0  0  0  0  0  0
    9.0514    2.1553    1.1787 H   0  0  0  0  0  0  0  0  0  0  0  0
   11.0238    2.8250    0.2189 H   0  0  0  0  0  0  0  0  0  0  0  0
    7.0614    2.7892   -1.0486 H   0  0  0  0  0  0  0  0  0  0  0  0
    6.7754    1.4742   -2.3017 H   0  0  0  0  0  0  0  0  0  0  0  0
    4.6038    1.8537   -1.9712 H   0  0  0  0  0  0  0  0  0  0  0  0
    4.9099    2.8846   -0.4867 H   0  0  0  0  0  0  0  0  0  0  0  0
    1.0626    0.8741    1.5601 H   0  0  0  0  0  0  0  0  0  0  0  0
   -0.2990    1.9503   -0.9499 H   0  0  0  0  0  0  0  0  0  0  0  0
   -2.3903    1.4262   -2.1227 H   0  0  0  0  0  0  0  0  0  0  0  0
   -2.7941   -1.7264   -3.7647 H   0  0  0  0  0  0  0  0  0  0  0  0
   -4.8718   -2.3929   -4.8568 H   0  0  0  0  0  0  0  0  0  0  0  0
   -7.0554   -1.9564   -3.6746 H   0  0  0  0  0  0  0  0  0  0  0  0
   -8.1352   -0.0256    0.4218 H   0  0  0  0  0  0  0  0  0  0  0  0
   -7.1858    0.3637    3.2886 H   0  0  0  0  0  0  0  0  0  0  0  0
   -7.9246    1.2277    1.8821 H   0  0  0  0  0  0  0  0  0  0  0  0
   -7.0766    3.2739    2.5826 H   0  0  0  0  0  0  0  0  0  0  0  0
   -7.5486    2.4934    4.1036 H   0  0  0  0  0  0  0  0  0  0  0  0
   -5.0263    3.1016    1.7891 H   0  0  0  0  0  0  0  0  0  0  0  0
   -3.6184    2.9219    2.9645 H   0  0  0  0  0  0  0  0  0  0  0  0
   -4.4948    0.5107    3.2961 H   0  0  0  0  0  0  0  0  0  0  0  0
   -3.7480    0.8151    1.6309 H   0  0  0  0  0  0  0  0  0  0  0  0
   -1.1966   -5.4184    1.6314 H   0  0  0  0  0  0  0  0  0  0  0  0
    0.8443   -5.4191    3.0265 H   0  0  0  0  0  0  0  0  0  0  0  0
    2.2363   -3.3744    3.0834 H   0  0  0  0  0  0  0  0  0  0  0  0
    1.6282   -1.4284    1.8295 H   0  0  0  0  0  0  0  0  0  0  0  0
  1  2  2  0
  2  3  1  0
  3  4  1  0
  4  5  1  0
  5  6  1  0
  6  7  1  0
  7  8  1  0
  8  9  1  0
  9 10  1  0
  7 11  1  0
 11 12  1  0
  2 13  1  0
 13 14  1  0
 14 15  2  0
 15 16  1  0
 16 17  2  0
 17 18  1  0
 18 19  2  0
 19 20  1  0
 20 21  2  0
 21 22  1  0
 22 23  1  0
 23 24  2  0
 23 25  1  0
 25 26  2  0
 26 27  1  0
 27 28  1  0
 28 29  1  0
 29 30  1  0
 30 31  1  0
 31 32  1  0
 26 33  1  0
 33 34  1  0
 17 35  1  0
 35 36  1  0
 36 37  1  0
 37 38  2  0
 38 39  1  0
 39 40  2  0
 40 41  1  0
 41 42  2  0
 42 43  1  0
 12  4  1  0
 43 14  1  0
 34 18  1  0
 43 35  2  0
 34 22  2  0
 42 37  1  0
 32 27  1  0
  3 44  1  0
  3 45  1  0
  5 46  1  0
  5 47  1  0
  6 48  1  0
  6 49  1  0
  8 50  1  0
  8 51  1  0
  9 52  1  0
  9 53  1  0
 10 54  1  0
 11 55  1  0
 11 56  1  0
 12 57  1  0
 12 58  1  0
 13 59  1  0
 15 60  1  0
 16 61  1  0
 19 62  1  0
 20 63  1  0
 21 64  1  0
 25 65  1  0
 28 66  1  0
 28 67  1  0
 29 68  1  0
 29 69  1  0
 31 70  1  0
 31 71  1  0
 32 72  1  0
 32 73  1  0
 38 74  1  0
 39 75  1  0
 40 76  1  0
 41 77  1  0
M  END
$$$$
