@<TRIPOS>MOLECULE
*****
 77 83 0 0 0
SMALL
GASTEIGER

@<TRIPOS>ATOM
      1 O           2.4010   -0.0050   -1.2193 O.2     1  UNL1       -0.2741
      2 C           2.3496    0.4445   -0.0588 C.2     1  UNL1        0.2313
      3 C           3.5592    0.9322    0.6627 C.3     1  UNL1        0.0761
      4 N           4.6909    0.8002   -0.1589 N.3     1  UNL1       -0.2916
      5 C           5.1647   -0.4869   -0.4874 C.3     1  UNL1        0.0122
      6 C           6.6420   -0.4588   -0.8951 C.3     1  UNL1        0.0118
      7 N           7.1889    0.8195   -0.4049 N.3     1  UNL1       -0.2977
      8 C           8.6119    0.8367   -0.5075 C.3     1  UNL1        0.0222
      9 C           9.1924    2.0848    0.0741 C.3     1  UNL1        0.0569
     10 O          10.6019    1.9740   -0.0788 O.3     1  UNL1       -0.3937
     11 C           6.6072    1.8257   -1.2461 C.3     1  UNL1        0.0118
     12 C           5.0976    1.8894   -0.9560 C.3     1  UNL1        0.0122
     13 N           1.0717    0.4827    0.5830 N.am    1  UNL1       -0.2839
     14 C          -0.1231    0.0418   -0.0161 C.ar    1  UNL1        0.0423
     15 C          -0.7569    0.9482   -0.8272 C.ar    1  UNL1       -0.0392
     16 C          -1.9250    0.7054   -1.5035 C.ar    1  UNL1       -0.0511
     17 C          -2.4854   -0.5289   -1.3494 C.ar    1  UNL1        0.0001
     18 C          -3.7290   -0.9271   -2.0074 C.ar    1  UNL1        0.0263
     19 C          -3.7139   -1.5275   -3.2369 C.ar    1  UNL1       -0.0504
     20 C          -4.8970   -1.9167   -3.8779 C.ar    1  UNL1       -0.0603
     21 C          -6.0944   -1.6838   -3.2444 C.ar    1  UNL1       -0.0473
     22 C          -6.1386   -1.0830   -2.0101 C.ar    1  UNL1        0.0647
     23 C          -7.3170   -0.8320   -1.3443 C.ar    1  UNL1        0.1944
     24 O          -8.4111   -1.1468   -1.8422 O.2     1  UNL1       -0.2870
     25 C          -7.2064   -0.2138   -0.0974 C.ar    1  UNL1        0.0434
     26 C          -6.0043    0.1386    0.4637 C.ar    1  UNL1        0.1931
     27 N          -5.8841    0.7748    1.7386 N.pl3   1  UNL1       -0.2969
     28 C          -7.0241    1.1625    2.5073 C.3     1  UNL1        0.0383
     29 C          -6.8035    2.4399    3.2957 C.3     1  UNL1        0.0635
     30 O          -5.5153    2.6492    3.7019 O.3     1  UNL1       -0.3767
     31 C          -4.6021    2.5425    2.6655 C.3     1  UNL1        0.0635
     32 C          -4.5657    1.0488    2.3114 C.3     1  UNL1        0.0383
     33 O          -4.9070   -0.1337   -0.2340 O.2     1  UNL1       -0.4405
     34 C          -4.9461   -0.7050   -1.3939 C.ar    1  UNL1        0.1485
     35 C          -1.8294   -1.4246   -0.5269 C.ar    1  UNL1        0.0301
     36 S          -2.3054   -3.1530   -0.0992 S.2     1  UNL1       -0.0876
     37 C          -0.8644   -3.4519    0.9966 C.ar    1  UNL1        0.0206
     38 C          -0.5508   -4.5542    1.6941 C.ar    1  UNL1       -0.0474
     39 C           0.5920   -4.5348    2.4664 C.ar    1  UNL1       -0.0607
     40 C           1.3280   -3.3784    2.4632 C.ar    1  UNL1       -0.0611
     41 C           0.9758   -2.2692    1.7362 C.ar    1  UNL1       -0.0529
     42 C          -0.2006   -2.2563    0.9248 C.ar    1  UNL1       -0.0013
     43 C          -0.6799   -1.2529    0.1681 C.ar    1  UNL1        0.0187
     44 H           3.7003    0.2529    1.5612 H       1  UNL1        0.0522
     45 H           3.4034    1.9571    1.0726 H       1  UNL1        0.0522
     46 H           5.0233   -1.1714    0.3567 H       1  UNL1        0.0439
     47 H           4.6066   -0.8659   -1.3759 H       1  UNL1        0.0439
     48 H           7.1966   -1.3022   -0.4595 H       1  UNL1        0.0439
     49 H           6.7268   -0.4332   -1.9899 H       1  UNL1        0.0439
     50 H           9.0673   -0.0620   -0.0251 H       1  UNL1        0.0449
     51 H           8.9665    0.7998   -1.5789 H       1  UNL1        0.0449
     52 H           8.8833    3.0091   -0.3998 H       1  UNL1        0.0570
     53 H           9.0514    2.1553    1.1787 H       1  UNL1        0.0570
     54 H          11.0238    2.8250    0.2189 H       1  UNL1        0.2095
     55 H           7.0614    2.7892   -1.0486 H       1  UNL1        0.0439
     56 H           6.7754    1.4742   -2.3017 H       1  UNL1        0.0439
     57 H           4.6038    1.8537   -1.9712 H       1  UNL1        0.0439
     58 H           4.9099    2.8846   -0.4867 H       1  UNL1        0.0439
     59 H           1.0626    0.8741    1.5601 H       1  UNL1        0.1549
     60 H          -0.2990    1.9503   -0.9499 H       1  UNL1        0.0636
     61 H          -2.3903    1.4262   -2.1227 H       1  UNL1        0.0625
     62 H          -2.7941   -1.7264   -3.7647 H       1  UNL1        0.0625
     63 H          -4.8718   -2.3929   -4.8568 H       1  UNL1        0.0618
     64 H          -7.0554   -1.9564   -3.6746 H       1  UNL1        0.0626
     65 H          -8.1352   -0.0256    0.4218 H       1  UNL1        0.0707
     66 H          -7.1858    0.3637    3.2886 H       1  UNL1        0.0487
     67 H          -7.9246    1.2277    1.8821 H       1  UNL1        0.0487
     68 H          -7.0766    3.2739    2.5826 H       1  UNL1        0.0575
     69 H          -7.5486    2.4934    4.1036 H       1  UNL1        0.0575
     70 H          -5.0263    3.1016    1.7891 H       1  UNL1        0.0575
     71 H          -3.6184    2.9219    2.9645 H       1  UNL1        0.0575
     72 H          -4.4948    0.5107    3.2961 H       1  UNL1        0.0487
     73 H          -3.7480    0.8151    1.6309 H       1  UNL1        0.0487
     74 H          -1.1966   -5.4184    1.6314 H       1  UNL1        0.0629
     75 H           0.8443   -5.4191    3.0265 H       1  UNL1        0.0618
     76 H           2.2363   -3.3744    3.0834 H       1  UNL1        0.0618
     77 H           1.6282   -1.4284    1.8295 H       1  UNL1        0.0624
@<TRIPOS>BOND
     1     1     2    2
     2     2     3    1
     3     3     4    1
     4     4     5    1
     5     5     6    1
     6     6     7    1
     7     7     8    1
     8     8     9    1
     9     9    10    1
    10     7    11    1
    11    11    12    1
    12     2    13   am
    13    13    14    1
    14    14    15   ar
    15    15    16   ar
    16    16    17   ar
    17    17    18    1
    18    18    19   ar
    19    19    20   ar
    20    20    21   ar
    21    21    22   ar
    22    22    23   ar
    23    23    24    2
    24    23    25   ar
    25    25    26   ar
    26    26    27    1
    27    27    28    1
    28    28    29    1
    29    29    30    1
    30    30    31    1
    31    31    32    1
    32    26    33   ar
    33    33    34   ar
    34    17    35   ar
    35    35    36   ar
    36    36    37   ar
    37    37    38   ar
    38    38    39   ar
    39    39    40   ar
    40    40    41   ar
    41    41    42   ar
    42    42    43   ar
    43    12     4    1
    44    43    14   ar
    45    34    18   ar
    46    43    35   ar
    47    34    22   ar
    48    42    37   ar
    49    32    27    1
    50     3    44    1
    51     3    45    1
    52     5    46    1
    53     5    47    1
    54     6    48    1
    55     6    49    1
    56     8    50    1
    57     8    51    1
    58     9    52    1
    59     9    53    1
    60    10    54    1
    61    11    55    1
    62    11    56    1
    63    12    57    1
    64    12    58    1
    65    13    59    1
    66    15    60    1
    67    16    61    1
    68    19    62    1
    69    20    63    1
    70    21    64    1
    71    25    65    1
    72    28    66    1
    73    28    67    1
    74    29    68    1
    75    29    69    1
    76    31    70    1
    77    31    71    1
    78    32    72    1
    79    32    73    1
    80    38    74    1
    81    39    75    1
    82    40    76    1
    83    41    77    1
