@<TRIPOS>MOLECULE
*****
 37 39 0 0 0
SMALL
GASTEIGER

@<TRIPOS>ATOM
      1 C           6.7336   -0.9098    1.1970 C.3     1  UNL1        0.0788
      2 O           6.3449   -0.5171   -0.1048 O.3     1  UNL1       -0.4951
      3 C           5.0235   -0.2565   -0.4374 C.ar    1  UNL1        0.1207
      4 C           4.7160    0.1222   -1.7259 C.ar    1  UNL1       -0.0194
      5 C           3.4012    0.3910   -2.0932 C.ar    1  UNL1       -0.0506
      6 C           2.3704    0.2876   -1.1850 C.ar    1  UNL1       -0.0170
      7 C           1.0850    0.5529   -1.5570 C.ar    1  UNL1       -0.0432
      8 C          -0.0248    0.4641   -0.6665 C.ar    1  UNL1        0.0223
      9 C          -1.3062    0.8282   -1.1943 C.2     1  UNL1        0.1861
     10 O          -1.2936    1.4593   -2.3520 O.2     1  UNL1       -0.2873
     11 C          -2.6018    0.6171   -0.6722 C.2     1  UNL1       -0.0137
     12 C          -3.0527    0.0103    0.3795 C.2     1  UNL1       -0.0495
     13 C          -4.4625   -0.0677    0.7096 C.ar    1  UNL1       -0.0068
     14 C          -5.4518    0.5028   -0.0792 C.ar    1  UNL1       -0.0517
     15 C          -6.7878    0.3844    0.3076 C.ar    1  UNL1       -0.0430
     16 C          -7.0818   -0.2959    1.4615 C.ar    1  UNL1        0.0276
     17 N          -6.1026   -0.8296    2.1917 N.ar    1  UNL1       -0.2627
     18 C          -4.8156   -0.7476    1.8715 C.ar    1  UNL1        0.0347
     19 C           0.2963    0.0893    0.6093 C.ar    1  UNL1       -0.0503
     20 C           1.6221   -0.1818    0.9790 C.ar    1  UNL1       -0.0532
     21 C           2.6695   -0.0901    0.1037 C.ar    1  UNL1       -0.0144
     22 C           3.9759   -0.3521    0.4493 C.ar    1  UNL1       -0.0122
     23 H           7.8013   -0.7174    1.3899 H       1  UNL1        0.0660
     24 H           6.1414   -0.2978    1.9389 H       1  UNL1        0.0660
     25 H           6.4888   -1.9903    1.3062 H       1  UNL1        0.0660
     26 H           5.4965    0.2200   -2.4877 H       1  UNL1        0.0654
     27 H           3.1648    0.6867   -3.1008 H       1  UNL1        0.0625
     28 H           0.9230    0.8446   -2.5983 H       1  UNL1        0.0631
     29 H          -3.4255    1.0718   -1.2968 H       1  UNL1        0.0656
     30 H          -2.3584   -0.4868    1.0224 H       1  UNL1        0.0625
     31 H          -5.2607    1.0341   -0.9751 H       1  UNL1        0.0624
     32 H          -7.5468    0.8235   -0.3001 H       1  UNL1        0.0633
     33 H          -8.1331   -0.3770    1.7461 H       1  UNL1        0.0829
     34 H          -4.0671   -1.1869    2.4810 H       1  UNL1        0.0835
     35 H          -0.4738    0.0357    1.3503 H       1  UNL1        0.0625
     36 H           1.8041   -0.4721    1.9953 H       1  UNL1        0.0624
     37 H           4.1882   -0.6489    1.4726 H       1  UNL1        0.0660
@<TRIPOS>BOND
     1     1     2    1
     2     2     3    1
     3     3     4   ar
     4     4     5   ar
     5     5     6   ar
     6     6     7   ar
     7     7     8   ar
     8     8     9    1
     9     9    10    2
    10     9    11    1
    11    11    12    2
    12    12    13    1
    13    13    14   ar
    14    14    15   ar
    15    15    16   ar
    16    16    17   ar
    17    17    18   ar
    18     8    19   ar
    19    19    20   ar
    20    20    21   ar
    21    21    22   ar
    22    22     3   ar
    23    21     6   ar
    24    18    13   ar
    25     1    23    1
    26     1    24    1
    27     1    25    1
    28     4    26    1
    29     5    27    1
    30     7    28    1
    31    11    29    1
    32    12    30    1
    33    14    31    1
    34    15    32    1
    35    16    33    1
    36    18    34    1
    37    19    35    1
    38    20    36    1
    39    22    37    1
