
     RDKit          3D

 41 42  0  0  0  0  0  0  0  0999 V2000
   -7.6029    0.8950   -0.7740 N   0  0  0  0  0  0  0  0  0  0  0  0
   -7.4356   -0.3939   -0.1506 C   0  0  0  0  0  0  0  0  0  0  0  0
   -6.0247   -0.8825   -0.3969 C   0  0  0  0  0  0  0  0  0  0  0  0
   -5.0984    0.1171    0.2028 C   0  0  0  0  0  0  0  0  0  0  0  0
   -3.6692   -0.2424    0.0315 C   0  0  0  0  0  0  0  0  0  0  0  0
   -3.4724   -1.3173   -0.5831 O   0  0  0  0  0  0  0  0  0  0  0  0
   -2.5873    0.5166    0.4961 N   0  0  0  0  0  0  0  0  0  0  0  0
   -1.2029    0.2559    0.3806 C   0  0  0  0  0  0  0  0  0  0  0  0
   -0.6141   -0.8238   -0.2268 C   0  0  0  0  0  0  0  0  0  0  0  0
    0.7458   -1.0309   -0.3120 C   0  0  0  0  0  0  0  0  0  0  0  0
    1.6013   -0.1118    0.2392 C   0  0  0  0  0  0  0  0  0  0  0  0
    2.9732   -0.3081    0.1606 O   0  0  0  0  0  0  0  0  0  0  0  0
    3.8477    0.6412    0.7297 C   0  0  0  0  0  0  0  0  0  0  0  0
    5.2639    0.1836    0.5016 C   0  0  0  0  0  0  0  0  0  0  0  0
    5.9542    0.5656   -0.6407 C   0  0  0  0  0  0  0  0  0  0  0  0
    7.2577    0.1696   -0.8933 C   0  0  0  0  0  0  0  0  0  0  0  0
    7.8544   -0.6405    0.0628 C   0  0  0  0  0  0  0  0  0  0  0  0
    7.2041   -1.0458    1.2162 C   0  0  0  0  0  0  0  0  0  0  0  0
    5.8930   -0.6165    1.4176 C   0  0  0  0  0  0  0  0  0  0  0  0
    1.0419    0.9845    0.8569 C   0  0  0  0  0  0  0  0  0  0  0  0
   -0.3224    1.1556    0.9212 C   0  0  0  0  0  0  0  0  0  0  0  0
   -7.2462    1.6360   -0.1400 H   0  0  0  0  0  0  0  0  0  0  0  0
   -7.0901    0.9651   -1.6866 H   0  0  0  0  0  0  0  0  0  0  0  0
   -8.1081   -1.1545   -0.6275 H   0  0  0  0  0  0  0  0  0  0  0  0
   -7.6393   -0.2884    0.9173 H   0  0  0  0  0  0  0  0  0  0  0  0
   -5.8521   -1.8705    0.0729 H   0  0  0  0  0  0  0  0  0  0  0  0
   -5.8354   -0.9389   -1.4819 H   0  0  0  0  0  0  0  0  0  0  0  0
   -5.2827    0.3121    1.2751 H   0  0  0  0  0  0  0  0  0  0  0  0
   -5.2243    1.1167   -0.2861 H   0  0  0  0  0  0  0  0  0  0  0  0
   -2.9145    1.3777    0.9842 H   0  0  0  0  0  0  0  0  0  0  0  0
   -1.2220   -1.5750   -0.6750 H   0  0  0  0  0  0  0  0  0  0  0  0
    1.1525   -1.9031   -0.8044 H   0  0  0  0  0  0  0  0  0  0  0  0
    3.7189    1.6431    0.3133 H   0  0  0  0  0  0  0  0  0  0  0  0
    3.7056    0.7502    1.8348 H   0  0  0  0  0  0  0  0  0  0  0  0
    5.4682    1.2039   -1.3827 H   0  0  0  0  0  0  0  0  0  0  0  0
    7.8065    0.4544   -1.7692 H   0  0  0  0  0  0  0  0  0  0  0  0
    8.8810   -0.9583   -0.1261 H   0  0  0  0  0  0  0  0  0  0  0  0
    7.7179   -1.6824    1.9357 H   0  0  0  0  0  0  0  0  0  0  0  0
    5.4022   -0.9384    2.3155 H   0  0  0  0  0  0  0  0  0  0  0  0
    1.6641    1.7393    1.3076 H   0  0  0  0  0  0  0  0  0  0  0  0
   -0.7098    2.0396    1.4209 H   0  0  0  0  0  0  0  0  0  0  0  0
  1  2  1  0
  2  3  1  0
  3  4  1  0
  4  5  1  0
  5  6  2  0
  5  7  1  0
  7  8  1  0
  8  9  2  0
  9 10  1  0
 10 11  2  0
 11 12  1  0
 12 13  1  0
 13 14  1  0
 14 15  2  0
 15 16  1  0
 16 17  2  0
 17 18  1  0
 18 19  2  0
 11 20  1  0
 20 21  2  0
 21  8  1  0
 19 14  1  0
  1 22  1  0
  1 23  1  0
  2 24  1  0
  2 25  1  0
  3 26  1  0
  3 27  1  0
  4 28  1  0
  4 29  1  0
  7 30  1  0
  9 31  1  0
 10 32  1  0
 13 33  1  0
 13 34  1  0
 15 35  1  0
 16 36  1  0
 17 37  1  0
 18 38  1  0
 19 39  1  0
 20 40  1  0
 21 41  1  0
M  END
$$$$
