
     RDKit          3D

 61 64  0  0  0  0  0  0  0  0999 V2000
    2.3130   -2.6615    0.5235 C   0  0  0  0  0  0  0  0  0  0  0  0
    2.4794   -1.3236   -0.1258 C   0  0  1  0  0  0  0  0  0  0  0  0
    1.1440   -0.8272   -0.6238 C   0  0  0  0  0  0  0  0  0  0  0  0
    0.9143    0.5588   -0.2715 N   0  0  0  0  0  0  0  0  0  0  0  0
   -0.6664    0.9800   -0.8553 S   0  0  0  0  0  6  0  0  0  0  0  0
   -0.8508    2.4516   -0.5084 O   0  0  0  0  0  0  0  0  0  0  0  0
   -0.6307    0.8918   -2.3362 O   0  0  0  0  0  0  0  0  0  0  0  0
   -1.8950    0.0035   -0.0986 C   0  0  0  0  0  0  0  0  0  0  0  0
   -3.2547    0.3161   -0.5547 C   0  0  2  0  0  0  0  0  0  0  0  0
   -3.4995    0.1340   -2.0322 C   0  0  0  0  0  0  0  0  0  0  0  0
   -5.0301    0.0509   -2.1243 C   0  0  0  0  0  0  0  0  0  0  0  0
   -5.5008    0.0365   -0.7056 C   0  0  2  0  0  0  0  0  0  0  0  0
   -5.3504    1.4383   -0.1648 C   0  0  0  0  0  0  0  0  0  0  0  0
   -3.8331    1.6071   -0.0348 C   0  0  2  0  0  0  0  0  0  0  0  0
   -3.4579    2.7101   -0.7836 O   0  0  0  0  0  0  0  0  0  0  0  0
   -4.3124   -0.6477   -0.0043 C   0  0  0  0  0  0  0  0  0  0  0  0
   -4.1696   -2.0296   -0.5149 C   0  0  0  0  0  0  0  0  0  0  0  0
   -4.4293   -0.5826    1.4772 C   0  0  0  0  0  0  0  0  0  0  0  0
    0.8690    0.6498    1.1953 C   0  0  0  0  0  0  0  0  0  0  0  0
    2.2470    0.3557    1.6926 C   0  0  0  0  0  0  0  0  0  0  0  0
    3.0728   -0.3378    0.7308 N   0  0  0  0  0  0  0  0  0  0  0  0
    4.4781   -0.0601    0.6144 C   0  0  0  0  0  0  0  0  0  0  0  0
    5.4066   -1.0149    0.8125 N   0  0  0  0  0  0  0  0  0  0  0  0
    6.7208   -0.7518    0.7029 C   0  0  0  0  0  0  0  0  0  0  0  0
    7.1940    0.5133    0.3806 C   0  0  0  0  0  0  0  0  0  0  0  0
    8.6513    0.7488    0.2726 C   0  0  0  0  0  0  0  0  0  0  0  0
    9.1308    0.2185   -0.9097 F   0  0  0  0  0  0  0  0  0  0  0  0
    9.3383    0.1727    1.3294 F   0  0  0  0  0  0  0  0  0  0  0  0
    8.9082    2.0984    0.2866 F   0  0  0  0  0  0  0  0  0  0  0  0
    6.2638    1.5116    0.1721 C   0  0  0  0  0  0  0  0  0  0  0  0
    4.9027    1.2109    0.2925 C   0  0  0  0  0  0  0  0  0  0  0  0
    3.9962    2.1874    0.0884 F   0  0  0  0  0  0  0  0  0  0  0  0
    3.1990   -2.8212    1.1912 H   0  0  0  0  0  0  0  0  0  0  0  0
    1.3601   -2.7152    1.1125 H   0  0  0  0  0  0  0  0  0  0  0  0
    2.2582   -3.4234   -0.2719 H   0  0  0  0  0  0  0  0  0  0  0  0
    3.1159   -1.4738   -1.0313 H   0  0  0  0  0  0  0  0  0  0  0  0
    1.0148   -0.9798   -1.7150 H   0  0  0  0  0  0  0  0  0  0  0  0
    0.3267   -1.4236   -0.1416 H   0  0  0  0  0  0  0  0  0  0  0  0
   -1.6745   -1.0628   -0.2989 H   0  0  0  0  0  0  0  0  0  0  0  0
   -1.8372    0.1369    0.9915 H   0  0  0  0  0  0  0  0  0  0  0  0
   -3.1328   -0.8767   -2.2961 H   0  0  0  0  0  0  0  0  0  0  0  0
   -3.0892    0.9322   -2.6477 H   0  0  0  0  0  0  0  0  0  0  0  0
   -5.3706   -0.7704   -2.7456 H   0  0  0  0  0  0  0  0  0  0  0  0
   -5.3394    1.0470   -2.5573 H   0  0  0  0  0  0  0  0  0  0  0  0
   -6.4413   -0.4391   -0.5106 H   0  0  0  0  0  0  0  0  0  0  0  0
   -5.8595    1.5938    0.7899 H   0  0  0  0  0  0  0  0  0  0  0  0
   -5.7615    2.1707   -0.8896 H   0  0  0  0  0  0  0  0  0  0  0  0
   -3.6164    1.6869    1.0328 H   0  0  0  0  0  0  0  0  0  0  0  0
   -3.9774    3.4796   -0.4394 H   0  0  0  0  0  0  0  0  0  0  0  0
   -3.1583   -2.4295   -0.5745 H   0  0  0  0  0  0  0  0  0  0  0  0
   -4.6541   -2.2130   -1.4960 H   0  0  0  0  0  0  0  0  0  0  0  0
   -4.7230   -2.7059    0.2031 H   0  0  0  0  0  0  0  0  0  0  0  0
   -5.3622   -0.0957    1.8334 H   0  0  0  0  0  0  0  0  0  0  0  0
   -3.5938   -0.1101    1.9988 H   0  0  0  0  0  0  0  0  0  0  0  0
   -4.4825   -1.6409    1.8670 H   0  0  0  0  0  0  0  0  0  0  0  0
    0.1894   -0.1447    1.5235 H   0  0  0  0  0  0  0  0  0  0  0  0
    0.5199    1.6676    1.4615 H   0  0  0  0  0  0  0  0  0  0  0  0
    2.1701   -0.3037    2.5855 H   0  0  0  0  0  0  0  0  0  0  0  0
    2.7082    1.3173    1.9973 H   0  0  0  0  0  0  0  0  0  0  0  0
    7.4713   -1.5230    0.8628 H   0  0  0  0  0  0  0  0  0  0  0  0
    6.5903    2.5114   -0.0809 H   0  0  0  0  0  0  0  0  0  0  0  0
  1  2  1  0
  2  3  1  0
  3  4  1  0
  4  5  1  0
  5  6  2  0
  5  7  2  0
  5  8  1  0
  9  8  1  6
  9 10  1  0
 10 11  1  0
 11 12  1  0
 12 13  1  0
 13 14  1  0
 14 15  1  0
 12 16  1  0
 16 17  1  0
 16 18  1  0
  4 19  1  0
 19 20  1  0
 20 21  1  0
 21 22  1  0
 22 23  2  0
 23 24  1  0
 24 25  2  0
 25 26  1  0
 26 27  1  0
 26 28  1  0
 26 29  1  0
 25 30  1  0
 30 31  2  0
 31 32  1  0
 21  2  1  0
 31 22  1  0
 14  9  1  0
 16  9  1  0
  1 33  1  0
  1 34  1  0
  1 35  1  0
  2 36  1  6
  3 37  1  0
  3 38  1  0
  8 39  1  0
  8 40  1  0
 10 41  1  0
 10 42  1  0
 11 43  1  0
 11 44  1  0
 12 45  1  6
 13 46  1  0
 13 47  1  0
 14 48  1  1
 15 49  1  0
 17 50  1  0
 17 51  1  0
 17 52  1  0
 18 53  1  0
 18 54  1  0
 18 55  1  0
 19 56  1  0
 19 57  1  0
 20 58  1  0
 20 59  1  0
 24 60  1  0
 30 61  1  0
M  END
$$$$
