@<TRIPOS>MOLECULE
*****
 61 64 0 0 0
SMALL
GASTEIGER

@<TRIPOS>ATOM
      1 C           2.3130   -2.6615    0.5235 C.3     1  UNL1       -0.0452
      2 C           2.4794   -1.3236   -0.1258 C.3     1  UNL1        0.0365
      3 C           1.1440   -0.8272   -0.6238 C.3     1  UNL1        0.0385
      4 N           0.9143    0.5588   -0.2715 N.3     1  UNL1       -0.1779
      5 S          -0.6664    0.9800   -0.8553 S.O2    1  UNL1        0.0326
      6 O          -0.8508    2.4516   -0.5084 O.2     1  UNL1       -0.1580
      7 O          -0.6307    0.8918   -2.3362 O.2     1  UNL1       -0.1580
      8 C          -1.8950    0.0035   -0.0986 C.3     1  UNL1        0.0904
      9 C          -3.2547    0.3161   -0.5547 C.3     1  UNL1        0.0228
     10 C          -3.4995    0.1340   -2.0322 C.3     1  UNL1       -0.0427
     11 C          -5.0301    0.0509   -2.1243 C.3     1  UNL1       -0.0490
     12 C          -5.5008    0.0365   -0.7056 C.3     1  UNL1       -0.0329
     13 C          -5.3504    1.4383   -0.1648 C.3     1  UNL1       -0.0229
     14 C          -3.8331    1.6071   -0.0348 C.3     1  UNL1        0.0632
     15 O          -3.4579    2.7101   -0.7836 O.3     1  UNL1       -0.3912
     16 C          -4.3124   -0.6477   -0.0043 C.3     1  UNL1       -0.0224
     17 C          -4.1696   -2.0296   -0.5149 C.3     1  UNL1       -0.0589
     18 C          -4.4293   -0.5826    1.4772 C.3     1  UNL1       -0.0589
     19 C           0.8690    0.6498    1.1953 C.3     1  UNL1        0.0360
     20 C           2.2470    0.3557    1.6926 C.3     1  UNL1        0.0283
     21 N           3.0728   -0.3378    0.7308 N.pl3   1  UNL1       -0.3076
     22 C           4.4781   -0.0601    0.6144 C.ar    1  UNL1        0.1571
     23 N           5.4066   -1.0149    0.8125 N.ar    1  UNL1       -0.2368
     24 C           6.7208   -0.7518    0.7029 C.ar    1  UNL1        0.0415
     25 C           7.1940    0.5133    0.3806 C.ar    1  UNL1        0.0757
     26 C           8.6513    0.7488    0.2726 C.3     1  UNL1        0.4189
     27 F           9.1308    0.2185   -0.9097 F       1  UNL1       -0.1658
     28 F           9.3383    0.1727    1.3294 F       1  UNL1       -0.1658
     29 F           8.9082    2.0984    0.2866 F       1  UNL1       -0.1658
     30 C           6.2638    1.5116    0.1721 C.ar    1  UNL1       -0.0099
     31 C           4.9027    1.2109    0.2925 C.ar    1  UNL1        0.1636
     32 F           3.9962    2.1874    0.0884 F       1  UNL1       -0.2019
     33 H           3.1990   -2.8212    1.1912 H       1  UNL1        0.0248
     34 H           1.3601   -2.7152    1.1125 H       1  UNL1        0.0248
     35 H           2.2582   -3.4234   -0.2719 H       1  UNL1        0.0248
     36 H           3.1159   -1.4738   -1.0313 H       1  UNL1        0.0510
     37 H           1.0148   -0.9798   -1.7150 H       1  UNL1        0.0462
     38 H           0.3267   -1.4236   -0.1416 H       1  UNL1        0.0462
     39 H          -1.6745   -1.0628   -0.2989 H       1  UNL1        0.0522
     40 H          -1.8372    0.1369    0.9915 H       1  UNL1        0.0522
     41 H          -3.1328   -0.8767   -2.2961 H       1  UNL1        0.0272
     42 H          -3.0892    0.9322   -2.6477 H       1  UNL1        0.0272
     43 H          -5.3706   -0.7704   -2.7456 H       1  UNL1        0.0268
     44 H          -5.3394    1.0470   -2.5573 H       1  UNL1        0.0268
     45 H          -6.4413   -0.4391   -0.5106 H       1  UNL1        0.0307
     46 H          -5.8595    1.5938    0.7899 H       1  UNL1        0.0293
     47 H          -5.7615    2.1707   -0.8896 H       1  UNL1        0.0293
     48 H          -3.6164    1.6869    1.0328 H       1  UNL1        0.0599
     49 H          -3.9774    3.4796   -0.4394 H       1  UNL1        0.2098
     50 H          -3.1583   -2.4295   -0.5745 H       1  UNL1        0.0235
     51 H          -4.6541   -2.2130   -1.4960 H       1  UNL1        0.0235
     52 H          -4.7230   -2.7059    0.2031 H       1  UNL1        0.0235
     53 H          -5.3622   -0.0957    1.8334 H       1  UNL1        0.0235
     54 H          -3.5938   -0.1101    1.9988 H       1  UNL1        0.0235
     55 H          -4.4825   -1.6409    1.8670 H       1  UNL1        0.0235
     56 H           0.1894   -0.1447    1.5235 H       1  UNL1        0.0459
     57 H           0.5199    1.6676    1.4615 H       1  UNL1        0.0459
     58 H           2.1701   -0.3037    2.5855 H       1  UNL1        0.0477
     59 H           2.7082    1.3173    1.9973 H       1  UNL1        0.0477
     60 H           7.4713   -1.5230    0.8628 H       1  UNL1        0.0836
     61 H           6.5903    2.5114   -0.0809 H       1  UNL1        0.0653
@<TRIPOS>BOND
     1     1     2    1
     2     2     3    1
     3     3     4    1
     4     4     5    1
     5     5     6    2
     6     5     7    2
     7     5     8    1
     8     9     8    1
     9     9    10    1
    10    10    11    1
    11    11    12    1
    12    12    13    1
    13    13    14    1
    14    14    15    1
    15    12    16    1
    16    16    17    1
    17    16    18    1
    18     4    19    1
    19    19    20    1
    20    20    21    1
    21    21    22    1
    22    22    23   ar
    23    23    24   ar
    24    24    25   ar
    25    25    26    1
    26    26    27    1
    27    26    28    1
    28    26    29    1
    29    25    30   ar
    30    30    31   ar
    31    31    32    1
    32    21     2    1
    33    31    22   ar
    34    14     9    1
    35    16     9    1
    36     1    33    1
    37     1    34    1
    38     1    35    1
    39     2    36    1
    40     3    37    1
    41     3    38    1
    42     8    39    1
    43     8    40    1
    44    10    41    1
    45    10    42    1
    46    11    43    1
    47    11    44    1
    48    12    45    1
    49    13    46    1
    50    13    47    1
    51    14    48    1
    52    15    49    1
    53    17    50    1
    54    17    51    1
    55    17    52    1
    56    18    53    1
    57    18    54    1
    58    18    55    1
    59    19    56    1
    60    19    57    1
    61    20    58    1
    62    20    59    1
    63    24    60    1
    64    30    61    1
