@<TRIPOS>MOLECULE
*****
 47 50 0 0 0
SMALL
GASTEIGER

@<TRIPOS>ATOM
      1 C           3.5196    2.8552    2.6671 C.3     1  UNL1        0.0805
      2 O           2.3109    3.4962    2.1520 O.3     1  UNL1       -0.4776
      3 C           1.1892    2.7597    2.0150 C.ar    1  UNL1        0.2557
      4 N           1.0571    1.4369    2.0145 N.ar    1  UNL1       -0.1768
      5 C          -0.1123    0.7699    1.7864 C.ar    1  UNL1        0.2214
      6 N          -0.1684   -0.5526    1.4291 N.pl3   1  UNL1       -0.2949
      7 C           0.8328   -1.6286    1.3759 C.3     1  UNL1        0.0313
      8 C           0.8693   -1.7921   -0.1893 C.3     1  UNL1        0.1071
      9 C           1.1952   -3.1726   -0.5049 C.2     1  UNL1        0.2858
     10 O           2.2630   -3.7114   -0.0348 O.2     1  UNL1       -0.2567
     11 N           0.4080   -4.0376   -1.3286 N.am    1  UNL1       -0.1649
     12 C           0.8704   -5.3787   -1.6313 C.3     1  UNL1        0.0571
     13 C          -0.8482   -3.5981   -1.8559 C.2     1  UNL1        0.3718
     14 N          -1.5929   -4.3006   -2.6109 N.2     1  UNL1       -0.1329
     15 N          -1.2203   -2.2641   -1.4810 N.pl3   1  UNL1       -0.2258
     16 C          -0.4561   -1.3835   -0.6542 C.3     1  UNL1        0.1405
     17 C          -0.5131   -0.0201   -1.1887 C.ar    1  UNL1        0.0310
     18 C           0.2206    1.0680   -1.1180 C.ar    1  UNL1       -0.0468
     19 C          -0.1570    2.2393   -1.5747 C.ar    1  UNL1       -0.0368
     20 C          -1.3869    2.3057   -2.1723 C.ar    1  UNL1        0.0892
     21 C          -2.1695    3.3301   -2.7868 C.1     1  UNL1        0.1063
     22 N          -2.8444    4.1796   -3.2988 N.1     1  UNL1       -0.1903
     23 S          -1.9520    0.5607   -2.0134 S.2     1  UNL1       -0.0792
     24 C          -1.2891   -1.2327    0.7064 C.3     1  UNL1        0.0551
     25 N          -1.2149    1.5817    1.5756 N.ar    1  UNL1       -0.2165
     26 C          -1.1825    2.9045    1.5681 C.ar    1  UNL1        0.0822
     27 C          -2.4377    3.7073    1.3104 C.3     1  UNL1       -0.0193
     28 C           0.0094    3.5156    1.7794 C.ar    1  UNL1        0.2055
     29 F           0.1335    4.8922    1.7684 F       1  UNL1       -0.1980
     30 H           3.4765    2.7235    3.7219 H       1  UNL1        0.0660
     31 H           4.3489    3.3956    2.2176 H       1  UNL1        0.0660
     32 H           3.5395    1.8272    2.1824 H       1  UNL1        0.0660
     33 H           0.3942   -2.5250    1.8156 H       1  UNL1        0.0474
     34 H           1.8205   -1.3608    1.6850 H       1  UNL1        0.0474
     35 H           1.6928   -1.0868   -0.5288 H       1  UNL1        0.0464
     36 H           0.4757   -6.0165   -0.7825 H       1  UNL1        0.0602
     37 H           1.9810   -5.4535   -1.6025 H       1  UNL1        0.0602
     38 H           0.4601   -5.7162   -2.5738 H       1  UNL1        0.0602
     39 H          -1.3532   -5.2583   -2.9108 H       1  UNL1        0.3058
     40 H          -2.1705   -1.9188   -1.8542 H       1  UNL1        0.2454
     41 H           1.2843    0.9372   -0.6543 H       1  UNL1        0.0627
     42 H           0.4191    3.2020   -1.5006 H       1  UNL1        0.0636
     43 H          -1.4888   -2.2072    1.1122 H       1  UNL1        0.0504
     44 H          -2.0772   -0.5341    0.5207 H       1  UNL1        0.0504
     45 H          -2.2931    4.2817    0.3969 H       1  UNL1        0.0293
     46 H          -2.5983    4.2637    2.2331 H       1  UNL1        0.0293
     47 H          -3.2453    2.9163    1.2182 H       1  UNL1        0.0293
@<TRIPOS>BOND
     1     1     2    1
     2     2     3    1
     3     3     4   ar
     4     4     5   ar
     5     5     6    1
     6     6     7    1
     7     7     8    1
     8     8     9    1
     9     9    10    2
    10     9    11   am
    11    11    12    1
    12    11    13    1
    13    13    14    2
    14    13    15    1
    15    15    16    1
    16    16    17    1
    17    17    18   ar
    18    18    19   ar
    19    19    20   ar
    20    20    21    1
    21    21    22    3
    22    20    23   ar
    23    16    24    1
    24     5    25   ar
    25    25    26   ar
    26    26    27    1
    27    26    28   ar
    28    28    29    1
    29    28     3   ar
    30    24     6    1
    31    16     8    1
    32    23    17   ar
    33     1    30    1
    34     1    31    1
    35     1    32    1
    36     7    33    1
    37     7    34    1
    38     8    35    1
    39    12    36    1
    40    12    37    1
    41    12    38    1
    42    14    39    1
    43    15    40    1
    44    18    41    1
    45    19    42    1
    46    24    43    1
    47    24    44    1
    48    27    45    1
    49    27    46    1
    50    27    47    1
