
     RDKit          3D

 59 63  0  0  0  0  0  0  0  0999 V2000
   -0.9603    1.1308    3.3439 C   0  0  0  0  0  0  0  0  0  0  0  0
   -0.2978    0.6747    2.1913 O   0  0  0  0  0  0  0  0  0  0  0  0
   -1.0259    0.1105    1.1550 C   0  0  0  0  0  0  0  0  0  0  0  0
   -2.3884    0.0200    1.3024 C   0  0  0  0  0  0  0  0  0  0  0  0
   -3.2097   -0.5204    0.3402 C   0  0  0  0  0  0  0  0  0  0  0  0
   -4.6038   -0.5764    0.5336 N   0  0  0  0  0  0  0  0  0  0  0  0
   -5.2865    0.2690    1.4969 C   0  0  0  0  0  0  0  0  0  0  0  0
   -6.5353    0.9144    0.9342 C   0  0  0  0  0  0  0  0  0  0  0  0
   -7.3401    0.0574    0.1278 N   0  0  0  0  0  0  0  0  0  0  0  0
   -8.2679    0.8707   -0.6370 C   0  0  0  0  0  0  0  0  0  0  0  0
   -6.5320   -0.6639   -0.8708 C   0  0  0  0  0  0  0  0  0  0  0  0
   -5.4846   -1.4974   -0.1966 C   0  0  0  0  0  0  0  0  0  0  0  0
   -2.5826   -0.9727   -0.7951 C   0  0  0  0  0  0  0  0  0  0  0  0
   -1.1942   -0.8925   -0.9707 C   0  0  0  0  0  0  0  0  0  0  0  0
   -0.3906   -0.3500   -0.0002 C   0  0  0  0  0  0  0  0  0  0  0  0
    0.9945   -0.2111   -0.0486 N   0  0  0  0  0  0  0  0  0  0  0  0
    1.8371   -0.6025   -1.1074 C   0  0  0  0  0  0  0  0  0  0  0  0
    1.3490   -1.1678   -2.2065 N   0  0  0  0  0  0  0  0  0  0  0  0
    2.1667   -1.5322   -3.2009 C   0  0  0  0  0  0  0  0  0  0  0  0
    3.5407   -1.3230   -3.0955 C   0  0  0  0  0  0  0  0  0  0  0  0
    4.0612   -0.7366   -1.9589 C   0  0  0  0  0  0  0  0  0  0  0  0
    5.4964   -0.5189   -1.8503 C   0  0  0  0  0  0  0  0  0  0  0  0
    6.4564   -0.8385   -2.7844 C   0  0  0  0  0  0  0  0  0  0  0  0
    7.6700   -0.4663   -2.2855 N   0  0  0  0  0  0  0  0  0  0  0  0
    7.5313    0.0796   -1.0694 C   0  0  0  0  0  0  0  0  0  0  0  0
    8.3919    0.6130   -0.1326 C   0  0  0  0  0  0  0  0  0  0  0  0
    7.9037    1.0891    1.0210 N   0  0  0  0  0  0  0  0  0  0  0  0
    6.6121    1.0872    1.3431 C   0  0  0  0  0  0  0  0  0  0  0  0
    6.1534    1.6363    2.6473 C   0  0  0  0  0  0  0  0  0  0  0  0
    5.7243    0.5598    0.4261 C   0  0  0  0  0  0  0  0  0  0  0  0
    6.1596    0.0487   -0.7897 C   0  0  0  0  0  0  0  0  0  0  0  0
    3.1975   -0.3924   -0.9965 N   0  0  0  0  0  0  0  0  0  0  0  0
   -1.4790    0.2369    3.7899 H   0  0  0  0  0  0  0  0  0  0  0  0
   -1.6603    1.9397    3.1101 H   0  0  0  0  0  0  0  0  0  0  0  0
   -0.1976    1.4541    4.0815 H   0  0  0  0  0  0  0  0  0  0  0  0
   -2.8527    0.3848    2.2264 H   0  0  0  0  0  0  0  0  0  0  0  0
   -4.6542    1.0984    1.8783 H   0  0  0  0  0  0  0  0  0  0  0  0
   -5.6066   -0.3826    2.3369 H   0  0  0  0  0  0  0  0  0  0  0  0
   -6.2580    1.8614    0.4511 H   0  0  0  0  0  0  0  0  0  0  0  0
   -7.1563    1.1970    1.8319 H   0  0  0  0  0  0  0  0  0  0  0  0
   -7.8658    1.1198   -1.6443 H   0  0  0  0  0  0  0  0  0  0  0  0
   -9.2005    0.2796   -0.8097 H   0  0  0  0  0  0  0  0  0  0  0  0
   -8.5847    1.7770   -0.0824 H   0  0  0  0  0  0  0  0  0  0  0  0
   -7.2224   -1.3057   -1.4159 H   0  0  0  0  0  0  0  0  0  0  0  0
   -6.1082    0.0667   -1.5873 H   0  0  0  0  0  0  0  0  0  0  0  0
   -6.0140   -2.1662    0.5180 H   0  0  0  0  0  0  0  0  0  0  0  0
   -4.9405   -2.0726   -0.9377 H   0  0  0  0  0  0  0  0  0  0  0  0
   -3.1833   -1.4012   -1.5794 H   0  0  0  0  0  0  0  0  0  0  0  0
   -0.7759   -1.2640   -1.8786 H   0  0  0  0  0  0  0  0  0  0  0  0
    1.4892    0.2373    0.7968 H   0  0  0  0  0  0  0  0  0  0  0  0
    1.7327   -1.9923   -4.0864 H   0  0  0  0  0  0  0  0  0  0  0  0
    4.1780   -1.6282   -3.9162 H   0  0  0  0  0  0  0  0  0  0  0  0
    6.2350   -1.3030   -3.7335 H   0  0  0  0  0  0  0  0  0  0  0  0
    8.5812   -0.5823   -2.7666 H   0  0  0  0  0  0  0  0  0  0  0  0
    9.4523    0.6257   -0.3729 H   0  0  0  0  0  0  0  0  0  0  0  0
    5.1391    1.3053    2.8999 H   0  0  0  0  0  0  0  0  0  0  0  0
    6.2148    2.7541    2.6139 H   0  0  0  0  0  0  0  0  0  0  0  0
    6.9206    1.3327    3.4027 H   0  0  0  0  0  0  0  0  0  0  0  0
    4.6710    0.5292    0.6258 H   0  0  0  0  0  0  0  0  0  0  0  0
  1  2  1  0
  2  3  1  0
  3  4  2  0
  4  5  1  0
  5  6  1  0
  6  7  1  0
  7  8  1  0
  8  9  1  0
  9 10  1  0
  9 11  1  0
 11 12  1  0
  5 13  2  0
 13 14  1  0
 14 15  2  0
 15 16  1  0
 16 17  1  0
 17 18  2  0
 18 19  1  0
 19 20  2  0
 20 21  1  0
 21 22  1  0
 22 23  2  0
 23 24  1  0
 24 25  1  0
 25 26  2  0
 26 27  1  0
 27 28  2  0
 28 29  1  0
 28 30  1  0
 30 31  2  0
 21 32  2  0
 15  3  1  0
 32 17  1  0
 12  6  1  0
 31 22  1  0
 31 25  1  0
  1 33  1  0
  1 34  1  0
  1 35  1  0
  4 36  1  0
  7 37  1  0
  7 38  1  0
  8 39  1  0
  8 40  1  0
 10 41  1  0
 10 42  1  0
 10 43  1  0
 11 44  1  0
 11 45  1  0
 12 46  1  0
 12 47  1  0
 13 48  1  0
 14 49  1  0
 16 50  1  0
 19 51  1  0
 20 52  1  0
 23 53  1  0
 24 54  1  0
 26 55  1  0
 29 56  1  0
 29 57  1  0
 29 58  1  0
 30 59  1  0
M  END
$$$$
