@<TRIPOS>MOLECULE
*****
 59 63 0 0 0
SMALL
GASTEIGER

@<TRIPOS>ATOM
      1 C          -0.9603    1.1308    3.3439 C.3     1  UNL1        0.0789
      2 O          -0.2978    0.6747    2.1913 O.3     1  UNL1       -0.4932
      3 C          -1.0259    0.1105    1.1550 C.ar    1  UNL1        0.1429
      4 C          -2.3884    0.0200    1.3024 C.ar    1  UNL1        0.0029
      5 C          -3.2097   -0.5204    0.3402 C.ar    1  UNL1        0.0334
      6 N          -4.6038   -0.5764    0.5336 N.pl3   1  UNL1       -0.3274
      7 C          -5.2865    0.2690    1.4969 C.3     1  UNL1        0.0250
      8 C          -6.5353    0.9144    0.9342 C.3     1  UNL1        0.0144
      9 N          -7.3401    0.0574    0.1278 N.3     1  UNL1       -0.3024
     10 C          -8.2679    0.8707   -0.6370 C.3     1  UNL1       -0.0126
     11 C          -6.5320   -0.6639   -0.8708 C.3     1  UNL1        0.0144
     12 C          -5.4846   -1.4974   -0.1966 C.3     1  UNL1        0.0250
     13 C          -2.5826   -0.9727   -0.7951 C.ar    1  UNL1       -0.0387
     14 C          -1.1942   -0.8925   -0.9707 C.ar    1  UNL1       -0.0351
     15 C          -0.3906   -0.3500   -0.0002 C.ar    1  UNL1        0.0759
     16 N           0.9945   -0.2111   -0.0486 N.pl3   1  UNL1       -0.2807
     17 C           1.8371   -0.6025   -1.1074 C.ar    1  UNL1        0.2201
     18 N           1.3490   -1.1678   -2.2065 N.ar    1  UNL1       -0.2226
     19 C           2.1667   -1.5322   -3.2009 C.ar    1  UNL1        0.0332
     20 C           3.5407   -1.3230   -3.0955 C.ar    1  UNL1       -0.0173
     21 C           4.0612   -0.7366   -1.9589 C.ar    1  UNL1        0.0780
     22 C           5.4964   -0.5189   -1.8503 C.ar    1  UNL1        0.0256
     23 C           6.4564   -0.8385   -2.7844 C.ar    1  UNL1        0.0120
     24 N           7.6700   -0.4663   -2.2855 N.ar    1  UNL1       -0.3588
     25 C           7.5313    0.0796   -1.0694 C.ar    1  UNL1        0.0655
     26 C           8.3919    0.6130   -0.1326 C.ar    1  UNL1        0.0517
     27 N           7.9037    1.0891    1.0210 N.ar    1  UNL1       -0.2581
     28 C           6.6121    1.0872    1.3431 C.ar    1  UNL1        0.0389
     29 C           6.1534    1.6363    2.6473 C.3     1  UNL1       -0.0223
     30 C           5.7243    0.5598    0.4261 C.ar    1  UNL1       -0.0309
     31 C           6.1596    0.0487   -0.7897 C.ar    1  UNL1        0.0120
     32 N           3.1975   -0.3924   -0.9965 N.ar    1  UNL1       -0.2142
     33 H          -1.4790    0.2369    3.7899 H       1  UNL1        0.0660
     34 H          -1.6603    1.9397    3.1101 H       1  UNL1        0.0660
     35 H          -0.1976    1.4541    4.0815 H       1  UNL1        0.0660
     36 H          -2.8527    0.3848    2.2264 H       1  UNL1        0.0673
     37 H          -4.6542    1.0984    1.8783 H       1  UNL1        0.0476
     38 H          -5.6066   -0.3826    2.3369 H       1  UNL1        0.0476
     39 H          -6.2580    1.8614    0.4511 H       1  UNL1        0.0442
     40 H          -7.1563    1.1970    1.8319 H       1  UNL1        0.0442
     41 H          -7.8658    1.1198   -1.6443 H       1  UNL1        0.0391
     42 H          -9.2005    0.2796   -0.8097 H       1  UNL1        0.0391
     43 H          -8.5847    1.7770   -0.0824 H       1  UNL1        0.0391
     44 H          -7.2224   -1.3057   -1.4159 H       1  UNL1        0.0442
     45 H          -6.1082    0.0667   -1.5873 H       1  UNL1        0.0442
     46 H          -6.0140   -2.1662    0.5180 H       1  UNL1        0.0476
     47 H          -4.9405   -2.0726   -0.9377 H       1  UNL1        0.0476
     48 H          -3.1833   -1.4012   -1.5794 H       1  UNL1        0.0637
     49 H          -0.7759   -1.2640   -1.8786 H       1  UNL1        0.0638
     50 H           1.4892    0.2373    0.7968 H       1  UNL1        0.1551
     51 H           1.7327   -1.9923   -4.0864 H       1  UNL1        0.0831
     52 H           4.1780   -1.6282   -3.9162 H       1  UNL1        0.0654
     53 H           6.2350   -1.3030   -3.7335 H       1  UNL1        0.0814
     54 H           8.5812   -0.5823   -2.7666 H       1  UNL1        0.1654
     55 H           9.4523    0.6257   -0.3729 H       1  UNL1        0.0851
     56 H           5.1391    1.3053    2.8999 H       1  UNL1        0.0292
     57 H           6.2148    2.7541    2.6139 H       1  UNL1        0.0292
     58 H           6.9206    1.3327    3.4027 H       1  UNL1        0.0292
     59 H           4.6710    0.5292    0.6258 H       1  UNL1        0.0642
@<TRIPOS>BOND
     1     1     2    1
     2     2     3    1
     3     3     4   ar
     4     4     5   ar
     5     5     6    1
     6     6     7    1
     7     7     8    1
     8     8     9    1
     9     9    10    1
    10     9    11    1
    11    11    12    1
    12     5    13   ar
    13    13    14   ar
    14    14    15   ar
    15    15    16    1
    16    16    17    1
    17    17    18   ar
    18    18    19   ar
    19    19    20   ar
    20    20    21   ar
    21    21    22    1
    22    22    23   ar
    23    23    24   ar
    24    24    25   ar
    25    25    26   ar
    26    26    27   ar
    27    27    28   ar
    28    28    29    1
    29    28    30   ar
    30    30    31   ar
    31    21    32   ar
    32    15     3   ar
    33    32    17   ar
    34    12     6    1
    35    31    22   ar
    36    31    25   ar
    37     1    33    1
    38     1    34    1
    39     1    35    1
    40     4    36    1
    41     7    37    1
    42     7    38    1
    43     8    39    1
    44     8    40    1
    45    10    41    1
    46    10    42    1
    47    10    43    1
    48    11    44    1
    49    11    45    1
    50    12    46    1
    51    12    47    1
    52    13    48    1
    53    14    49    1
    54    16    50    1
    55    19    51    1
    56    20    52    1
    57    23    53    1
    58    24    54    1
    59    26    55    1
    60    29    56    1
    61    29    57    1
    62    29    58    1
    63    30    59    1
