@<TRIPOS>MOLECULE
*****
 36 38 0 0 0
SMALL
GASTEIGER

@<TRIPOS>ATOM
      1 C          -0.6728   -2.9528   -2.7919 C.3     1  UNL1       -0.0031
      2 C          -1.6266   -2.0930   -2.0438 C.ar    1  UNL1        0.1425
      3 O          -2.9378   -2.0834   -2.1081 O.2     1  UNL1       -0.3587
      4 N          -3.4358   -1.1990   -1.3115 N.ar    1  UNL1       -0.0774
      5 C          -2.4156   -0.5695   -0.6680 C.ar    1  UNL1        0.1213
      6 C          -2.4820    0.4885    0.3136 C.ar    1  UNL1        0.0043
      7 C          -2.0088    0.2741    1.5896 C.ar    1  UNL1       -0.0524
      8 C          -2.0690    1.2959    2.5481 C.ar    1  UNL1       -0.0611
      9 C          -2.6025    2.5241    2.2209 C.ar    1  UNL1       -0.0617
     10 C          -3.0725    2.7403    0.9570 C.ar    1  UNL1       -0.0611
     11 C          -3.0042    1.7283    0.0358 C.ar    1  UNL1       -0.0524
     12 C          -1.2496   -1.1340   -1.1290 C.ar    1  UNL1        0.0516
     13 C           0.1035   -0.7856   -0.7288 C.ar    1  UNL1       -0.0123
     14 C           0.5966    0.4938   -0.9716 C.ar    1  UNL1       -0.0520
     15 C           1.8846    0.7936   -0.5804 C.ar    1  UNL1       -0.0348
     16 C           2.7105   -0.1284    0.0462 C.ar    1  UNL1        0.1050
     17 S           4.3240    0.3864    0.4893 S.O2    1  UNL1        0.0559
     18 N           4.3484    1.0530    2.0846 N.3     1  UNL1       -0.2035
     19 O           4.7588    1.4879   -0.4497 O.2     1  UNL1       -0.1533
     20 O           5.2889   -0.7494    0.3837 O.2     1  UNL1       -0.1533
     21 C           2.2281   -1.3919    0.2878 C.ar    1  UNL1       -0.0348
     22 C           0.9461   -1.6910   -0.1015 C.ar    1  UNL1       -0.0520
     23 H           0.3266   -2.5180   -2.8670 H       1  UNL1        0.0309
     24 H          -1.0645   -3.0027   -3.8465 H       1  UNL1        0.0309
     25 H          -0.6985   -3.9967   -2.4269 H       1  UNL1        0.0309
     26 H          -1.5865   -0.6582    1.8934 H       1  UNL1        0.0624
     27 H          -1.7099    1.1678    3.5553 H       1  UNL1        0.0618
     28 H          -2.6448    3.3177    2.9783 H       1  UNL1        0.0618
     29 H          -3.4907    3.7100    0.7083 H       1  UNL1        0.0618
     30 H          -3.3926    1.9510   -0.9584 H       1  UNL1        0.0624
     31 H          -0.0670    1.1876   -1.4594 H       1  UNL1        0.0624
     32 H           2.2184    1.8088   -0.7951 H       1  UNL1        0.0637
     33 H           3.7159    1.9016    2.0509 H       1  UNL1        0.1442
     34 H           5.3151    1.4615    2.2122 H       1  UNL1        0.1442
     35 H           2.8684   -2.1116    0.7751 H       1  UNL1        0.0637
     36 H           0.5976   -2.7065    0.1076 H       1  UNL1        0.0624
@<TRIPOS>BOND
     1     1     2    1
     2     2     3   ar
     3     3     4   ar
     4     4     5   ar
     5     5     6    1
     6     6     7   ar
     7     7     8   ar
     8     8     9   ar
     9     9    10   ar
    10    10    11   ar
    11     5    12   ar
    12    12    13    1
    13    13    14   ar
    14    14    15   ar
    15    15    16   ar
    16    16    17    1
    17    17    18    1
    18    17    19    2
    19    17    20    2
    20    16    21   ar
    21    21    22   ar
    22    12     2   ar
    23    22    13   ar
    24    11     6   ar
    25     1    23    1
    26     1    24    1
    27     1    25    1
    28     7    26    1
    29     8    27    1
    30     9    28    1
    31    10    29    1
    32    11    30    1
    33    14    31    1
    34    15    32    1
    35    18    33    1
    36    18    34    1
    37    21    35    1
    38    22    36    1
