@<TRIPOS>MOLECULE
*****
 54 56 0 0 0
SMALL
GASTEIGER

@<TRIPOS>ATOM
      1 C           8.4049    0.5524    1.7976 C.3     1  UNL1        0.0003
      2 N           7.8614   -0.1044    0.6305 N.pl3   1  UNL1       -0.3165
      3 C           6.4422   -0.0015    0.4043 C.ar    1  UNL1        0.2166
      4 N           5.9120    0.9889   -0.3126 N.ar    1  UNL1       -0.2221
      5 C           4.5717    1.0803   -0.5223 C.ar    1  UNL1        0.0466
      6 C           3.7238    0.1379    0.0094 C.ar    1  UNL1        0.0948
      7 C           2.2876    0.2733   -0.2403 C.2     1  UNL1        0.2531
      8 O           1.5169   -0.5763    0.2381 O.2     1  UNL1       -0.2697
      9 N           1.7185    1.3048   -0.9885 N.am    1  UNL1       -0.2811
     10 C           0.3328    1.5152   -1.2824 C.ar    1  UNL1        0.0373
     11 C          -0.6879    0.7229   -0.8697 C.ar    1  UNL1       -0.0281
     12 C          -2.0374    0.9378   -1.1624 C.ar    1  UNL1        0.0388
     13 C          -3.0598    0.0275   -0.6714 C.2     1  UNL1        0.2484
     14 O          -2.6914   -0.9544    0.0215 O.2     1  UNL1       -0.2699
     15 N          -4.4356    0.1799   -0.9253 N.am    1  UNL1       -0.2792
     16 C          -5.4258   -0.7299   -0.4310 C.ar    1  UNL1        0.0698
     17 C          -5.7887   -1.8219   -1.1848 C.ar    1  UNL1       -0.0376
     18 C          -6.7454   -2.7348   -0.7490 C.ar    1  UNL1       -0.0593
     19 C          -7.3463   -2.5407    0.4708 C.ar    1  UNL1       -0.0472
     20 C          -6.9784   -1.4354    1.2329 C.ar    1  UNL1        0.0917
     21 C          -7.5998   -1.1771    2.5650 C.3     1  UNL1        0.4201
     22 F          -6.6203   -1.1707    3.5478 F       1  UNL1       -0.1658
     23 F          -8.5632   -2.1165    2.8485 F       1  UNL1       -0.1658
     24 F          -8.2284    0.0654    2.5938 F       1  UNL1       -0.1658
     25 C          -6.0281   -0.5337    0.7935 C.ar    1  UNL1        0.1561
     26 F          -5.7073    0.5313    1.5828 F       1  UNL1       -0.2030
     27 C          -2.3281    2.0431   -1.9286 C.ar    1  UNL1       -0.0493
     28 C          -1.3068    2.8772   -2.3691 C.ar    1  UNL1       -0.0564
     29 C           0.0040    2.6331   -2.0613 C.ar    1  UNL1       -0.0292
     30 C           1.0851    3.5404   -2.5437 C.3     1  UNL1       -0.0380
     31 C           4.2931   -0.8698    0.7421 C.ar    1  UNL1        0.1358
     32 N           3.5363   -1.8875    1.3340 N.pl3   1  UNL1       -0.3314
     33 C           4.2115   -2.9234    2.0972 C.3     1  UNL1       -0.0011
     34 N           5.6469   -0.9339    0.9352 N.ar    1  UNL1       -0.1990
     35 H           9.4355    0.1603    1.9519 H       1  UNL1        0.0426
     36 H           7.8207    0.3515    2.7069 H       1  UNL1        0.0426
     37 H           8.4786    1.6532    1.6448 H       1  UNL1        0.0426
     38 H           8.4529   -0.6410   -0.0413 H       1  UNL1        0.1486
     39 H           4.2731    1.9218   -1.1145 H       1  UNL1        0.0839
     40 H           2.3866    2.0134   -1.3845 H       1  UNL1        0.1551
     41 H          -0.4986   -0.1524   -0.2673 H       1  UNL1        0.0644
     42 H          -4.7449    0.9903   -1.4978 H       1  UNL1        0.1552
     43 H          -5.3541   -2.0305   -2.1511 H       1  UNL1        0.0637
     44 H          -7.0366   -3.5966   -1.3360 H       1  UNL1        0.0618
     45 H          -8.1020   -3.2125    0.8758 H       1  UNL1        0.0624
     46 H          -3.3605    2.2500   -2.1808 H       1  UNL1        0.0625
     47 H          -1.5809    3.7534   -2.9814 H       1  UNL1        0.0621
     48 H           1.6293    3.9672   -1.6861 H       1  UNL1        0.0278
     49 H           0.6492    4.2920   -3.2228 H       1  UNL1        0.0278
     50 H           1.7855    2.8849   -3.1279 H       1  UNL1        0.0278
     51 H           2.5275   -1.9683    1.2754 H       1  UNL1        0.1471
     52 H           3.5925   -3.2390    2.9347 H       1  UNL1        0.0426
     53 H           4.4577   -3.7570    1.3818 H       1  UNL1        0.0426
     54 H           5.2186   -2.5405    2.4278 H       1  UNL1        0.0426
@<TRIPOS>BOND
     1     1     2    1
     2     2     3    1
     3     3     4   ar
     4     4     5   ar
     5     5     6   ar
     6     6     7    1
     7     7     8    2
     8     7     9   am
     9     9    10    1
    10    10    11   ar
    11    11    12   ar
    12    12    13    1
    13    13    14    2
    14    13    15   am
    15    15    16    1
    16    16    17   ar
    17    17    18   ar
    18    18    19   ar
    19    19    20   ar
    20    20    21    1
    21    21    22    1
    22    21    23    1
    23    21    24    1
    24    20    25   ar
    25    25    26    1
    26    12    27   ar
    27    27    28   ar
    28    28    29   ar
    29    29    30    1
    30     6    31   ar
    31    31    32    1
    32    32    33    1
    33    31    34   ar
    34    34     3   ar
    35    29    10   ar
    36    25    16   ar
    37     1    35    1
    38     1    36    1
    39     1    37    1
    40     2    38    1
    41     5    39    1
    42     9    40    1
    43    11    41    1
    44    15    42    1
    45    17    43    1
    46    18    44    1
    47    19    45    1
    48    27    46    1
    49    28    47    1
    50    30    48    1
    51    30    49    1
    52    30    50    1
    53    32    51    1
    54    33    52    1
    55    33    53    1
    56    33    54    1
