
     RDKit          3D

 54 56  0  0  0  0  0  0  0  0999 V2000
    8.4049    0.5524    1.7976 C   0  0  0  0  0  0  0  0  0  0  0  0
    7.8614   -0.1044    0.6305 N   0  0  0  0  0  0  0  0  0  0  0  0
    6.4422   -0.0015    0.4043 C   0  0  0  0  0  0  0  0  0  0  0  0
    5.9120    0.9889   -0.3126 N   0  0  0  0  0  0  0  0  0  0  0  0
    4.5717    1.0803   -0.5223 C   0  0  0  0  0  0  0  0  0  0  0  0
    3.7238    0.1379    0.0094 C   0  0  0  0  0  0  0  0  0  0  0  0
    2.2876    0.2733   -0.2403 C   0  0  0  0  0  0  0  0  0  0  0  0
    1.5169   -0.5763    0.2381 O   0  0  0  0  0  0  0  0  0  0  0  0
    1.7185    1.3048   -0.9885 N   0  0  0  0  0  0  0  0  0  0  0  0
    0.3328    1.5152   -1.2824 C   0  0  0  0  0  0  0  0  0  0  0  0
   -0.6879    0.7229   -0.8697 C   0  0  0  0  0  0  0  0  0  0  0  0
   -2.0374    0.9378   -1.1624 C   0  0  0  0  0  0  0  0  0  0  0  0
   -3.0598    0.0275   -0.6714 C   0  0  0  0  0  0  0  0  0  0  0  0
   -2.6914   -0.9544    0.0215 O   0  0  0  0  0  0  0  0  0  0  0  0
   -4.4356    0.1799   -0.9253 N   0  0  0  0  0  0  0  0  0  0  0  0
   -5.4258   -0.7299   -0.4310 C   0  0  0  0  0  0  0  0  0  0  0  0
   -5.7887   -1.8219   -1.1848 C   0  0  0  0  0  0  0  0  0  0  0  0
   -6.7454   -2.7348   -0.7490 C   0  0  0  0  0  0  0  0  0  0  0  0
   -7.3463   -2.5407    0.4708 C   0  0  0  0  0  0  0  0  0  0  0  0
   -6.9784   -1.4354    1.2329 C   0  0  0  0  0  0  0  0  0  0  0  0
   -7.5998   -1.1771    2.5650 C   0  0  0  0  0  0  0  0  0  0  0  0
   -6.6203   -1.1707    3.5478 F   0  0  0  0  0  0  0  0  0  0  0  0
   -8.5632   -2.1165    2.8485 F   0  0  0  0  0  0  0  0  0  0  0  0
   -8.2284    0.0654    2.5938 F   0  0  0  0  0  0  0  0  0  0  0  0
   -6.0281   -0.5337    0.7935 C   0  0  0  0  0  0  0  0  0  0  0  0
   -5.7073    0.5313    1.5828 F   0  0  0  0  0  0  0  0  0  0  0  0
   -2.3281    2.0431   -1.9286 C   0  0  0  0  0  0  0  0  0  0  0  0
   -1.3068    2.8772   -2.3691 C   0  0  0  0  0  0  0  0  0  0  0  0
    0.0040    2.6331   -2.0613 C   0  0  0  0  0  0  0  0  0  0  0  0
    1.0851    3.5404   -2.5437 C   0  0  0  0  0  0  0  0  0  0  0  0
    4.2931   -0.8698    0.7421 C   0  0  0  0  0  0  0  0  0  0  0  0
    3.5363   -1.8875    1.3340 N   0  0  0  0  0  0  0  0  0  0  0  0
    4.2115   -2.9234    2.0972 C   0  0  0  0  0  0  0  0  0  0  0  0
    5.6469   -0.9339    0.9352 N   0  0  0  0  0  0  0  0  0  0  0  0
    9.4355    0.1603    1.9519 H   0  0  0  0  0  0  0  0  0  0  0  0
    7.8207    0.3515    2.7069 H   0  0  0  0  0  0  0  0  0  0  0  0
    8.4786    1.6532    1.6448 H   0  0  0  0  0  0  0  0  0  0  0  0
    8.4529   -0.6410   -0.0413 H   0  0  0  0  0  0  0  0  0  0  0  0
    4.2731    1.9218   -1.1145 H   0  0  0  0  0  0  0  0  0  0  0  0
    2.3866    2.0134   -1.3845 H   0  0  0  0  0  0  0  0  0  0  0  0
   -0.4986   -0.1524   -0.2673 H   0  0  0  0  0  0  0  0  0  0  0  0
   -4.7449    0.9903   -1.4978 H   0  0  0  0  0  0  0  0  0  0  0  0
   -5.3541   -2.0305   -2.1511 H   0  0  0  0  0  0  0  0  0  0  0  0
   -7.0366   -3.5966   -1.3360 H   0  0  0  0  0  0  0  0  0  0  0  0
   -8.1020   -3.2125    0.8758 H   0  0  0  0  0  0  0  0  0  0  0  0
   -3.3605    2.2500   -2.1808 H   0  0  0  0  0  0  0  0  0  0  0  0
   -1.5809    3.7534   -2.9814 H   0  0  0  0  0  0  0  0  0  0  0  0
    1.6293    3.9672   -1.6861 H   0  0  0  0  0  0  0  0  0  0  0  0
    0.6492    4.2920   -3.2228 H   0  0  0  0  0  0  0  0  0  0  0  0
    1.7855    2.8849   -3.1279 H   0  0  0  0  0  0  0  0  0  0  0  0
    2.5275   -1.9683    1.2754 H   0  0  0  0  0  0  0  0  0  0  0  0
    3.5925   -3.2390    2.9347 H   0  0  0  0  0  0  0  0  0  0  0  0
    4.4577   -3.7570    1.3818 H   0  0  0  0  0  0  0  0  0  0  0  0
    5.2186   -2.5405    2.4278 H   0  0  0  0  0  0  0  0  0  0  0  0
  1  2  1  0
  2  3  1  0
  3  4  2  0
  4  5  1  0
  5  6  2  0
  6  7  1  0
  7  8  2  0
  7  9  1  0
  9 10  1  0
 10 11  2  0
 11 12  1  0
 12 13  1  0
 13 14  2  0
 13 15  1  0
 15 16  1  0
 16 17  2  0
 17 18  1  0
 18 19  2  0
 19 20  1  0
 20 21  1  0
 21 22  1  0
 21 23  1  0
 21 24  1  0
 20 25  2  0
 25 26  1  0
 12 27  2  0
 27 28  1  0
 28 29  2  0
 29 30  1  0
  6 31  1  0
 31 32  1  0
 32 33  1  0
 31 34  2  0
 34  3  1  0
 29 10  1  0
 25 16  1  0
  1 35  1  0
  1 36  1  0
  1 37  1  0
  2 38  1  0
  5 39  1  0
  9 40  1  0
 11 41  1  0
 15 42  1  0
 17 43  1  0
 18 44  1  0
 19 45  1  0
 27 46  1  0
 28 47  1  0
 30 48  1  0
 30 49  1  0
 30 50  1  0
 32 51  1  0
 33 52  1  0
 33 53  1  0
 33 54  1  0
M  END
$$$$
