@<TRIPOS>MOLECULE
*****
 43 44 0 0 0
SMALL
GASTEIGER

@<TRIPOS>ATOM
      1 C           4.1825   -1.9158    1.9271 C.3     1  UNL1        0.0820
      2 O           2.8613   -1.4727    1.6529 O.3     1  UNL1       -0.4646
      3 C           2.2798   -1.3831    0.4383 C.2     1  UNL1        0.3373
      4 O           3.3411   -1.7914   -0.0740 O.2     1  UNL1       -0.2452
      5 C           1.0970   -1.0398   -0.2810 C.2     1  UNL1        0.0654
      6 C           1.2461   -1.1883   -1.6275 C.2     1  UNL1        0.0157
      7 C           2.3792   -1.6253   -2.4467 C.3     1  UNL1       -0.0260
      8 N           0.0566   -1.0023   -2.4406 N.pl3   1  UNL1       -0.3207
      9 C          -1.2272   -0.6723   -1.9800 C.2     1  UNL1        0.0157
     10 C          -2.4881   -0.5040   -2.7631 C.3     1  UNL1       -0.0260
     11 C          -1.2538   -0.5099   -0.6938 C.2     1  UNL1        0.0654
     12 C          -0.1635   -0.5839    0.3567 C.3     1  UNL1        0.0570
     13 C          -0.0273    0.7982    0.9208 C.ar    1  UNL1        0.0419
     14 C          -0.4577    1.0607    2.2093 C.ar    1  UNL1       -0.0512
     15 C          -0.4823    2.3158    2.7591 C.ar    1  UNL1       -0.0611
     16 C          -0.0767    3.4329    2.0932 C.ar    1  UNL1       -0.0553
     17 C           0.3626    3.2283    0.8079 C.ar    1  UNL1        0.0159
     18 C           0.3627    1.9379    0.2945 C.ar    1  UNL1        0.2772
     19 N           0.9053    1.9245   -0.9953 N.pl3   1  UNL1        0.0799
     20 O           1.4331    1.8899   -2.2528 O.co2   1  UNL1       -0.5760
     21 O           1.1756    2.4254   -2.1062 O.2     1  UNL1        0.0415
     22 C          -2.5574   -0.3794   -0.0384 C.2     1  UNL1        0.3373
     23 O          -3.7787   -0.3740   -0.3593 O.2     1  UNL1       -0.2452
     24 O          -2.9266   -0.2214    1.2857 O.3     1  UNL1       -0.4646
     25 C          -4.2701   -0.1516    1.6954 C.3     1  UNL1        0.0820
     26 H           4.2512   -3.0247    1.9690 H       1  UNL1        0.0661
     27 H           4.5128   -1.5354    2.9003 H       1  UNL1        0.0661
     28 H           4.9395   -1.5698    1.2008 H       1  UNL1        0.0661
     29 H           2.5530   -2.7100   -2.4301 H       1  UNL1        0.0290
     30 H           3.3222   -1.1107   -2.1189 H       1  UNL1        0.0290
     31 H           2.2893   -1.3431   -3.5197 H       1  UNL1        0.0290
     32 H           0.0574   -1.0905   -3.4935 H       1  UNL1        0.1516
     33 H          -2.2192   -0.4917   -3.8562 H       1  UNL1        0.0290
     34 H          -2.9610    0.4923   -2.5379 H       1  UNL1        0.0290
     35 H          -3.2694   -1.2658   -2.5355 H       1  UNL1        0.0290
     36 H          -0.4496   -1.2613    1.1396 H       1  UNL1        0.0454
     37 H          -0.8133    0.3013    2.8783 H       1  UNL1        0.0623
     38 H          -0.8492    2.5041    3.7619 H       1  UNL1        0.0618
     39 H          -0.1245    4.4416    2.5168 H       1  UNL1        0.0620
     40 H           0.6995    4.1216    0.2346 H       1  UNL1        0.0685
     41 H          -4.8401    0.7108    1.4063 H       1  UNL1        0.0661
     42 H          -4.7784   -1.0977    1.2929 H       1  UNL1        0.0661
     43 H          -4.2937   -0.2693    2.8092 H       1  UNL1        0.0661
@<TRIPOS>UNITY_ATOM_ATTR
19 1
charge 1
20 1
charge -1
@<TRIPOS>BOND
     1     1     2    1
     2     2     3    1
     3     3     4    2
     4     3     5    1
     5     5     6    2
     6     6     7    1
     7     6     8    1
     8     8     9    1
     9     9    10    1
    10     9    11    2
    11    11    12    1
    12    12    13    1
    13    13    14   ar
    14    14    15   ar
    15    15    16   ar
    16    16    17   ar
    17    17    18   ar
    18    18    19    1
    19    19    20    1
    20    19    21    2
    21    11    22    1
    22    22    23    2
    23    22    24    1
    24    24    25    1
    25    12     5    1
    26    18    13   ar
    27     1    26    1
    28     1    27    1
    29     1    28    1
    30     7    29    1
    31     7    30    1
    32     7    31    1
    33     8    32    1
    34    10    33    1
    35    10    34    1
    36    10    35    1
    37    12    36    1
    38    14    37    1
    39    15    38    1
    40    16    39    1
    41    17    40    1
    42    25    41    1
    43    25    42    1
    44    25    43    1
