@<TRIPOS>MOLECULE
*****
 78 85 0 0 0
SMALL
GASTEIGER

@<TRIPOS>ATOM
      1 C          -3.3511   -2.7864    0.8410 C.3     1  UNL1        0.0987
      2 C          -2.6630   -4.0763    1.2378 C.3     1  UNL1       -0.0261
      3 C          -3.7935   -5.1042    1.1817 C.3     1  UNL1       -0.0352
      4 C          -4.7015   -4.6644    0.0726 C.3     1  UNL1        0.0154
      5 N          -4.4815   -3.2181   -0.0037 N.am    1  UNL1       -0.2900
      6 C          -5.1245   -2.1426   -0.7244 C.2     1  UNL1        0.2371
      7 O          -5.8992   -2.4785   -1.6700 O.2     1  UNL1       -0.2735
      8 C          -4.7091   -0.7857   -0.1614 C.3     1  UNL1        0.1113
      9 C          -5.5599    0.2943   -0.7088 C.3     1  UNL1       -0.0003
     10 C          -5.2722    1.6525   -0.2098 C.ar    1  UNL1       -0.0451
     11 C          -5.8434    1.9046    1.0508 C.ar    1  UNL1       -0.0585
     12 C          -5.7521    3.0963    1.7362 C.ar    1  UNL1       -0.0615
     13 C          -5.0604    4.1371    1.1789 C.ar    1  UNL1       -0.0617
     14 C          -4.4899    3.9447   -0.0387 C.ar    1  UNL1       -0.0615
     15 C          -4.6016    2.7462   -0.6915 C.ar    1  UNL1       -0.0585
     16 N          -3.2967   -0.7284   -0.3953 N.am    1  UNL1       -0.2331
     17 C          -2.2017    0.0669   -0.9013 C.2     1  UNL1        0.2707
     18 O          -2.3402    0.7481   -1.9503 O.2     1  UNL1       -0.2704
     19 C          -1.1090   -0.1847    0.0807 C.3     1  UNL1        0.2150
     20 C          -1.4463    0.6904    1.2878 C.3     1  UNL1       -0.0096
     21 N           0.1948    0.1293   -0.3744 N.am    1  UNL1       -0.2798
     22 C           0.9214   -0.3818   -1.4834 C.2     1  UNL1        0.2235
     23 O           0.3167   -1.2610   -2.1886 O.2     1  UNL1       -0.2750
     24 C           2.3201    0.0785   -1.8155 C.3     1  UNL1        0.0670
     25 C           2.3961    1.5215   -2.0861 C.3     1  UNL1        0.0138
     26 N           3.5273    2.2647   -1.7450 N.3     1  UNL1       -0.2971
     27 C           3.3006    3.6750   -1.5284 C.3     1  UNL1       -0.0121
     28 C           4.4887    1.7492   -0.8411 C.3     1  UNL1        0.0397
     29 C           5.9130    1.9368   -1.2623 C.3     1  UNL1       -0.0059
     30 C           6.8125    1.3292   -0.2562 C.ar    1  UNL1       -0.0200
     31 C           8.1354    1.5497    0.1191 C.ar    1  UNL1        0.0060
     32 N           8.5056    0.6944    1.1217 N.ar    1  UNL1       -0.3604
     33 C           7.4763   -0.0879    1.4274 C.ar    1  UNL1        0.0473
     34 C           7.1177   -1.1150    2.2727 C.ar    1  UNL1       -0.0378
     35 C           5.8491   -1.7003    2.2802 C.ar    1  UNL1       -0.0592
     36 C           4.8453   -1.2624    1.4048 C.ar    1  UNL1       -0.0536
     37 C           5.1754   -0.2192    0.5309 C.ar    1  UNL1       -0.0112
     38 C           6.4657    0.3036    0.5930 C.ar    1  UNL1        0.0103
     39 C           4.2375    0.3484   -0.4404 C.2     1  UNL1       -0.0254
     40 C           3.2884   -0.4594   -0.8337 C.2     1  UNL1       -0.0658
     41 O          -1.3205   -1.4886    0.5033 O.3     1  UNL1       -0.2988
     42 C          -2.5116   -1.9187   -0.0193 C.3     1  UNL1        0.2691
     43 O          -2.2396   -2.6442   -1.1947 O.3     1  UNL1       -0.3481
     44 H          -3.7967   -2.2724    1.7095 H       1  UNL1        0.0572
     45 H          -1.8201   -4.3409    0.5996 H       1  UNL1        0.0286
     46 H          -2.3912   -3.9817    2.3133 H       1  UNL1        0.0286
     47 H          -3.4143   -6.1283    0.9844 H       1  UNL1        0.0281
     48 H          -4.3513   -5.1155    2.1585 H       1  UNL1        0.0281
     49 H          -4.4224   -5.1515   -0.8824 H       1  UNL1        0.0465
     50 H          -5.7721   -4.8762    0.2662 H       1  UNL1        0.0465
     51 H          -4.9824   -0.8775    0.9392 H       1  UNL1        0.0602
     52 H          -5.5922    0.2806   -1.8355 H       1  UNL1        0.0336
     53 H          -6.6203    0.0419   -0.4302 H       1  UNL1        0.0336
     54 H          -6.4233    1.1517    1.6050 H       1  UNL1        0.0620
     55 H          -6.2011    3.2624    2.7044 H       1  UNL1        0.0618
     56 H          -4.9053    5.1189    1.5932 H       1  UNL1        0.0618
     57 H          -3.9198    4.6958   -0.5756 H       1  UNL1        0.0618
     58 H          -4.1829    2.5726   -1.6628 H       1  UNL1        0.0620
     59 H          -2.5354    0.5725    1.4556 H       1  UNL1        0.0279
     60 H          -1.2820    1.7428    1.0058 H       1  UNL1        0.0279
     61 H          -0.8899    0.3826    2.1901 H       1  UNL1        0.0279
     62 H           0.7639    0.8456    0.1491 H       1  UNL1        0.1519
     63 H           2.5698   -0.4550   -2.7729 H       1  UNL1        0.0450
     64 H           1.5148    1.9937   -1.5546 H       1  UNL1        0.0437
     65 H           2.1597    1.7570   -3.1686 H       1  UNL1        0.0437
     66 H           4.1563    4.2170   -2.0180 H       1  UNL1        0.0391
     67 H           3.3996    3.8654   -0.4406 H       1  UNL1        0.0391
     68 H           2.3315    3.9941   -1.9089 H       1  UNL1        0.0391
     69 H           4.3850    2.3639    0.1049 H       1  UNL1        0.0515
     70 H           6.1475    3.0038   -1.4407 H       1  UNL1        0.0332
     71 H           6.1383    1.4113   -2.2254 H       1  UNL1        0.0332
     72 H           8.8187    2.2983   -0.3084 H       1  UNL1        0.0810
     73 H           9.4193    0.6092    1.6132 H       1  UNL1        0.1653
     74 H           7.8979   -1.4619    2.9600 H       1  UNL1        0.0638
     75 H           5.6149   -2.5042    2.9618 H       1  UNL1        0.0618
     76 H           3.8497   -1.6753    1.3685 H       1  UNL1        0.0624
     77 H           3.1656   -1.4587   -0.5051 H       1  UNL1        0.0583
     78 H          -2.3490   -2.0353   -1.9715 H       1  UNL1        0.2145
@<TRIPOS>BOND
     1     1     2    1
     2     2     3    1
     3     3     4    1
     4     4     5    1
     5     5     6   am
     6     6     7    2
     7     6     8    1
     8     8     9    1
     9     9    10    1
    10    10    11   ar
    11    11    12   ar
    12    12    13   ar
    13    13    14   ar
    14    14    15   ar
    15     8    16    1
    16    16    17   am
    17    17    18    2
    18    17    19    1
    19    19    20    1
    20    19    21    1
    21    21    22   am
    22    22    23    2
    23    22    24    1
    24    24    25    1
    25    25    26    1
    26    26    27    1
    27    26    28    1
    28    28    29    1
    29    29    30    1
    30    30    31   ar
    31    31    32   ar
    32    32    33   ar
    33    33    34   ar
    34    34    35   ar
    35    35    36   ar
    36    36    37   ar
    37    37    38   ar
    38    37    39    1
    39    39    40    2
    40    19    41    1
    41    41    42    1
    42    42    43    1
    43     5     1    1
    44    15    10   ar
    45    42    16    1
    46    42     1    1
    47    40    24    1
    48    39    28    1
    49    38    30   ar
    50    38    33   ar
    51     1    44    1
    52     2    45    1
    53     2    46    1
    54     3    47    1
    55     3    48    1
    56     4    49    1
    57     4    50    1
    58     8    51    1
    59     9    52    1
    60     9    53    1
    61    11    54    1
    62    12    55    1
    63    13    56    1
    64    14    57    1
    65    15    58    1
    66    20    59    1
    67    20    60    1
    68    20    61    1
    69    21    62    1
    70    24    63    1
    71    25    64    1
    72    25    65    1
    73    27    66    1
    74    27    67    1
    75    27    68    1
    76    28    69    1
    77    29    70    1
    78    29    71    1
    79    31    72    1
    80    32    73    1
    81    34    74    1
    82    35    75    1
    83    36    76    1
    84    40    77    1
    85    43    78    1
