
     RDKit          3D

 51 54  0  0  0  0  0  0  0  0999 V2000
   -2.1840    0.3455   -0.2489 C   0  0  2  0  0  0  0  0  0  0  0  0
   -3.1880    1.3918   -0.5121 C   0  0  0  0  0  0  0  0  0  0  0  0
   -4.4805    0.6015   -0.3877 C   0  0  1  0  0  0  0  0  0  0  0  0
   -4.8840   -0.1083   -2.1491 Br  0  0  0  0  0  0  0  0  0  0  0  0
   -4.1441   -0.5683    0.5079 C   0  0  0  0  0  0  0  0  0  0  0  0
   -5.0751   -1.3258    0.5568 O   0  0  0  0  0  0  0  0  0  0  0  0
   -2.7784   -0.3292    0.9882 C   0  0  2  0  0  0  0  0  0  0  0  0
   -2.8636    0.5864    2.1700 C   0  0  0  0  0  0  0  0  0  0  0  0
   -1.9648   -1.5605    1.2375 C   0  0  0  0  0  0  0  0  0  0  0  0
   -0.5095   -1.2443    1.3285 C   0  0  0  0  0  0  0  0  0  0  0  0
   -0.0088   -0.5492    0.0725 C   0  0  1  0  0  0  0  0  0  0  0  0
   -0.7757    0.7719    0.0055 C   0  0  1  0  0  0  0  0  0  0  0  0
   -0.2916    1.6542   -1.0965 C   0  0  0  0  0  0  0  0  0  0  0  0
    1.1653    1.9833   -0.7452 C   0  0  0  0  0  0  0  0  0  0  0  0
    1.9078    0.6676   -0.9119 C   0  0  1  0  0  0  0  0  0  0  0  0
    3.3913    0.8547   -0.9150 C   0  0  0  0  0  0  0  0  0  0  0  0
    4.0353   -0.4426   -1.3237 C   0  0  1  0  0  0  0  0  0  0  0  0
    4.9445   -0.8529   -0.3609 O   0  0  0  0  0  0  0  0  0  0  0  0
    3.0240   -1.5314   -1.5564 C   0  0  0  0  0  0  0  0  0  0  0  0
    2.0920   -1.6903   -0.3888 C   0  0  0  0  0  0  0  0  0  0  0  0
    1.4615   -0.3829    0.0569 C   0  0  2  0  0  0  0  0  0  0  0  0
    1.9417   -0.0969    1.4613 C   0  0  0  0  0  0  0  0  0  0  0  0
   -2.1779   -0.4360   -1.0373 H   0  0  0  0  0  0  0  0  0  0  0  0
   -3.0781    1.8149   -1.5175 H   0  0  0  0  0  0  0  0  0  0  0  0
   -3.2012    2.1298    0.3120 H   0  0  0  0  0  0  0  0  0  0  0  0
   -5.3099    1.1986    0.0089 H   0  0  0  0  0  0  0  0  0  0  0  0
   -2.2561    1.5047    2.0990 H   0  0  0  0  0  0  0  0  0  0  0  0
   -3.9118    0.9573    2.3574 H   0  0  0  0  0  0  0  0  0  0  0  0
   -2.5757    0.0894    3.1301 H   0  0  0  0  0  0  0  0  0  0  0  0
   -2.1299   -2.2877    0.4305 H   0  0  0  0  0  0  0  0  0  0  0  0
   -2.2660   -2.0288    2.2029 H   0  0  0  0  0  0  0  0  0  0  0  0
   -0.2914   -0.6229    2.2450 H   0  0  0  0  0  0  0  0  0  0  0  0
    0.0539   -2.2001    1.4821 H   0  0  0  0  0  0  0  0  0  0  0  0
   -0.3230   -1.2011   -0.7705 H   0  0  0  0  0  0  0  0  0  0  0  0
   -0.5827    1.2710    0.9546 H   0  0  0  0  0  0  0  0  0  0  0  0
   -0.9217    2.5497   -1.1057 H   0  0  0  0  0  0  0  0  0  0  0  0
   -0.3523    1.0645   -2.0323 H   0  0  0  0  0  0  0  0  0  0  0  0
    1.6109    2.7175   -1.4234 H   0  0  0  0  0  0  0  0  0  0  0  0
    1.2027    2.2732    0.3167 H   0  0  0  0  0  0  0  0  0  0  0  0
    1.6203    0.3194   -1.9368 H   0  0  0  0  0  0  0  0  0  0  0  0
    3.6239    1.6677   -1.6593 H   0  0  0  0  0  0  0  0  0  0  0  0
    3.7755    1.2314    0.0492 H   0  0  0  0  0  0  0  0  0  0  0  0
    4.5955   -0.2731   -2.2699 H   0  0  0  0  0  0  0  0  0  0  0  0
    5.8006   -1.1807   -0.7607 H   0  0  0  0  0  0  0  0  0  0  0  0
    3.5965   -2.4828   -1.6337 H   0  0  0  0  0  0  0  0  0  0  0  0
    2.4985   -1.4288   -2.5300 H   0  0  0  0  0  0  0  0  0  0  0  0
    2.6966   -2.1561    0.4347 H   0  0  0  0  0  0  0  0  0  0  0  0
    1.3244   -2.4439   -0.6603 H   0  0  0  0  0  0  0  0  0  0  0  0
    3.0401    0.0361    1.5310 H   0  0  0  0  0  0  0  0  0  0  0  0
    1.4080    0.7528    1.9293 H   0  0  0  0  0  0  0  0  0  0  0  0
    1.7150   -1.0104    2.0653 H   0  0  0  0  0  0  0  0  0  0  0  0
  1  2  1  0
  2  3  1  0
  3  4  1  0
  3  5  1  0
  5  6  2  0
  5  7  1  0
  7  8  1  1
  7  9  1  0
  9 10  1  0
 10 11  1  0
 11 12  1  0
 12 13  1  0
 13 14  1  0
 14 15  1  0
 15 16  1  0
 16 17  1  0
 17 18  1  0
 17 19  1  0
 19 20  1  0
 20 21  1  0
 21 22  1  1
  7  1  1  0
 21 11  1  0
 12  1  1  0
 21 15  1  0
  1 23  1  6
  2 24  1  0
  2 25  1  0
  3 26  1  1
  8 27  1  0
  8 28  1  0
  8 29  1  0
  9 30  1  0
  9 31  1  0
 10 32  1  0
 10 33  1  0
 11 34  1  6
 12 35  1  1
 13 36  1  0
 13 37  1  0
 14 38  1  0
 14 39  1  0
 15 40  1  6
 16 41  1  0
 16 42  1  0
 17 43  1  6
 18 44  1  0
 19 45  1  0
 19 46  1  0
 20 47  1  0
 20 48  1  0
 22 49  1  0
 22 50  1  0
 22 51  1  0
M  END
$$$$
