@<TRIPOS>MOLECULE
*****
 51 54 0 0 0
SMALL
GASTEIGER

@<TRIPOS>ATOM
      1 C          -2.1840    0.3455   -0.2489 C.3     1  UNL1       -0.0244
      2 C          -3.1880    1.3918   -0.5121 C.3     1  UNL1       -0.0297
      3 C          -4.4805    0.6015   -0.3877 C.3     1  UNL1        0.0738
      4 BR         -4.8840   -0.1083   -2.1491 Br      1  UNL1       -0.0800
      5 C          -4.1441   -0.5683    0.5079 C.2     1  UNL1        0.1528
      6 O          -5.0751   -1.3258    0.5568 O.2     1  UNL1       -0.2956
      7 C          -2.7784   -0.3292    0.9882 C.3     1  UNL1        0.0304
      8 C          -2.8636    0.5864    2.1700 C.3     1  UNL1       -0.0525
      9 C          -1.9648   -1.5605    1.2375 C.3     1  UNL1       -0.0403
     10 C          -0.5095   -1.2443    1.3285 C.3     1  UNL1       -0.0486
     11 C          -0.0088   -0.5492    0.0725 C.3     1  UNL1       -0.0322
     12 C          -0.7757    0.7719    0.0055 C.3     1  UNL1       -0.0339
     13 C          -0.2916    1.6542   -1.0965 C.3     1  UNL1       -0.0494
     14 C           1.1653    1.9833   -0.7452 C.3     1  UNL1       -0.0494
     15 C           1.9078    0.6676   -0.9119 C.3     1  UNL1       -0.0330
     16 C           3.3913    0.8547   -0.9150 C.3     1  UNL1       -0.0235
     17 C           4.0353   -0.4426   -1.3237 C.3     1  UNL1        0.0555
     18 O           4.9445   -0.8529   -0.3609 O.3     1  UNL1       -0.3918
     19 C           3.0240   -1.5314   -1.5564 C.3     1  UNL1       -0.0263
     20 C           2.0920   -1.6903   -0.3888 C.3     1  UNL1       -0.0448
     21 C           1.4615   -0.3829    0.0569 C.3     1  UNL1       -0.0260
     22 C           1.9417   -0.0969    1.4613 C.3     1  UNL1       -0.0590
     23 H          -2.1779   -0.4360   -1.0373 H       1  UNL1        0.0313
     24 H          -3.0781    1.8149   -1.5175 H       1  UNL1        0.0283
     25 H          -3.2012    2.1298    0.3120 H       1  UNL1        0.0283
     26 H          -5.3099    1.1986    0.0089 H       1  UNL1        0.0496
     27 H          -2.2561    1.5047    2.0990 H       1  UNL1        0.0239
     28 H          -3.9118    0.9573    2.3574 H       1  UNL1        0.0239
     29 H          -2.5757    0.0894    3.1301 H       1  UNL1        0.0239
     30 H          -2.1299   -2.2877    0.4305 H       1  UNL1        0.0275
     31 H          -2.2660   -2.0288    2.2029 H       1  UNL1        0.0275
     32 H          -0.2914   -0.6229    2.2450 H       1  UNL1        0.0268
     33 H           0.0539   -2.2001    1.4821 H       1  UNL1        0.0268
     34 H          -0.3230   -1.2011   -0.7705 H       1  UNL1        0.0309
     35 H          -0.5827    1.2710    0.9546 H       1  UNL1        0.0307
     36 H          -0.9217    2.5497   -1.1057 H       1  UNL1        0.0268
     37 H          -0.3523    1.0645   -2.0323 H       1  UNL1        0.0268
     38 H           1.6109    2.7175   -1.4234 H       1  UNL1        0.0268
     39 H           1.2027    2.2732    0.3167 H       1  UNL1        0.0268
     40 H           1.6203    0.3194   -1.9368 H       1  UNL1        0.0307
     41 H           3.6239    1.6677   -1.6593 H       1  UNL1        0.0293
     42 H           3.7755    1.2314    0.0492 H       1  UNL1        0.0293
     43 H           4.5955   -0.2731   -2.2699 H       1  UNL1        0.0593
     44 H           5.8006   -1.1807   -0.7607 H       1  UNL1        0.2098
     45 H           3.5965   -2.4828   -1.6337 H       1  UNL1        0.0290
     46 H           2.4985   -1.4288   -2.5300 H       1  UNL1        0.0290
     47 H           2.6966   -2.1561    0.4347 H       1  UNL1        0.0271
     48 H           1.3244   -2.4439   -0.6603 H       1  UNL1        0.0271
     49 H           3.0401    0.0361    1.5310 H       1  UNL1        0.0235
     50 H           1.4080    0.7528    1.9293 H       1  UNL1        0.0235
     51 H           1.7150   -1.0104    2.0653 H       1  UNL1        0.0235
@<TRIPOS>BOND
     1     1     2    1
     2     2     3    1
     3     3     4    1
     4     3     5    1
     5     5     6    2
     6     5     7    1
     7     7     8    1
     8     7     9    1
     9     9    10    1
    10    10    11    1
    11    11    12    1
    12    12    13    1
    13    13    14    1
    14    14    15    1
    15    15    16    1
    16    16    17    1
    17    17    18    1
    18    17    19    1
    19    19    20    1
    20    20    21    1
    21    21    22    1
    22     7     1    1
    23    21    11    1
    24    12     1    1
    25    21    15    1
    26     1    23    1
    27     2    24    1
    28     2    25    1
    29     3    26    1
    30     8    27    1
    31     8    28    1
    32     8    29    1
    33     9    30    1
    34     9    31    1
    35    10    32    1
    36    10    33    1
    37    11    34    1
    38    12    35    1
    39    13    36    1
    40    13    37    1
    41    14    38    1
    42    14    39    1
    43    15    40    1
    44    16    41    1
    45    16    42    1
    46    17    43    1
    47    18    44    1
    48    19    45    1
    49    19    46    1
    50    20    47    1
    51    20    48    1
    52    22    49    1
    53    22    50    1
    54    22    51    1
