@<TRIPOS>MOLECULE
*****
 73 78 0 0 0
SMALL
GASTEIGER

@<TRIPOS>ATOM
      1 C          -4.0028   -7.2616   -0.4499 C.3     1  UNL1        0.0804
      2 O          -3.2292   -6.1378   -0.8004 O.3     1  UNL1       -0.4795
      3 C          -2.7070   -5.2705    0.1426 C.ar    1  UNL1        0.2191
      4 C          -1.9451   -4.1618   -0.1631 C.ar    1  UNL1        0.0404
      5 C          -1.4435   -3.3223    0.8042 C.ar    1  UNL1        0.1364
      6 N          -0.6614   -2.1853    0.4723 N.am    1  UNL1       -0.2240
      7 C           0.7484   -2.0806    0.3270 C.2     1  UNL1        0.3219
      8 O           1.5127   -3.0778    0.2235 O.2     1  UNL1       -0.2512
      9 N           1.1873   -0.7313    0.3128 N.am    1  UNL1       -0.1920
     10 C           2.5179   -0.2115    0.1853 C.ar    1  UNL1        0.0455
     11 C           3.0924    0.0964   -1.0092 C.ar    1  UNL1       -0.0392
     12 C           4.3841    0.5956   -1.0590 C.ar    1  UNL1       -0.0522
     13 C           5.1444    0.8039    0.0792 C.ar    1  UNL1       -0.0164
     14 C           6.4991    1.3295    0.0447 C.ar    1  UNL1        0.0005
     15 C           6.7482    2.4273   -0.7457 C.ar    1  UNL1       -0.0519
     16 C           7.9899    3.0079   -0.8511 C.ar    1  UNL1       -0.0471
     17 C           9.0387    2.4680   -0.1326 C.ar    1  UNL1        0.0602
     18 C          10.3817    3.0609   -0.2190 C.2     1  UNL1        0.3368
     19 O          11.2988    2.5395    0.4463 O.2     1  UNL1       -0.2451
     20 O          10.6380    4.1500   -0.9986 O.3     1  UNL1       -0.4771
     21 C           8.8056    1.3710    0.6617 C.ar    1  UNL1       -0.0288
     22 C           7.5552    0.8050    0.7533 C.ar    1  UNL1        0.0494
     23 CL          7.2808   -0.5980    1.7738 Cl      1  UNL1       -0.0829
     24 C           4.5361    0.4820    1.2862 C.ar    1  UNL1       -0.0522
     25 C           3.2506   -0.0155    1.3459 C.ar    1  UNL1       -0.0392
     26 C          -0.0168    0.0508    0.4570 C.2     1  UNL1        0.2516
     27 O          -0.0839    1.2640    0.7460 O.2     1  UNL1       -0.2724
     28 C          -1.1810   -0.8340    0.2023 C.3     1  UNL1        0.1240
     29 C          -1.6754   -0.7262   -1.2145 C.3     1  UNL1       -0.0095
     30 C          -2.1624    0.6816   -1.4596 C.3     1  UNL1        0.0017
     31 N          -3.1752    1.0512   -0.4967 N.3     1  UNL1       -0.2965
     32 C          -4.3022    1.5960   -1.1981 C.3     1  UNL1        0.0415
     33 C          -5.3974    2.0143   -0.3122 C.ar    1  UNL1        0.0581
     34 N          -6.4840    1.2348   -0.2207 N.ar    1  UNL1       -0.2583
     35 C          -7.5453    1.5084    0.5541 C.ar    1  UNL1        0.0279
     36 C          -7.5163    2.6660    1.3043 C.ar    1  UNL1       -0.0433
     37 C          -6.4199    3.4962    1.2408 C.ar    1  UNL1       -0.0557
     38 C          -5.3583    3.1693    0.4307 C.ar    1  UNL1       -0.0279
     39 C          -4.1675    4.0663    0.3581 C.3     1  UNL1       -0.0380
     40 C          -3.5353   -0.0127    0.4045 C.3     1  UNL1        0.0017
     41 C          -2.2851   -0.4841    1.1394 C.3     1  UNL1       -0.0095
     42 N          -1.7310   -3.6319    2.0788 N.ar    1  UNL1       -0.2200
     43 C          -2.4696   -4.7023    2.4222 C.ar    1  UNL1        0.1219
     44 N          -2.9510   -5.5132    1.4402 N.ar    1  UNL1       -0.2013
     45 H          -4.8003   -7.4462   -1.2278 H       1  UNL1        0.0660
     46 H          -4.4878   -7.0061    0.5337 H       1  UNL1        0.0660
     47 H          -3.3960   -8.1664   -0.2647 H       1  UNL1        0.0660
     48 H          -1.7290   -3.9377   -1.2096 H       1  UNL1        0.0705
     49 H           2.5048   -0.0632   -1.9061 H       1  UNL1        0.0636
     50 H           4.8273    0.8354   -2.0066 H       1  UNL1        0.0624
     51 H           5.9548    2.8990   -1.3385 H       1  UNL1        0.0624
     52 H           8.2046    3.8685   -1.4650 H       1  UNL1        0.0626
     53 H          11.4557    4.7524   -0.8960 H       1  UNL1        0.2954
     54 H           9.6108    0.9264    1.2367 H       1  UNL1        0.0640
     55 H           5.0974    0.6295    2.2222 H       1  UNL1        0.0624
     56 H           2.8211   -0.2521    2.3238 H       1  UNL1        0.0636
     57 H          -2.5211   -1.4089   -1.3520 H       1  UNL1        0.0303
     58 H          -0.8658   -0.9416   -1.9510 H       1  UNL1        0.0303
     59 H          -1.3038    1.4153   -1.4352 H       1  UNL1        0.0427
     60 H          -2.5692    0.7980   -2.4994 H       1  UNL1        0.0427
     61 H          -3.9784    2.4640   -1.8131 H       1  UNL1        0.0491
     62 H          -4.6535    0.8078   -1.9089 H       1  UNL1        0.0491
     63 H          -8.4165    0.8643    0.6149 H       1  UNL1        0.0829
     64 H          -8.3789    2.8979    1.9404 H       1  UNL1        0.0633
     65 H          -6.3834    4.3965    1.8168 H       1  UNL1        0.0621
     66 H          -3.7340    4.1212   -0.6484 H       1  UNL1        0.0278
     67 H          -4.5056    5.0991    0.6096 H       1  UNL1        0.0278
     68 H          -3.4632    3.7570    1.1423 H       1  UNL1        0.0278
     69 H          -4.0414   -0.8026   -0.1465 H       1  UNL1        0.0427
     70 H          -4.1856    0.4285    1.2123 H       1  UNL1        0.0427
     71 H          -2.5350   -1.3102    1.8381 H       1  UNL1        0.0303
     72 H          -1.9775    0.3676    1.7761 H       1  UNL1        0.0303
     73 H          -2.7135   -4.9710    3.4406 H       1  UNL1        0.1049
@<TRIPOS>BOND
     1     1     2    1
     2     2     3    1
     3     3     4   ar
     4     4     5   ar
     5     5     6    1
     6     6     7   am
     7     7     8    2
     8     7     9   am
     9     9    10    1
    10    10    11   ar
    11    11    12   ar
    12    12    13   ar
    13    13    14    1
    14    14    15   ar
    15    15    16   ar
    16    16    17   ar
    17    17    18    1
    18    18    19    2
    19    18    20    1
    20    17    21   ar
    21    21    22   ar
    22    22    23    1
    23    13    24   ar
    24    24    25   ar
    25     9    26   am
    26    26    27    2
    27    26    28    1
    28    28    29    1
    29    29    30    1
    30    30    31    1
    31    31    32    1
    32    32    33    1
    33    33    34   ar
    34    34    35   ar
    35    35    36   ar
    36    36    37   ar
    37    37    38   ar
    38    38    39    1
    39    31    40    1
    40    40    41    1
    41     5    42   ar
    42    42    43   ar
    43    43    44   ar
    44    44     3   ar
    45    28     6    1
    46    38    33   ar
    47    25    10   ar
    48    41    28    1
    49    22    14   ar
    50     1    45    1
    51     1    46    1
    52     1    47    1
    53     4    48    1
    54    11    49    1
    55    12    50    1
    56    15    51    1
    57    16    52    1
    58    20    53    1
    59    21    54    1
    60    24    55    1
    61    25    56    1
    62    29    57    1
    63    29    58    1
    64    30    59    1
    65    30    60    1
    66    32    61    1
    67    32    62    1
    68    35    63    1
    69    36    64    1
    70    37    65    1
    71    39    66    1
    72    39    67    1
    73    39    68    1
    74    40    69    1
    75    40    70    1
    76    41    71    1
    77    41    72    1
    78    43    73    1
