
     RDKit          3D

 73 78  0  0  0  0  0  0  0  0999 V2000
   -4.0028   -7.2616   -0.4499 C   0  0  0  0  0  0  0  0  0  0  0  0
   -3.2292   -6.1378   -0.8004 O   0  0  0  0  0  0  0  0  0  0  0  0
   -2.7070   -5.2705    0.1426 C   0  0  0  0  0  0  0  0  0  0  0  0
   -1.9451   -4.1618   -0.1631 C   0  0  0  0  0  0  0  0  0  0  0  0
   -1.4435   -3.3223    0.8042 C   0  0  0  0  0  0  0  0  0  0  0  0
   -0.6614   -2.1853    0.4723 N   0  0  0  0  0  0  0  0  0  0  0  0
    0.7484   -2.0806    0.3270 C   0  0  0  0  0  0  0  0  0  0  0  0
    1.5127   -3.0778    0.2235 O   0  0  0  0  0  0  0  0  0  0  0  0
    1.1873   -0.7313    0.3128 N   0  0  0  0  0  0  0  0  0  0  0  0
    2.5179   -0.2115    0.1853 C   0  0  0  0  0  0  0  0  0  0  0  0
    3.0924    0.0964   -1.0092 C   0  0  0  0  0  0  0  0  0  0  0  0
    4.3841    0.5956   -1.0590 C   0  0  0  0  0  0  0  0  0  0  0  0
    5.1444    0.8039    0.0792 C   0  0  0  0  0  0  0  0  0  0  0  0
    6.4991    1.3295    0.0447 C   0  0  0  0  0  0  0  0  0  0  0  0
    6.7482    2.4273   -0.7457 C   0  0  0  0  0  0  0  0  0  0  0  0
    7.9899    3.0079   -0.8511 C   0  0  0  0  0  0  0  0  0  0  0  0
    9.0387    2.4680   -0.1326 C   0  0  0  0  0  0  0  0  0  0  0  0
   10.3817    3.0609   -0.2190 C   0  0  0  0  0  0  0  0  0  0  0  0
   11.2988    2.5395    0.4463 O   0  0  0  0  0  0  0  0  0  0  0  0
   10.6380    4.1500   -0.9986 O   0  0  0  0  0  0  0  0  0  0  0  0
    8.8056    1.3710    0.6617 C   0  0  0  0  0  0  0  0  0  0  0  0
    7.5552    0.8050    0.7533 C   0  0  0  0  0  0  0  0  0  0  0  0
    7.2808   -0.5980    1.7738 Cl  0  0  0  0  0  0  0  0  0  0  0  0
    4.5361    0.4820    1.2862 C   0  0  0  0  0  0  0  0  0  0  0  0
    3.2506   -0.0155    1.3459 C   0  0  0  0  0  0  0  0  0  0  0  0
   -0.0168    0.0508    0.4570 C   0  0  0  0  0  0  0  0  0  0  0  0
   -0.0839    1.2640    0.7460 O   0  0  0  0  0  0  0  0  0  0  0  0
   -1.1810   -0.8340    0.2023 C   0  0  0  0  0  0  0  0  0  0  0  0
   -1.6754   -0.7262   -1.2145 C   0  0  0  0  0  0  0  0  0  0  0  0
   -2.1624    0.6816   -1.4596 C   0  0  0  0  0  0  0  0  0  0  0  0
   -3.1752    1.0512   -0.4967 N   0  0  0  0  0  0  0  0  0  0  0  0
   -4.3022    1.5960   -1.1981 C   0  0  0  0  0  0  0  0  0  0  0  0
   -5.3974    2.0143   -0.3122 C   0  0  0  0  0  0  0  0  0  0  0  0
   -6.4840    1.2348   -0.2207 N   0  0  0  0  0  0  0  0  0  0  0  0
   -7.5453    1.5084    0.5541 C   0  0  0  0  0  0  0  0  0  0  0  0
   -7.5163    2.6660    1.3043 C   0  0  0  0  0  0  0  0  0  0  0  0
   -6.4199    3.4962    1.2408 C   0  0  0  0  0  0  0  0  0  0  0  0
   -5.3583    3.1693    0.4307 C   0  0  0  0  0  0  0  0  0  0  0  0
   -4.1675    4.0663    0.3581 C   0  0  0  0  0  0  0  0  0  0  0  0
   -3.5353   -0.0127    0.4045 C   0  0  0  0  0  0  0  0  0  0  0  0
   -2.2851   -0.4841    1.1394 C   0  0  0  0  0  0  0  0  0  0  0  0
   -1.7310   -3.6319    2.0788 N   0  0  0  0  0  0  0  0  0  0  0  0
   -2.4696   -4.7023    2.4222 C   0  0  0  0  0  0  0  0  0  0  0  0
   -2.9510   -5.5132    1.4402 N   0  0  0  0  0  0  0  0  0  0  0  0
   -4.8003   -7.4462   -1.2278 H   0  0  0  0  0  0  0  0  0  0  0  0
   -4.4878   -7.0061    0.5337 H   0  0  0  0  0  0  0  0  0  0  0  0
   -3.3960   -8.1664   -0.2647 H   0  0  0  0  0  0  0  0  0  0  0  0
   -1.7290   -3.9377   -1.2096 H   0  0  0  0  0  0  0  0  0  0  0  0
    2.5048   -0.0632   -1.9061 H   0  0  0  0  0  0  0  0  0  0  0  0
    4.8273    0.8354   -2.0066 H   0  0  0  0  0  0  0  0  0  0  0  0
    5.9548    2.8990   -1.3385 H   0  0  0  0  0  0  0  0  0  0  0  0
    8.2046    3.8685   -1.4650 H   0  0  0  0  0  0  0  0  0  0  0  0
   11.4557    4.7524   -0.8960 H   0  0  0  0  0  0  0  0  0  0  0  0
    9.6108    0.9264    1.2367 H   0  0  0  0  0  0  0  0  0  0  0  0
    5.0974    0.6295    2.2222 H   0  0  0  0  0  0  0  0  0  0  0  0
    2.8211   -0.2521    2.3238 H   0  0  0  0  0  0  0  0  0  0  0  0
   -2.5211   -1.4089   -1.3520 H   0  0  0  0  0  0  0  0  0  0  0  0
   -0.8658   -0.9416   -1.9510 H   0  0  0  0  0  0  0  0  0  0  0  0
   -1.3038    1.4153   -1.4352 H   0  0  0  0  0  0  0  0  0  0  0  0
   -2.5692    0.7980   -2.4994 H   0  0  0  0  0  0  0  0  0  0  0  0
   -3.9784    2.4640   -1.8131 H   0  0  0  0  0  0  0  0  0  0  0  0
   -4.6535    0.8078   -1.9089 H   0  0  0  0  0  0  0  0  0  0  0  0
   -8.4165    0.8643    0.6149 H   0  0  0  0  0  0  0  0  0  0  0  0
   -8.3789    2.8979    1.9404 H   0  0  0  0  0  0  0  0  0  0  0  0
   -6.3834    4.3965    1.8168 H   0  0  0  0  0  0  0  0  0  0  0  0
   -3.7340    4.1212   -0.6484 H   0  0  0  0  0  0  0  0  0  0  0  0
   -4.5056    5.0991    0.6096 H   0  0  0  0  0  0  0  0  0  0  0  0
   -3.4632    3.7570    1.1423 H   0  0  0  0  0  0  0  0  0  0  0  0
   -4.0414   -0.8026   -0.1465 H   0  0  0  0  0  0  0  0  0  0  0  0
   -4.1856    0.4285    1.2123 H   0  0  0  0  0  0  0  0  0  0  0  0
   -2.5350   -1.3102    1.8381 H   0  0  0  0  0  0  0  0  0  0  0  0
   -1.9775    0.3676    1.7761 H   0  0  0  0  0  0  0  0  0  0  0  0
   -2.7135   -4.9710    3.4406 H   0  0  0  0  0  0  0  0  0  0  0  0
  1  2  1  0
  2  3  1  0
  3  4  2  0
  4  5  1  0
  5  6  1  0
  6  7  1  0
  7  8  2  0
  7  9  1  0
  9 10  1  0
 10 11  2  0
 11 12  1  0
 12 13  2  0
 13 14  1  0
 14 15  2  0
 15 16  1  0
 16 17  2  0
 17 18  1  0
 18 19  2  0
 18 20  1  0
 17 21  1  0
 21 22  2  0
 22 23  1  0
 13 24  1  0
 24 25  2  0
  9 26  1  0
 26 27  2  0
 26 28  1  0
 28 29  1  0
 29 30  1  0
 30 31  1  0
 31 32  1  0
 32 33  1  0
 33 34  2  0
 34 35  1  0
 35 36  2  0
 36 37  1  0
 37 38  2  0
 38 39  1  0
 31 40  1  0
 40 41  1  0
  5 42  2  0
 42 43  1  0
 43 44  2  0
 44  3  1  0
 28  6  1  0
 38 33  1  0
 25 10  1  0
 41 28  1  0
 22 14  1  0
  1 45  1  0
  1 46  1  0
  1 47  1  0
  4 48  1  0
 11 49  1  0
 12 50  1  0
 15 51  1  0
 16 52  1  0
 20 53  1  0
 21 54  1  0
 24 55  1  0
 25 56  1  0
 29 57  1  0
 29 58  1  0
 30 59  1  0
 30 60  1  0
 32 61  1  0
 32 62  1  0
 35 63  1  0
 36 64  1  0
 37 65  1  0
 39 66  1  0
 39 67  1  0
 39 68  1  0
 40 69  1  0
 40 70  1  0
 41 71  1  0
 41 72  1  0
 43 73  1  0
M  END
$$$$
