@<TRIPOS>MOLECULE
*****
 36 38 0 0 0
SMALL
GASTEIGER

@<TRIPOS>ATOM
      1 C          -4.8334    1.3309   -0.7975 C.3     1  UNL1       -0.0586
      2 C          -4.1914    0.6213    0.3862 C.3     1  UNL1       -0.0215
      3 C          -5.0891   -0.5565    0.7188 C.3     1  UNL1       -0.0586
      4 C          -2.8314    0.1857   -0.0076 C.ar    1  UNL1       -0.0439
      5 C          -1.6939    0.6681    0.6476 C.ar    1  UNL1       -0.0439
      6 C          -0.4700    0.1885    0.1902 C.ar    1  UNL1        0.0650
      7 C          -0.3479   -0.7196   -0.8568 C.ar    1  UNL1        0.1412
      8 O           0.8498   -1.1110   -1.2144 O.2     1  UNL1       -0.4365
      9 C           1.9611   -0.7032   -0.6489 C.ar    1  UNL1        0.2331
     10 N           3.1063   -1.2062   -1.1410 N.ar    1  UNL1       -0.1966
     11 C           4.3054   -0.8600   -0.6403 C.ar    1  UNL1        0.1341
     12 N           5.5300   -1.3778   -1.1439 N.pl3   1  UNL1       -0.3424
     13 C           4.2309    0.0388    0.3994 C.ar    1  UNL1        0.0991
     14 C           3.0899    0.5852    0.9424 C.ar    1  UNL1       -0.0285
     15 C           1.8876    0.1966    0.3923 C.ar    1  UNL1        0.0851
     16 C           0.6666    0.6609    0.8329 C.ar    1  UNL1        0.2018
     17 O           0.6616    1.4847    1.7915 O.2     1  UNL1       -0.2863
     18 C           5.5216    0.4200    0.9452 C.2     1  UNL1        0.3402
     19 O           6.3863    1.0819    1.7833 O.3     1  UNL1       -0.4770
     20 O           6.6080   -0.0351    0.5026 O.2     1  UNL1       -0.2450
     21 C          -1.5023   -1.1663   -1.4718 C.ar    1  UNL1       -0.0183
     22 C          -2.7406   -0.7178   -1.0515 C.ar    1  UNL1       -0.0548
     23 H          -4.4168    2.3632   -0.8677 H       1  UNL1        0.0235
     24 H          -5.9255    1.3247   -0.6118 H       1  UNL1        0.0235
     25 H          -4.6741    0.7608   -1.7346 H       1  UNL1        0.0235
     26 H          -4.1887    1.3389    1.2242 H       1  UNL1        0.0343
     27 H          -5.5807   -0.9106   -0.2109 H       1  UNL1        0.0235
     28 H          -4.5380   -1.4154    1.1420 H       1  UNL1        0.0235
     29 H          -5.8519   -0.2732    1.4992 H       1  UNL1        0.0235
     30 H          -1.7776    1.3700    1.4582 H       1  UNL1        0.0629
     31 H           5.6710   -0.5981   -1.7931 H       1  UNL1        0.1437
     32 H           5.6381   -2.2768   -0.5874 H       1  UNL1        0.1437
     33 H           3.1044    1.2885    1.7616 H       1  UNL1        0.0635
     34 H           6.3494    0.9892    2.7923 H       1  UNL1        0.2954
     35 H          -1.3129   -1.8621   -2.2664 H       1  UNL1        0.0654
     36 H          -3.6018   -1.1082   -1.5774 H       1  UNL1        0.0622
@<TRIPOS>BOND
     1     1     2    1
     2     2     3    1
     3     2     4    1
     4     4     5   ar
     5     5     6   ar
     6     6     7   ar
     7     7     8   ar
     8     8     9   ar
     9     9    10   ar
    10    10    11   ar
    11    11    12    1
    12    11    13   ar
    13    13    14   ar
    14    14    15   ar
    15    15    16   ar
    16    16    17    2
    17    13    18    1
    18    18    19    1
    19    18    20    2
    20     7    21   ar
    21    21    22   ar
    22    22     4   ar
    23    16     6   ar
    24    15     9   ar
    25     1    23    1
    26     1    24    1
    27     1    25    1
    28     2    26    1
    29     3    27    1
    30     3    28    1
    31     3    29    1
    32     5    30    1
    33    12    31    1
    34    12    32    1
    35    14    33    1
    36    19    34    1
    37    21    35    1
    38    22    36    1
