@<TRIPOS>MOLECULE
*****
 50 52 0 0 0
SMALL
GASTEIGER

@<TRIPOS>ATOM
      1 O          -5.0145    1.0229   -2.1992 O.2     1  UNL1       -0.2719
      2 C          -4.3666    1.6073   -1.2774 C.2     1  UNL1        0.2543
      3 N          -4.5474    2.9857   -1.0327 N.am    1  UNL1       -0.1961
      4 O          -5.4066    3.7206   -1.7636 O.3     1  UNL1       -0.2951
      5 C          -3.4030    0.7913   -0.4549 C.3     1  UNL1        0.1099
      6 C          -3.6420    0.9681    1.0180 C.3     1  UNL1       -0.0248
      7 C          -4.4748   -0.0852    1.6491 C.3     1  UNL1       -0.0237
      8 C          -4.2687   -1.4706    1.1375 C.3     1  UNL1        0.0696
      9 O          -5.3903   -1.9897    0.4960 O.3     1  UNL1       -0.3905
     10 C          -3.1176   -1.5032    0.1872 C.3     1  UNL1        0.0473
     11 N          -3.3803   -0.5724   -0.8772 N.3     1  UNL1       -0.1622
     12 S          -2.2352   -0.8559   -2.1377 S.O2    1  UNL1        0.0616
     13 O          -2.3277   -2.2573   -2.6567 O.2     1  UNL1       -0.1528
     14 O          -2.4625    0.1061   -3.2789 O.2     1  UNL1       -0.1528
     15 C          -0.6054   -0.5838   -1.5573 C.ar    1  UNL1        0.1057
     16 C           0.0357    0.6319   -1.6385 C.ar    1  UNL1       -0.0319
     17 C           1.3274    0.8378   -1.1740 C.ar    1  UNL1       -0.0181
     18 C           2.0022   -0.2002   -0.6106 C.ar    1  UNL1        0.1211
     19 O           3.2988   -0.0030   -0.1416 O.3     1  UNL1       -0.4874
     20 C           4.0428   -1.0502    0.4525 C.3     1  UNL1        0.1146
     21 C           5.3719   -0.5152    0.8400 C.ar    1  UNL1       -0.0104
     22 C           5.5425    0.0281    2.0871 C.ar    1  UNL1       -0.0554
     23 C           6.7670    0.5219    2.4464 C.ar    1  UNL1       -0.0614
     24 C           7.8514    0.4931    1.5892 C.ar    1  UNL1       -0.0617
     25 C           7.6633   -0.0569    0.3381 C.ar    1  UNL1       -0.0614
     26 C           6.4172   -0.5620   -0.0344 C.ar    1  UNL1       -0.0554
     27 C           1.4128   -1.4358   -0.5029 C.ar    1  UNL1       -0.0181
     28 C           0.1300   -1.6181   -0.9704 C.ar    1  UNL1       -0.0319
     29 H          -4.0002    3.4344   -0.2690 H       1  UNL1        0.1822
     30 H          -5.1519    4.6771   -1.7985 H       1  UNL1        0.2414
     31 H          -2.4048    1.2278   -0.6747 H       1  UNL1        0.0576
     32 H          -2.6713    1.0323    1.5531 H       1  UNL1        0.0286
     33 H          -4.1176    1.9718    1.1476 H       1  UNL1        0.0286
     34 H          -5.5734    0.1812    1.6490 H       1  UNL1        0.0291
     35 H          -4.2191   -0.1080    2.7510 H       1  UNL1        0.0291
     36 H          -4.0299   -2.2090    1.9582 H       1  UNL1        0.0606
     37 H          -5.6776   -1.3500   -0.1818 H       1  UNL1        0.2098
     38 H          -2.1449   -1.3150    0.6903 H       1  UNL1        0.0470
     39 H          -3.0804   -2.5199   -0.2757 H       1  UNL1        0.0470
     40 H          -0.4879    1.4754   -2.0875 H       1  UNL1        0.0638
     41 H           1.7912    1.8309   -1.2646 H       1  UNL1        0.0655
     42 H           3.4862   -1.4105    1.3476 H       1  UNL1        0.0748
     43 H           4.2212   -1.8859   -0.2747 H       1  UNL1        0.0748
     44 H           4.7123    0.0719    2.7981 H       1  UNL1        0.0621
     45 H           6.8762    0.9491    3.4452 H       1  UNL1        0.0618
     46 H           8.8176    0.8790    1.8634 H       1  UNL1        0.0618
     47 H           8.4948   -0.0859   -0.3368 H       1  UNL1        0.0618
     48 H           6.3228   -0.9815   -1.0243 H       1  UNL1        0.0621
     49 H           1.9820   -2.2504   -0.0448 H       1  UNL1        0.0655
     50 H          -0.3656   -2.5700   -0.9042 H       1  UNL1        0.0638
@<TRIPOS>BOND
     1     1     2    2
     2     2     3   am
     3     3     4    1
     4     2     5    1
     5     5     6    1
     6     6     7    1
     7     7     8    1
     8     8     9    1
     9     8    10    1
    10    10    11    1
    11    11    12    1
    12    12    13    2
    13    12    14    2
    14    12    15    1
    15    15    16   ar
    16    16    17   ar
    17    17    18   ar
    18    18    19    1
    19    19    20    1
    20    20    21    1
    21    21    22   ar
    22    22    23   ar
    23    23    24   ar
    24    24    25   ar
    25    25    26   ar
    26    18    27   ar
    27    27    28   ar
    28    11     5    1
    29    28    15   ar
    30    26    21   ar
    31     3    29    1
    32     4    30    1
    33     5    31    1
    34     6    32    1
    35     6    33    1
    36     7    34    1
    37     7    35    1
    38     8    36    1
    39     9    37    1
    40    10    38    1
    41    10    39    1
    42    16    40    1
    43    17    41    1
    44    20    42    1
    45    20    43    1
    46    22    44    1
    47    23    45    1
    48    24    46    1
    49    25    47    1
    50    26    48    1
    51    27    49    1
    52    28    50    1
