
     RDKit          3D

 34 35  0  0  0  0  0  0  0  0999 V2000
    1.8312    0.4396   -1.7220 S   0  0  0  0  0  0  0  0  0  0  0  0
    1.1168   -0.2038   -0.4137 C   0  0  0  0  0  0  0  0  0  0  0  0
   -0.2938   -0.5156   -0.3830 N   0  0  0  0  0  0  0  0  0  0  0  0
   -1.0575   -0.2300   -1.5640 C   0  0  0  0  0  0  0  0  0  0  0  0
   -2.4475   -0.6877   -1.4871 C   0  0  0  0  0  0  0  0  0  0  0  0
   -3.3473   -0.1728   -0.4744 C   0  0  0  0  0  0  0  0  0  0  0  0
   -3.4376   -0.8337    0.7435 C   0  0  0  0  0  0  0  0  0  0  0  0
   -4.2991   -0.4014    1.7479 C   0  0  0  0  0  0  0  0  0  0  0  0
   -5.0662    0.7114    1.4946 C   0  0  0  0  0  0  0  0  0  0  0  0
   -4.9859    1.3797    0.2848 C   0  0  0  0  0  0  0  0  0  0  0  0
   -4.1415    0.9468   -0.6837 C   0  0  0  0  0  0  0  0  0  0  0  0
    1.9116   -0.4622    0.7300 N   0  0  0  0  0  0  0  0  0  0  0  0
    3.2970   -0.1608    0.6847 C   0  0  0  0  0  0  0  0  0  0  0  0
    4.2553   -1.1483    0.5841 C   0  0  0  0  0  0  0  0  0  0  0  0
    3.8077   -2.8422    0.5148 Cl  0  0  0  0  0  0  0  0  0  0  0  0
    5.6014   -0.8602    0.5349 C   0  0  0  0  0  0  0  0  0  0  0  0
    5.9787    0.4664    0.5897 C   0  0  0  0  0  0  0  0  0  0  0  0
    5.0462    1.4712    0.6903 C   0  0  0  0  0  0  0  0  0  0  0  0
    3.6958    1.1617    0.7383 C   0  0  0  0  0  0  0  0  0  0  0  0
    2.4648    2.4000    0.8563 Cl  0  0  0  0  0  0  0  0  0  0  0  0
   -0.7283   -0.9212    0.4456 H   0  0  0  0  0  0  0  0  0  0  0  0
   -0.9333    0.8194   -1.9133 H   0  0  0  0  0  0  0  0  0  0  0  0
   -0.5525   -0.8299   -2.3827 H   0  0  0  0  0  0  0  0  0  0  0  0
   -2.4090   -1.8141   -1.3396 H   0  0  0  0  0  0  0  0  0  0  0  0
   -2.9113   -0.6071   -2.5213 H   0  0  0  0  0  0  0  0  0  0  0  0
   -2.8650   -1.7143    0.9843 H   0  0  0  0  0  0  0  0  0  0  0  0
   -4.3681   -0.9156    2.6903 H   0  0  0  0  0  0  0  0  0  0  0  0
   -5.7609    1.0954    2.2417 H   0  0  0  0  0  0  0  0  0  0  0  0
   -5.5974    2.2580    0.0955 H   0  0  0  0  0  0  0  0  0  0  0  0
   -4.0189    1.4055   -1.6538 H   0  0  0  0  0  0  0  0  0  0  0  0
    1.4780   -0.8736    1.6054 H   0  0  0  0  0  0  0  0  0  0  0  0
    6.3638   -1.6058    0.4593 H   0  0  0  0  0  0  0  0  0  0  0  0
    7.0320    0.7441    0.5520 H   0  0  0  0  0  0  0  0  0  0  0  0
    5.3407    2.5011    0.7279 H   0  0  0  0  0  0  0  0  0  0  0  0
  1  2  2  0
  2  3  1  0
  3  4  1  0
  4  5  1  0
  5  6  1  0
  6  7  2  0
  7  8  1  0
  8  9  2  0
  9 10  1  0
 10 11  2  0
  2 12  1  0
 12 13  1  0
 13 14  2  0
 14 15  1  0
 14 16  1  0
 16 17  2  0
 17 18  1  0
 18 19  2  0
 19 20  1  0
 11  6  1  0
 19 13  1  0
  3 21  1  0
  4 22  1  0
  4 23  1  0
  5 24  1  0
  5 25  1  0
  7 26  1  0
  8 27  1  0
  9 28  1  0
 10 29  1  0
 11 30  1  0
 12 31  1  0
 16 32  1  0
 17 33  1  0
 18 34  1  0
M  END
$$$$
