@<TRIPOS>MOLECULE
*****
 34 35 0 0 0
SMALL
GASTEIGER

@<TRIPOS>ATOM
      1 S           1.8312    0.4396   -1.7220 S.2     1  UNL1       -0.0186
      2 C           1.1168   -0.2038   -0.4137 C.2     1  UNL1        0.1346
      3 N          -0.2938   -0.5156   -0.3830 N.am    1  UNL1       -0.3260
      4 C          -1.0575   -0.2300   -1.5640 C.3     1  UNL1        0.0147
      5 C          -2.4475   -0.6877   -1.4871 C.3     1  UNL1       -0.0121
      6 C          -3.3473   -0.1728   -0.4744 C.ar    1  UNL1       -0.0459
      7 C          -3.4376   -0.8337    0.7435 C.ar    1  UNL1       -0.0585
      8 C          -4.2991   -0.4014    1.7479 C.ar    1  UNL1       -0.0615
      9 C          -5.0662    0.7114    1.4946 C.ar    1  UNL1       -0.0617
     10 C          -4.9859    1.3797    0.2848 C.ar    1  UNL1       -0.0615
     11 C          -4.1415    0.9468   -0.6837 C.ar    1  UNL1       -0.0585
     12 N           1.9116   -0.4622    0.7300 N.am    1  UNL1       -0.2946
     13 C           3.2970   -0.1608    0.6847 C.ar    1  UNL1        0.0697
     14 C           4.2553   -1.1483    0.5841 C.ar    1  UNL1        0.0635
     15 CL          3.8077   -2.8422    0.5148 Cl      1  UNL1       -0.0816
     16 C           5.6014   -0.8602    0.5349 C.ar    1  UNL1       -0.0415
     17 C           5.9787    0.4664    0.5897 C.ar    1  UNL1       -0.0589
     18 C           5.0462    1.4712    0.6903 C.ar    1  UNL1       -0.0415
     19 C           3.6958    1.1617    0.7383 C.ar    1  UNL1        0.0635
     20 CL          2.4648    2.4000    0.8563 Cl      1  UNL1       -0.0816
     21 H          -0.7283   -0.9212    0.4456 H       1  UNL1        0.1477
     22 H          -0.9333    0.8194   -1.9133 H       1  UNL1        0.0465
     23 H          -0.5525   -0.8299   -2.3827 H       1  UNL1        0.0465
     24 H          -2.4090   -1.8141   -1.3396 H       1  UNL1        0.0328
     25 H          -2.9113   -0.6071   -2.5213 H       1  UNL1        0.0328
     26 H          -2.8650   -1.7143    0.9843 H       1  UNL1        0.0620
     27 H          -4.3681   -0.9156    2.6903 H       1  UNL1        0.0618
     28 H          -5.7609    1.0954    2.2417 H       1  UNL1        0.0618
     29 H          -5.5974    2.2580    0.0955 H       1  UNL1        0.0618
     30 H          -4.0189    1.4055   -1.6538 H       1  UNL1        0.0620
     31 H           1.4780   -0.8736    1.6054 H       1  UNL1        0.1539
     32 H           6.3638   -1.6058    0.4593 H       1  UNL1        0.0633
     33 H           7.0320    0.7441    0.5520 H       1  UNL1        0.0618
     34 H           5.3407    2.5011    0.7279 H       1  UNL1        0.0633
@<TRIPOS>BOND
     1     1     2    2
     2     2     3    1
     3     3     4    1
     4     4     5    1
     5     5     6    1
     6     6     7   ar
     7     7     8   ar
     8     8     9   ar
     9     9    10   ar
    10    10    11   ar
    11     2    12    1
    12    12    13    1
    13    13    14   ar
    14    14    15    1
    15    14    16   ar
    16    16    17   ar
    17    17    18   ar
    18    18    19   ar
    19    19    20    1
    20    11     6   ar
    21    19    13   ar
    22     3    21    1
    23     4    22    1
    24     4    23    1
    25     5    24    1
    26     5    25    1
    27     7    26    1
    28     8    27    1
    29     9    28    1
    30    10    29    1
    31    11    30    1
    32    12    31    1
    33    16    32    1
    34    17    33    1
    35    18    34    1
