@<TRIPOS>MOLECULE
*****
 40 42 0 0 0
SMALL
GASTEIGER

@<TRIPOS>ATOM
      1 CL          4.6104   -1.8786    2.8465 Cl      1  UNL1       -0.0819
      2 C           3.6579   -1.9636    1.3790 C.ar    1  UNL1        0.0628
      3 C           3.9528   -2.9021    0.4343 C.ar    1  UNL1       -0.0417
      4 C           3.1986   -2.9492   -0.6982 C.ar    1  UNL1       -0.0568
      5 C           2.1591   -2.0768   -0.8997 C.ar    1  UNL1       -0.0184
      6 C           1.8134   -1.0869    0.0480 C.ar    1  UNL1        0.1411
      7 O           0.7898   -0.2800   -0.2263 O.3     1  UNL1       -0.4824
      8 C           0.1033    0.7562    0.3077 C.3     1  UNL1        0.1295
      9 C           0.1116    1.9817   -0.5803 C.ar    1  UNL1        0.0110
     10 C           0.2953    3.2035    0.0056 C.ar    1  UNL1       -0.0522
     11 C           0.3088    4.3253   -0.7980 C.ar    1  UNL1       -0.0432
     12 C           0.1400    4.2056   -2.1602 C.ar    1  UNL1        0.0276
     13 N          -0.0365    2.9807   -2.6820 N.ar    1  UNL1       -0.2629
     14 C          -0.0541    1.8768   -1.9281 C.ar    1  UNL1        0.0342
     15 C          -1.3791    0.4712    0.5303 C.3     1  UNL1        0.0027
     16 C          -2.0999    0.1275   -0.7530 C.3     1  UNL1       -0.0339
     17 C          -3.4652   -0.4278   -0.3166 C.3     1  UNL1       -0.0037
     18 N          -3.2589   -1.7893    0.1332 N.3     1  UNL1       -0.3159
     19 C          -2.0070   -1.9423    0.8415 C.3     1  UNL1       -0.0037
     20 C          -1.5736   -0.6578    1.5117 C.3     1  UNL1       -0.0339
     21 C           2.5987   -1.0707    1.1793 C.ar    1  UNL1        0.1008
     22 CL          2.3397    0.0754    2.4761 Cl      1  UNL1       -0.0782
     23 H           4.7834   -3.5743    0.6313 H       1  UNL1        0.0633
     24 H           3.4639   -3.7162   -1.4360 H       1  UNL1        0.0619
     25 H           1.6056   -2.1707   -1.8169 H       1  UNL1        0.0654
     26 H           0.4800    1.0715    1.2945 H       1  UNL1        0.0787
     27 H           0.4314    3.3081    1.0974 H       1  UNL1        0.0622
     28 H           0.4553    5.3191   -0.3475 H       1  UNL1        0.0633
     29 H           0.1513    5.0976   -2.7942 H       1  UNL1        0.0829
     30 H          -0.1964    0.9280   -2.4088 H       1  UNL1        0.0833
     31 H          -1.8947    1.3569    0.9552 H       1  UNL1        0.0341
     32 H          -2.3437    1.0175   -1.3650 H       1  UNL1        0.0281
     33 H          -1.5864   -0.6808   -1.3177 H       1  UNL1        0.0281
     34 H          -4.1641   -0.3504   -1.1513 H       1  UNL1        0.0424
     35 H          -3.8479    0.1584    0.5478 H       1  UNL1        0.0424
     36 H          -3.1966   -2.3864   -0.7276 H       1  UNL1        0.1219
     37 H          -1.2141   -2.3821    0.2018 H       1  UNL1        0.0424
     38 H          -2.1904   -2.6756    1.6559 H       1  UNL1        0.0424
     39 H          -2.3310   -0.4237    2.2937 H       1  UNL1        0.0281
     40 H          -0.6104   -0.8759    2.0271 H       1  UNL1        0.0281
@<TRIPOS>BOND
     1     1     2    1
     2     2     3   ar
     3     3     4   ar
     4     4     5   ar
     5     5     6   ar
     6     6     7    1
     7     7     8    1
     8     8     9    1
     9     9    10   ar
    10    10    11   ar
    11    11    12   ar
    12    12    13   ar
    13    13    14   ar
    14     8    15    1
    15    15    16    1
    16    16    17    1
    17    17    18    1
    18    18    19    1
    19    19    20    1
    20     6    21   ar
    21    21    22    1
    22    21     2   ar
    23    14     9   ar
    24    20    15    1
    25     3    23    1
    26     4    24    1
    27     5    25    1
    28     8    26    1
    29    10    27    1
    30    11    28    1
    31    12    29    1
    32    14    30    1
    33    15    31    1
    34    16    32    1
    35    16    33    1
    36    17    34    1
    37    17    35    1
    38    18    36    1
    39    19    37    1
    40    19    38    1
    41    20    39    1
    42    20    40    1
