
     RDKit          3D

 35 35  0  0  0  0  0  0  0  0999 V2000
   -3.7524    0.0141   -0.2867 C   0  0  0  0  0  0  0  0  0  0  0  0
   -2.5266   -0.2272    0.5119 C   0  0  0  0  0  0  0  0  0  0  0  0
   -2.8001    0.3367    1.9129 C   0  0  0  0  0  0  0  0  0  0  0  0
   -2.3075   -1.7105    0.6986 C   0  0  0  0  0  0  0  0  0  0  0  0
   -1.3391    0.4418    0.0426 N   0  0  0  0  0  0  0  0  0  0  0  0
   -0.9504    0.0862   -1.2815 C   0  0  0  0  0  0  0  0  0  0  0  0
    0.2877    0.8689   -1.6588 C   0  0  0  0  0  0  0  0  0  0  0  0
    0.0874    2.2525   -1.6280 O   0  0  0  0  0  0  0  0  0  0  0  0
    1.4700    0.5360   -0.8297 C   0  0  0  0  0  0  0  0  0  0  0  0
    1.7547    1.0975    0.3946 C   0  0  0  0  0  0  0  0  0  0  0  0
    2.8731    0.7165    1.0853 C   0  0  0  0  0  0  0  0  0  0  0  0
    3.2798    1.4008    2.6471 Cl  0  0  0  0  0  0  0  0  0  0  0  0
    3.7463   -0.2325    0.5868 C   0  0  0  0  0  0  0  0  0  0  0  0
    4.9366   -0.7045    1.2165 N   0  0  0  0  0  0  0  0  0  0  0  0
    3.4977   -0.8204   -0.6381 C   0  0  0  0  0  0  0  0  0  0  0  0
    4.5418   -2.0427   -1.3739 Cl  0  0  0  0  0  0  0  0  0  0  0  0
    2.3540   -0.4187   -1.3250 C   0  0  0  0  0  0  0  0  0  0  0  0
   -3.8479    1.0180   -0.7144 H   0  0  0  0  0  0  0  0  0  0  0  0
   -3.9143   -0.7421   -1.0847 H   0  0  0  0  0  0  0  0  0  0  0  0
   -4.6433   -0.0988    0.3980 H   0  0  0  0  0  0  0  0  0  0  0  0
   -1.9278    0.0357    2.5296 H   0  0  0  0  0  0  0  0  0  0  0  0
   -3.7386   -0.1002    2.2949 H   0  0  0  0  0  0  0  0  0  0  0  0
   -2.8134    1.4402    1.8615 H   0  0  0  0  0  0  0  0  0  0  0  0
   -3.2891   -2.1605    0.9316 H   0  0  0  0  0  0  0  0  0  0  0  0
   -1.8051   -2.1910   -0.1599 H   0  0  0  0  0  0  0  0  0  0  0  0
   -1.6254   -1.8042    1.5909 H   0  0  0  0  0  0  0  0  0  0  0  0
   -0.5775    0.1490    0.7176 H   0  0  0  0  0  0  0  0  0  0  0  0
   -1.7857    0.3363   -1.9652 H   0  0  0  0  0  0  0  0  0  0  0  0
   -0.6618   -0.9896   -1.3670 H   0  0  0  0  0  0  0  0  0  0  0  0
    0.5265    0.6608   -2.7495 H   0  0  0  0  0  0  0  0  0  0  0  0
   -0.1088    2.5372   -0.7056 H   0  0  0  0  0  0  0  0  0  0  0  0
    1.1005    1.8308    0.7951 H   0  0  0  0  0  0  0  0  0  0  0  0
    5.8926   -0.2648    1.1395 H   0  0  0  0  0  0  0  0  0  0  0  0
    5.9187   -0.3744    1.2239 H   0  0  0  0  0  0  0  0  0  0  0  0
    2.1472   -0.8768   -2.2947 H   0  0  0  0  0  0  0  0  0  0  0  0
  1  2  1  0
  2  3  1  0
  2  4  1  0
  2  5  1  0
  5  6  1  0
  6  7  1  0
  7  8  1  0
  7  9  1  0
  9 10  2  0
 10 11  1  0
 11 12  1  0
 11 13  2  0
 13 14  1  0
 13 15  1  0
 15 16  1  0
 15 17  2  0
 17  9  1  0
  1 18  1  0
  1 19  1  0
  1 20  1  0
  3 21  1  0
  3 22  1  0
  3 23  1  0
  4 24  1  0
  4 25  1  0
  4 26  1  0
  5 27  1  0
  6 28  1  0
  6 29  1  0
  7 30  1  0
  8 31  1  0
 10 32  1  0
 14 33  1  0
 14 34  1  0
 17 35  1  0
M  END
$$$$
