
     RDKit          3D

 44 46  0  0  0  0  0  0  0  0999 V2000
   -4.7281    0.8639   -1.1713 C   0  0  0  0  0  0  0  0  0  0  0  0
   -4.1253    1.0527    0.1726 C   0  0  0  0  0  0  0  0  0  0  0  0
   -3.0732    0.0711    0.5655 C   0  0  0  0  0  0  0  0  0  0  0  0
   -1.8958    0.0973   -0.3748 C   0  0  0  0  0  0  0  0  0  0  0  0
   -0.8532   -0.7905   -0.0847 N   0  0  0  0  0  0  0  0  0  0  0  0
   -1.1563   -2.1877   -0.2466 C   0  0  0  0  0  0  0  0  0  0  0  0
    0.1317   -2.9382   -0.5076 C   0  0  0  0  0  0  0  0  0  0  0  0
    1.2756   -1.9774   -0.6665 C   0  0  0  0  0  0  0  0  0  0  0  0
    1.3881   -1.0705    0.5593 C   0  0  0  0  0  0  0  0  0  0  0  0
    2.3408   -0.0002    0.2199 C   0  0  0  0  0  0  0  0  0  0  0  0
    3.2198   -0.0589   -0.8666 C   0  0  0  0  0  0  0  0  0  0  0  0
    4.0975    0.9490   -1.1375 C   0  0  0  0  0  0  0  0  0  0  0  0
    4.9801    0.8875   -2.2299 O   0  0  0  0  0  0  0  0  0  0  0  0
    4.1182    2.0509   -0.3219 C   0  0  0  0  0  0  0  0  0  0  0  0
    3.2536    2.1423    0.7720 C   0  0  0  0  0  0  0  0  0  0  0  0
    2.3808    1.1139    1.0210 C   0  0  0  0  0  0  0  0  0  0  0  0
    1.4248    1.1429    2.1513 C   0  0  0  0  0  0  0  0  0  0  0  0
    0.0175    0.7686    1.6312 C   0  0  0  0  0  0  0  0  0  0  0  0
    0.0184   -0.5749    0.9988 C   0  0  0  0  0  0  0  0  0  0  0  0
   -4.2772    0.0703   -1.7685 H   0  0  0  0  0  0  0  0  0  0  0  0
   -4.6059    1.8260   -1.7530 H   0  0  0  0  0  0  0  0  0  0  0  0
   -5.8395    0.7680   -1.0774 H   0  0  0  0  0  0  0  0  0  0  0  0
   -4.9374    1.0340    0.9610 H   0  0  0  0  0  0  0  0  0  0  0  0
   -3.6875    2.0748    0.2840 H   0  0  0  0  0  0  0  0  0  0  0  0
   -3.5388   -0.9581    0.5863 H   0  0  0  0  0  0  0  0  0  0  0  0
   -2.7213    0.2301    1.6007 H   0  0  0  0  0  0  0  0  0  0  0  0
   -1.5511    1.1100   -0.5960 H   0  0  0  0  0  0  0  0  0  0  0  0
   -2.3315   -0.2579   -1.3640 H   0  0  0  0  0  0  0  0  0  0  0  0
   -1.8900   -2.3157   -1.0795 H   0  0  0  0  0  0  0  0  0  0  0  0
   -1.6659   -2.6111    0.6588 H   0  0  0  0  0  0  0  0  0  0  0  0
    0.0347   -3.5000   -1.4825 H   0  0  0  0  0  0  0  0  0  0  0  0
    0.3446   -3.7005    0.2623 H   0  0  0  0  0  0  0  0  0  0  0  0
    2.2190   -2.5510   -0.7270 H   0  0  0  0  0  0  0  0  0  0  0  0
    1.0826   -1.3596   -1.5791 H   0  0  0  0  0  0  0  0  0  0  0  0
    1.8556   -1.6929    1.3494 H   0  0  0  0  0  0  0  0  0  0  0  0
    3.1827   -0.9199   -1.4841 H   0  0  0  0  0  0  0  0  0  0  0  0
    5.6210    1.6404   -2.4184 H   0  0  0  0  0  0  0  0  0  0  0  0
    4.8040    2.8867   -0.4962 H   0  0  0  0  0  0  0  0  0  0  0  0
    3.2566    2.9913    1.4149 H   0  0  0  0  0  0  0  0  0  0  0  0
    1.7069    0.4974    2.9821 H   0  0  0  0  0  0  0  0  0  0  0  0
    1.3110    2.1757    2.5850 H   0  0  0  0  0  0  0  0  0  0  0  0
   -0.6046    0.7709    2.5486 H   0  0  0  0  0  0  0  0  0  0  0  0
   -0.2867    1.5465    0.9039 H   0  0  0  0  0  0  0  0  0  0  0  0
   -0.2961   -1.2969    1.8281 H   0  0  0  0  0  0  0  0  0  0  0  0
  1  2  1  0
  2  3  1  0
  3  4  1  0
  4  5  1  0
  5  6  1  0
  6  7  1  0
  7  8  1  0
  8  9  1  0
  9 10  1  0
 10 11  2  0
 11 12  1  0
 12 13  1  0
 12 14  2  0
 14 15  1  0
 15 16  2  0
 16 17  1  0
 17 18  1  0
 18 19  1  0
 19  5  1  0
 19  9  1  0
 16 10  1  0
  1 20  1  0
  1 21  1  0
  1 22  1  0
  2 23  1  0
  2 24  1  0
  3 25  1  0
  3 26  1  0
  4 27  1  0
  4 28  1  0
  6 29  1  0
  6 30  1  0
  7 31  1  0
  7 32  1  0
  8 33  1  0
  8 34  1  0
  9 35  1  0
 11 36  1  0
 13 37  1  0
 14 38  1  0
 15 39  1  0
 17 40  1  0
 17 41  1  0
 18 42  1  0
 18 43  1  0
 19 44  1  0
M  END
$$$$
