@<TRIPOS>MOLECULE
*****
 44 46 0 0 0
SMALL
GASTEIGER

@<TRIPOS>ATOM
      1 C          -4.7281    0.8639   -1.1713 C.3     1  UNL1       -0.0652
      2 C          -4.1253    1.0527    0.1726 C.3     1  UNL1       -0.0548
      3 C          -3.0732    0.0711    0.5655 C.3     1  UNL1       -0.0404
      4 C          -1.8958    0.0973   -0.3748 C.3     1  UNL1       -0.0008
      5 N          -0.8532   -0.7905   -0.0847 N.3     1  UNL1       -0.2988
      6 C          -1.1563   -2.1877   -0.2466 C.3     1  UNL1       -0.0008
      7 C           0.1317   -2.9382   -0.5076 C.3     1  UNL1       -0.0396
      8 C           1.2756   -1.9774   -0.6665 C.3     1  UNL1       -0.0436
      9 C           1.3881   -1.0705    0.5593 C.3     1  UNL1        0.0002
     10 C           2.3408   -0.0002    0.2199 C.ar    1  UNL1       -0.0362
     11 C           3.2198   -0.0589   -0.8666 C.ar    1  UNL1       -0.0164
     12 C           4.0975    0.9490   -1.1375 C.ar    1  UNL1        0.1171
     13 O           4.9801    0.8875   -2.2299 O.3     1  UNL1       -0.5068
     14 C           4.1182    2.0509   -0.3219 C.ar    1  UNL1       -0.0199
     15 C           3.2536    2.1423    0.7720 C.ar    1  UNL1       -0.0549
     16 C           2.3808    1.1139    1.0210 C.ar    1  UNL1       -0.0436
     17 C           1.4248    1.1429    2.1513 C.3     1  UNL1       -0.0260
     18 C           0.0175    0.7686    1.6312 C.3     1  UNL1       -0.0328
     19 C           0.0184   -0.5749    0.9988 C.3     1  UNL1        0.0175
     20 H          -4.2772    0.0703   -1.7685 H       1  UNL1        0.0230
     21 H          -4.6059    1.8260   -1.7530 H       1  UNL1        0.0230
     22 H          -5.8395    0.7680   -1.0774 H       1  UNL1        0.0230
     23 H          -4.9374    1.0340    0.9610 H       1  UNL1        0.0263
     24 H          -3.6875    2.0748    0.2840 H       1  UNL1        0.0263
     25 H          -3.5388   -0.9581    0.5863 H       1  UNL1        0.0277
     26 H          -2.7213    0.2301    1.6007 H       1  UNL1        0.0277
     27 H          -1.5511    1.1100   -0.5960 H       1  UNL1        0.0427
     28 H          -2.3315   -0.2579   -1.3640 H       1  UNL1        0.0427
     29 H          -1.8900   -2.3157   -1.0795 H       1  UNL1        0.0427
     30 H          -1.6659   -2.6111    0.6588 H       1  UNL1        0.0427
     31 H           0.0347   -3.5000   -1.4825 H       1  UNL1        0.0278
     32 H           0.3446   -3.7005    0.2623 H       1  UNL1        0.0278
     33 H           2.2190   -2.5510   -0.7270 H       1  UNL1        0.0272
     34 H           1.0826   -1.3596   -1.5791 H       1  UNL1        0.0272
     35 H           1.8556   -1.6929    1.3494 H       1  UNL1        0.0364
     36 H           3.1827   -0.9199   -1.4841 H       1  UNL1        0.0657
     37 H           5.6210    1.6404   -2.4184 H       1  UNL1        0.2921
     38 H           4.8040    2.8867   -0.4962 H       1  UNL1        0.0654
     39 H           3.2566    2.9913    1.4149 H       1  UNL1        0.0621
     40 H           1.7069    0.4974    2.9821 H       1  UNL1        0.0314
     41 H           1.3110    2.1757    2.5850 H       1  UNL1        0.0314
     42 H          -0.6046    0.7709    2.5486 H       1  UNL1        0.0284
     43 H          -0.2867    1.5465    0.9039 H       1  UNL1        0.0284
     44 H          -0.2961   -1.2969    1.8281 H       1  UNL1        0.0468
@<TRIPOS>BOND
     1     1     2    1
     2     2     3    1
     3     3     4    1
     4     4     5    1
     5     5     6    1
     6     6     7    1
     7     7     8    1
     8     8     9    1
     9     9    10    1
    10    10    11   ar
    11    11    12   ar
    12    12    13    1
    13    12    14   ar
    14    14    15   ar
    15    15    16   ar
    16    16    17    1
    17    17    18    1
    18    18    19    1
    19    19     5    1
    20    19     9    1
    21    16    10   ar
    22     1    20    1
    23     1    21    1
    24     1    22    1
    25     2    23    1
    26     2    24    1
    27     3    25    1
    28     3    26    1
    29     4    27    1
    30     4    28    1
    31     6    29    1
    32     6    30    1
    33     7    31    1
    34     7    32    1
    35     8    33    1
    36     8    34    1
    37     9    35    1
    38    11    36    1
    39    13    37    1
    40    14    38    1
    41    15    39    1
    42    17    40    1
    43    17    41    1
    44    18    42    1
    45    18    43    1
    46    19    44    1
