
     RDKit          3D

 49 52  0  0  0  0  0  0  0  0999 V2000
    4.3336   -0.0768   -3.5173 C   0  0  0  0  0  0  0  0  0  0  0  0
    4.5113    0.0430   -2.0359 C   0  0  0  0  0  0  0  0  0  0  0  0
    5.8182    0.1312   -1.5400 C   0  0  0  0  0  0  0  0  0  0  0  0
    6.0716    0.2442   -0.1853 C   0  0  0  0  0  0  0  0  0  0  0  0
    7.3457    0.3314    0.3126 O   0  0  0  0  0  0  0  0  0  0  0  0
    7.7747    0.4474    1.6179 C   0  0  0  0  0  0  0  0  0  0  0  0
    8.7107   -0.5102    1.9792 F   0  0  0  0  0  0  0  0  0  0  0  0
    8.4516    1.6744    1.7094 F   0  0  0  0  0  0  0  0  0  0  0  0
    4.9823    0.2656    0.6483 C   0  0  0  0  0  0  0  0  0  0  0  0
    3.7096    0.1785    0.1505 N   0  0  0  0  0  0  0  0  0  0  0  0
    3.4678    0.0699   -1.1533 C   0  0  0  0  0  0  0  0  0  0  0  0
    2.1055   -0.0208   -1.6594 C   0  0  0  0  0  0  0  0  0  0  0  0
    1.8573   -0.1225   -2.8860 O   0  0  0  0  0  0  0  0  0  0  0  0
    1.0126    0.0034   -0.7732 N   0  0  0  0  0  0  0  0  0  0  0  0
   -0.3572   -0.0731   -1.0853 C   0  0  0  0  0  0  0  0  0  0  0  0
   -0.9148   -0.1875   -2.3286 C   0  0  0  0  0  0  0  0  0  0  0  0
   -2.3039   -0.2555   -2.5166 C   0  0  0  0  0  0  0  0  0  0  0  0
   -3.1569   -0.2082   -1.4410 C   0  0  0  0  0  0  0  0  0  0  0  0
   -4.5127   -0.2706   -1.5940 F   0  0  0  0  0  0  0  0  0  0  0  0
   -2.6140   -0.0909   -0.1534 C   0  0  0  0  0  0  0  0  0  0  0  0
   -3.5748   -0.0499    0.9843 C   0  0  1  0  0  0  0  0  0  0  0  0
   -2.8334    0.1620    2.3012 C   0  0  0  0  0  0  0  0  0  0  0  0
   -2.1412    1.3625    2.2808 F   0  0  0  0  0  0  0  0  0  0  0  0
   -2.0584   -0.9116    2.6408 F   0  0  0  0  0  0  0  0  0  0  0  0
   -4.4711    1.0984    0.8158 N   0  0  0  0  0  0  0  0  0  0  0  0
   -5.5582    1.1059    1.4945 C   0  0  0  0  0  0  0  0  0  0  0  0
   -6.4561    2.2181    1.3515 N   0  0  0  0  0  0  0  0  0  0  0  0
   -5.8129    0.0310    2.3379 O   0  0  0  0  0  0  0  0  0  0  0  0
   -5.6267   -1.2607    1.7896 C   0  0  2  0  0  0  0  0  0  0  0  0
   -4.5228   -2.1486    2.2111 C   0  0  0  0  0  0  0  0  0  0  0  0
   -4.3746   -1.3028    1.0129 C   0  0  2  0  0  0  0  0  0  0  0  0
   -1.2596   -0.0281   -0.0142 C   0  0  0  0  0  0  0  0  0  0  0  0
    3.8078   -1.0487   -3.7421 H   0  0  0  0  0  0  0  0  0  0  0  0
    3.7591    0.7903   -3.8612 H   0  0  0  0  0  0  0  0  0  0  0  0
    5.3313   -0.1494   -3.9870 H   0  0  0  0  0  0  0  0  0  0  0  0
    6.6510    0.1111   -2.2272 H   0  0  0  0  0  0  0  0  0  0  0  0
    6.9945    0.4766    2.4008 H   0  0  0  0  0  0  0  0  0  0  0  0
    5.1254    0.3524    1.7148 H   0  0  0  0  0  0  0  0  0  0  0  0
    1.3030    0.0919    0.2572 H   0  0  0  0  0  0  0  0  0  0  0  0
   -0.2855   -0.2282   -3.2002 H   0  0  0  0  0  0  0  0  0  0  0  0
   -2.6833   -0.3454   -3.5229 H   0  0  0  0  0  0  0  0  0  0  0  0
   -3.5739    0.2812    3.1240 H   0  0  0  0  0  0  0  0  0  0  0  0
   -6.5983    2.8163    2.1768 H   0  0  0  0  0  0  0  0  0  0  0  0
   -6.9167    2.3766    0.4510 H   0  0  0  0  0  0  0  0  0  0  0  0
   -6.5693   -1.7217    1.4275 H   0  0  0  0  0  0  0  0  0  0  0  0
   -4.7132   -3.2513    2.0545 H   0  0  0  0  0  0  0  0  0  0  0  0
   -3.9884   -1.9895    3.1609 H   0  0  0  0  0  0  0  0  0  0  0  0
   -4.3734   -1.8695    0.0372 H   0  0  0  0  0  0  0  0  0  0  0  0
   -0.8732    0.0577    0.9810 H   0  0  0  0  0  0  0  0  0  0  0  0
  1  2  1  0
  2  3  2  0
  3  4  1  0
  4  5  1  0
  5  6  1  0
  6  7  1  0
  6  8  1  0
  4  9  2  0
  9 10  1  0
 10 11  2  0
 11 12  1  0
 12 13  2  0
 12 14  1  0
 14 15  1  0
 15 16  2  0
 16 17  1  0
 17 18  2  0
 18 19  1  0
 18 20  1  0
 20 21  1  0
 21 22  1  1
 22 23  1  0
 22 24  1  0
 21 25  1  0
 25 26  2  0
 26 27  1  0
 26 28  1  0
 28 29  1  0
 29 30  1  0
 30 31  1  0
 20 32  2  0
 11  2  1  0
 32 15  1  0
 31 21  1  0
 31 29  1  0
  1 33  1  0
  1 34  1  0
  1 35  1  0
  3 36  1  0
  6 37  1  0
  9 38  1  0
 14 39  1  0
 16 40  1  0
 17 41  1  0
 22 42  1  0
 27 43  1  0
 27 44  1  0
 29 45  1  6
 30 46  1  0
 30 47  1  0
 31 48  1  6
 32 49  1  0
M  END
$$$$
