@<TRIPOS>MOLECULE
*****
 49 52 0 0 0
SMALL
GASTEIGER

@<TRIPOS>ATOM
      1 C           4.3336   -0.0768   -3.5173 C.3     1  UNL1       -0.0374
      2 C           4.5113    0.0430   -2.0359 C.ar    1  UNL1       -0.0165
      3 C           5.8182    0.1312   -1.5400 C.ar    1  UNL1       -0.0131
      4 C           6.0716    0.2442   -0.1853 C.ar    1  UNL1        0.1452
      5 O           7.3457    0.3314    0.3126 O.3     1  UNL1       -0.4327
      6 C           7.7747    0.4474    1.6179 C.3     1  UNL1        0.3893
      7 F           8.7107   -0.5102    1.9792 F       1  UNL1       -0.1663
      8 F           8.4516    1.6744    1.7094 F       1  UNL1       -0.1663
      9 C           4.9823    0.2656    0.6483 C.ar    1  UNL1        0.0703
     10 N           3.7096    0.1785    0.1505 N.ar    1  UNL1       -0.2465
     11 C           3.4678    0.0699   -1.1533 C.ar    1  UNL1        0.1288
     12 C           2.1055   -0.0208   -1.6594 C.2     1  UNL1        0.2668
     13 O           1.8573   -0.1225   -2.8860 O.2     1  UNL1       -0.2682
     14 N           1.0126    0.0034   -0.7732 N.am    1  UNL1       -0.2802
     15 C          -0.3572   -0.0731   -1.0853 C.ar    1  UNL1        0.0342
     16 C          -0.9148   -0.1875   -2.3286 C.ar    1  UNL1       -0.0377
     17 C          -2.3039   -0.2555   -2.5166 C.ar    1  UNL1       -0.0243
     18 C          -3.1569   -0.2082   -1.4410 C.ar    1  UNL1        0.1292
     19 F          -4.5127   -0.2706   -1.5940 F       1  UNL1       -0.2051
     20 C          -2.6140   -0.0909   -0.1534 C.ar    1  UNL1        0.0228
     21 C          -3.5748   -0.0499    0.9843 C.3     1  UNL1        0.1603
     22 C          -2.8334    0.1620    2.3012 C.3     1  UNL1        0.2686
     23 F          -2.1412    1.3625    2.2808 F       1  UNL1       -0.2062
     24 F          -2.0584   -0.9116    2.6408 F       1  UNL1       -0.2062
     25 N          -4.4711    1.0984    0.8158 N.2     1  UNL1       -0.2194
     26 C          -5.5582    1.1059    1.4945 C.2     1  UNL1        0.2764
     27 N          -6.4561    2.2181    1.3515 N.pl3   1  UNL1       -0.3134
     28 O          -5.8129    0.0310    2.3379 O.2     1  UNL1       -0.4622
     29 C          -5.6267   -1.2607    1.7896 C.3     1  UNL1        0.1091
     30 C          -4.5228   -2.1486    2.2111 C.3     1  UNL1       -0.0064
     31 C          -4.3746   -1.3028    1.0129 C.3     1  UNL1        0.0344
     32 C          -1.2596   -0.0281   -0.0142 C.ar    1  UNL1       -0.0321
     33 H           3.8078   -1.0487   -3.7421 H       1  UNL1        0.0278
     34 H           3.7591    0.7903   -3.8612 H       1  UNL1        0.0278
     35 H           5.3313   -0.1494   -3.9870 H       1  UNL1        0.0278
     36 H           6.6510    0.1111   -2.2272 H       1  UNL1        0.0658
     37 H           6.9945    0.4766    2.4008 H       1  UNL1        0.1520
     38 H           5.1254    0.3524    1.7148 H       1  UNL1        0.0867
     39 H           1.3030    0.0919    0.2572 H       1  UNL1        0.1552
     40 H          -0.2855   -0.2282   -3.2002 H       1  UNL1        0.0637
     41 H          -2.6833   -0.3454   -3.5229 H       1  UNL1        0.0647
     42 H          -3.5739    0.2812    3.1240 H       1  UNL1        0.1047
     43 H          -6.5983    2.8163    2.1768 H       1  UNL1        0.1466
     44 H          -6.9167    2.3766    0.4510 H       1  UNL1        0.1466
     45 H          -6.5693   -1.7217    1.4275 H       1  UNL1        0.0737
     46 H          -4.7132   -3.2513    2.0545 H       1  UNL1        0.0306
     47 H          -3.9884   -1.9895    3.1609 H       1  UNL1        0.0306
     48 H          -4.3734   -1.8695    0.0372 H       1  UNL1        0.0366
     49 H          -0.8732    0.0577    0.9810 H       1  UNL1        0.0640
@<TRIPOS>BOND
     1     1     2    1
     2     2     3   ar
     3     3     4   ar
     4     4     5    1
     5     5     6    1
     6     6     7    1
     7     6     8    1
     8     4     9   ar
     9     9    10   ar
    10    10    11   ar
    11    11    12    1
    12    12    13    2
    13    12    14   am
    14    14    15    1
    15    15    16   ar
    16    16    17   ar
    17    17    18   ar
    18    18    19    1
    19    18    20   ar
    20    20    21    1
    21    21    22    1
    22    22    23    1
    23    22    24    1
    24    21    25    1
    25    25    26    2
    26    26    27    1
    27    26    28    1
    28    28    29    1
    29    29    30    1
    30    30    31    1
    31    20    32   ar
    32    11     2   ar
    33    32    15   ar
    34    31    21    1
    35    31    29    1
    36     1    33    1
    37     1    34    1
    38     1    35    1
    39     3    36    1
    40     6    37    1
    41     9    38    1
    42    14    39    1
    43    16    40    1
    44    17    41    1
    45    22    42    1
    46    27    43    1
    47    27    44    1
    48    29    45    1
    49    30    46    1
    50    30    47    1
    51    31    48    1
    52    32    49    1
