@<TRIPOS>MOLECULE
*****
 59 63 0 0 0
SMALL
GASTEIGER

@<TRIPOS>ATOM
      1 O           6.1346   -1.4965    1.8845 O.2     1  UNL1       -0.2526
      2 C           6.5414   -0.9956    0.7888 C.2     1  UNL1        0.3023
      3 N           7.7237   -1.2905    0.0702 N.am    1  UNL1       -0.2977
      4 C           7.6435   -0.5800   -1.1805 C.3     1  UNL1        0.0289
      5 C           6.7320    0.5818   -0.8656 C.3     1  UNL1        0.0318
      6 N           5.7967    0.0129    0.0827 N.am    1  UNL1       -0.2829
      7 C           4.3968    0.3692    0.2935 C.3     1  UNL1        0.0289
      8 C           3.5590   -0.4780   -0.6027 C.3     1  UNL1        0.0148
      9 N           2.1504   -0.2313   -0.4954 N.3     1  UNL1       -0.2984
     10 C           1.5977   -0.6446    0.7786 C.3     1  UNL1        0.0118
     11 C           0.5672    0.3453    1.2713 C.3     1  UNL1        0.0123
     12 N          -0.3692    0.7240    0.2488 N.3     1  UNL1       -0.2930
     13 C          -1.3482   -0.2850   -0.0744 C.3     1  UNL1        0.0368
     14 C          -2.3031    0.3237   -1.0903 C.3     1  UNL1       -0.0223
     15 C          -3.4370    0.8458   -0.2689 C.3     1  UNL1        0.0113
     16 C          -4.7724    0.7132   -0.8890 C.ar    1  UNL1       -0.0397
     17 C          -5.1068   -0.3421   -1.6860 C.ar    1  UNL1       -0.0553
     18 C          -6.3795   -0.4499   -2.2708 C.ar    1  UNL1       -0.0262
     19 C          -7.3302    0.5219   -2.0480 C.ar    1  UNL1        0.1234
     20 F          -8.5719    0.4207   -2.6162 F       1  UNL1       -0.2055
     21 C          -6.9837    1.5853   -1.2408 C.ar    1  UNL1       -0.0262
     22 C          -5.7271    1.6827   -0.6693 C.ar    1  UNL1       -0.0553
     23 C          -3.4052   -0.0359    0.9307 C.ar    1  UNL1       -0.0352
     24 C          -4.3592   -0.2971    1.9119 C.ar    1  UNL1       -0.0577
     25 C          -4.1258   -1.1678    2.9442 C.ar    1  UNL1       -0.0615
     26 C          -2.9228   -1.8188    3.0415 C.ar    1  UNL1       -0.0614
     27 C          -1.9472   -1.5841    2.0823 C.ar    1  UNL1       -0.0568
     28 C          -2.2035   -0.7005    1.0481 C.ar    1  UNL1       -0.0265
     29 C           0.2809    1.1660   -0.9650 C.3     1  UNL1        0.0123
     30 C           1.7850    1.1300   -0.8188 C.3     1  UNL1        0.0118
     31 H           8.5028   -1.8947    0.3679 H       1  UNL1        0.1503
     32 H           8.6444   -0.2395   -1.5321 H       1  UNL1        0.0478
     33 H           7.1542   -1.2191   -1.9481 H       1  UNL1        0.0478
     34 H           6.2321    0.9727   -1.7776 H       1  UNL1        0.0480
     35 H           7.3505    1.3881   -0.3940 H       1  UNL1        0.0480
     36 H           4.1592    0.2288    1.3673 H       1  UNL1        0.0478
     37 H           4.2812    1.4614    0.0418 H       1  UNL1        0.0478
     38 H           3.7855   -1.5358   -0.4463 H       1  UNL1        0.0442
     39 H           3.8467   -0.2271   -1.6585 H       1  UNL1        0.0442
     40 H           2.3790   -0.7548    1.5288 H       1  UNL1        0.0439
     41 H           1.0844   -1.6114    0.6258 H       1  UNL1        0.0439
     42 H           1.1211    1.2641    1.5819 H       1  UNL1        0.0439
     43 H           0.1096   -0.0469    2.1846 H       1  UNL1        0.0439
     44 H          -0.7948   -1.1536   -0.4889 H       1  UNL1        0.0512
     45 H          -1.8212    1.2233   -1.5558 H       1  UNL1        0.0293
     46 H          -2.5508   -0.3356   -1.9127 H       1  UNL1        0.0293
     47 H          -3.2425    1.9058    0.0476 H       1  UNL1        0.0398
     48 H          -4.3897   -1.1089   -1.8693 H       1  UNL1        0.0621
     49 H          -6.6111   -1.3063   -2.9015 H       1  UNL1        0.0646
     50 H          -7.7359    2.3416   -1.0721 H       1  UNL1        0.0646
     51 H          -5.4960    2.5354   -0.0413 H       1  UNL1        0.0621
     52 H          -5.3041    0.2382    1.8017 H       1  UNL1        0.0621
     53 H          -4.8804   -1.3444    3.6791 H       1  UNL1        0.0618
     54 H          -2.6953   -2.5195    3.8462 H       1  UNL1        0.0618
     55 H          -1.0175   -2.1215    2.1923 H       1  UNL1        0.0621
     56 H           0.0286    0.4425   -1.7754 H       1  UNL1        0.0439
     57 H          -0.0663    2.1891   -1.2219 H       1  UNL1        0.0439
     58 H           2.2159    1.3252   -1.8384 H       1  UNL1        0.0439
     59 H           2.0944    1.8785   -0.0930 H       1  UNL1        0.0439
@<TRIPOS>BOND
     1     1     2    2
     2     2     3   am
     3     3     4    1
     4     4     5    1
     5     5     6    1
     6     6     7    1
     7     7     8    1
     8     8     9    1
     9     9    10    1
    10    10    11    1
    11    11    12    1
    12    12    13    1
    13    13    14    1
    14    14    15    1
    15    15    16    1
    16    16    17   ar
    17    17    18   ar
    18    18    19   ar
    19    19    20    1
    20    19    21   ar
    21    21    22   ar
    22    15    23    1
    23    23    24   ar
    24    24    25   ar
    25    25    26   ar
    26    26    27   ar
    27    27    28   ar
    28    12    29    1
    29    29    30    1
    30     6     2   am
    31    30     9    1
    32    28    13    1
    33    22    16   ar
    34    28    23   ar
    35     3    31    1
    36     4    32    1
    37     4    33    1
    38     5    34    1
    39     5    35    1
    40     7    36    1
    41     7    37    1
    42     8    38    1
    43     8    39    1
    44    10    40    1
    45    10    41    1
    46    11    42    1
    47    11    43    1
    48    13    44    1
    49    14    45    1
    50    14    46    1
    51    15    47    1
    52    17    48    1
    53    18    49    1
    54    21    50    1
    55    22    51    1
    56    24    52    1
    57    25    53    1
    58    26    54    1
    59    27    55    1
    60    29    56    1
    61    29    57    1
    62    30    58    1
    63    30    59    1
