
     RDKit          3D

 59 63  0  0  0  0  0  0  0  0999 V2000
    6.1346   -1.4965    1.8845 O   0  0  0  0  0  0  0  0  0  0  0  0
    6.5414   -0.9956    0.7888 C   0  0  0  0  0  0  0  0  0  0  0  0
    7.7237   -1.2905    0.0702 N   0  0  0  0  0  0  0  0  0  0  0  0
    7.6435   -0.5800   -1.1805 C   0  0  0  0  0  0  0  0  0  0  0  0
    6.7320    0.5818   -0.8656 C   0  0  0  0  0  0  0  0  0  0  0  0
    5.7967    0.0129    0.0827 N   0  0  0  0  0  0  0  0  0  0  0  0
    4.3968    0.3692    0.2935 C   0  0  0  0  0  0  0  0  0  0  0  0
    3.5590   -0.4780   -0.6027 C   0  0  0  0  0  0  0  0  0  0  0  0
    2.1504   -0.2313   -0.4954 N   0  0  0  0  0  0  0  0  0  0  0  0
    1.5977   -0.6446    0.7786 C   0  0  0  0  0  0  0  0  0  0  0  0
    0.5672    0.3453    1.2713 C   0  0  0  0  0  0  0  0  0  0  0  0
   -0.3692    0.7240    0.2488 N   0  0  0  0  0  0  0  0  0  0  0  0
   -1.3482   -0.2850   -0.0744 C   0  0  2  0  0  0  0  0  0  0  0  0
   -2.3031    0.3237   -1.0903 C   0  0  0  0  0  0  0  0  0  0  0  0
   -3.4370    0.8458   -0.2689 C   0  0  1  0  0  0  0  0  0  0  0  0
   -4.7724    0.7132   -0.8890 C   0  0  0  0  0  0  0  0  0  0  0  0
   -5.1068   -0.3421   -1.6860 C   0  0  0  0  0  0  0  0  0  0  0  0
   -6.3795   -0.4499   -2.2708 C   0  0  0  0  0  0  0  0  0  0  0  0
   -7.3302    0.5219   -2.0480 C   0  0  0  0  0  0  0  0  0  0  0  0
   -8.5719    0.4207   -2.6162 F   0  0  0  0  0  0  0  0  0  0  0  0
   -6.9837    1.5853   -1.2408 C   0  0  0  0  0  0  0  0  0  0  0  0
   -5.7271    1.6827   -0.6693 C   0  0  0  0  0  0  0  0  0  0  0  0
   -3.4052   -0.0359    0.9307 C   0  0  0  0  0  0  0  0  0  0  0  0
   -4.3592   -0.2971    1.9119 C   0  0  0  0  0  0  0  0  0  0  0  0
   -4.1258   -1.1678    2.9442 C   0  0  0  0  0  0  0  0  0  0  0  0
   -2.9228   -1.8188    3.0415 C   0  0  0  0  0  0  0  0  0  0  0  0
   -1.9472   -1.5841    2.0823 C   0  0  0  0  0  0  0  0  0  0  0  0
   -2.2035   -0.7005    1.0481 C   0  0  0  0  0  0  0  0  0  0  0  0
    0.2809    1.1660   -0.9650 C   0  0  0  0  0  0  0  0  0  0  0  0
    1.7850    1.1300   -0.8188 C   0  0  0  0  0  0  0  0  0  0  0  0
    8.5028   -1.8947    0.3679 H   0  0  0  0  0  0  0  0  0  0  0  0
    8.6444   -0.2395   -1.5321 H   0  0  0  0  0  0  0  0  0  0  0  0
    7.1542   -1.2191   -1.9481 H   0  0  0  0  0  0  0  0  0  0  0  0
    6.2321    0.9727   -1.7776 H   0  0  0  0  0  0  0  0  0  0  0  0
    7.3505    1.3881   -0.3940 H   0  0  0  0  0  0  0  0  0  0  0  0
    4.1592    0.2288    1.3673 H   0  0  0  0  0  0  0  0  0  0  0  0
    4.2812    1.4614    0.0418 H   0  0  0  0  0  0  0  0  0  0  0  0
    3.7855   -1.5358   -0.4463 H   0  0  0  0  0  0  0  0  0  0  0  0
    3.8467   -0.2271   -1.6585 H   0  0  0  0  0  0  0  0  0  0  0  0
    2.3790   -0.7548    1.5288 H   0  0  0  0  0  0  0  0  0  0  0  0
    1.0844   -1.6114    0.6258 H   0  0  0  0  0  0  0  0  0  0  0  0
    1.1211    1.2641    1.5819 H   0  0  0  0  0  0  0  0  0  0  0  0
    0.1096   -0.0469    2.1846 H   0  0  0  0  0  0  0  0  0  0  0  0
   -0.7948   -1.1536   -0.4889 H   0  0  0  0  0  0  0  0  0  0  0  0
   -1.8212    1.2233   -1.5558 H   0  0  0  0  0  0  0  0  0  0  0  0
   -2.5508   -0.3356   -1.9127 H   0  0  0  0  0  0  0  0  0  0  0  0
   -3.2425    1.9058    0.0476 H   0  0  0  0  0  0  0  0  0  0  0  0
   -4.3897   -1.1089   -1.8693 H   0  0  0  0  0  0  0  0  0  0  0  0
   -6.6111   -1.3063   -2.9015 H   0  0  0  0  0  0  0  0  0  0  0  0
   -7.7359    2.3416   -1.0721 H   0  0  0  0  0  0  0  0  0  0  0  0
   -5.4960    2.5354   -0.0413 H   0  0  0  0  0  0  0  0  0  0  0  0
   -5.3041    0.2382    1.8017 H   0  0  0  0  0  0  0  0  0  0  0  0
   -4.8804   -1.3444    3.6791 H   0  0  0  0  0  0  0  0  0  0  0  0
   -2.6953   -2.5195    3.8462 H   0  0  0  0  0  0  0  0  0  0  0  0
   -1.0175   -2.1215    2.1923 H   0  0  0  0  0  0  0  0  0  0  0  0
    0.0286    0.4425   -1.7754 H   0  0  0  0  0  0  0  0  0  0  0  0
   -0.0663    2.1891   -1.2219 H   0  0  0  0  0  0  0  0  0  0  0  0
    2.2159    1.3252   -1.8384 H   0  0  0  0  0  0  0  0  0  0  0  0
    2.0944    1.8785   -0.0930 H   0  0  0  0  0  0  0  0  0  0  0  0
  1  2  2  0
  2  3  1  0
  3  4  1  0
  4  5  1  0
  5  6  1  0
  6  7  1  0
  7  8  1  0
  8  9  1  0
  9 10  1  0
 10 11  1  0
 11 12  1  0
 12 13  1  0
 13 14  1  0
 14 15  1  0
 15 16  1  0
 16 17  2  0
 17 18  1  0
 18 19  2  0
 19 20  1  0
 19 21  1  0
 21 22  2  0
 15 23  1  0
 23 24  2  0
 24 25  1  0
 25 26  2  0
 26 27  1  0
 27 28  2  0
 12 29  1  0
 29 30  1  0
  6  2  1  0
 30  9  1  0
 28 13  1  0
 22 16  1  0
 28 23  1  0
  3 31  1  0
  4 32  1  0
  4 33  1  0
  5 34  1  0
  5 35  1  0
  7 36  1  0
  7 37  1  0
  8 38  1  0
  8 39  1  0
 10 40  1  0
 10 41  1  0
 11 42  1  0
 11 43  1  0
 13 44  1  6
 14 45  1  0
 14 46  1  0
 15 47  1  1
 17 48  1  0
 18 49  1  0
 21 50  1  0
 22 51  1  0
 24 52  1  0
 25 53  1  0
 26 54  1  0
 27 55  1  0
 29 56  1  0
 29 57  1  0
 30 58  1  0
 30 59  1  0
M  END
$$$$
