@<TRIPOS>MOLECULE
*****
 40 43 0 0 0
SMALL
GASTEIGER

@<TRIPOS>ATOM
      1 N          -7.3585    1.5492   -0.4352 N.pl3   1  UNL1       -0.2889
      2 C          -6.8779    1.0928    0.8236 C.cat   1  UNL1        0.3841
      3 N          -7.6869    1.2371    2.0003 N.pl3   1  UNL1       -0.2889
      4 N          -5.8571    0.7655    0.1062 N.pl3   1  UNL1       -0.0449
      5 C          -4.7544    0.1351    0.7931 C.ar    1  UNL1        0.2718
      6 N          -3.7270   -0.2513    0.3684 N.ar    1  UNL1       -0.2059
      7 C          -2.7554   -0.8271    1.0834 C.ar    1  UNL1        0.0884
      8 C          -2.9932   -0.9795    2.4655 C.ar    1  UNL1        0.0071
      9 S          -4.7040   -0.2371    2.6477 S.2     1  UNL1       -0.0376
     10 C          -1.4975   -1.2820    0.4670 C.ar    1  UNL1        0.0385
     11 C          -0.4398   -1.8652    1.0197 C.ar    1  UNL1       -0.0451
     12 C           0.6498   -2.2226    0.2903 C.ar    1  UNL1       -0.0494
     13 C           0.5753   -1.9328   -1.0740 C.ar    1  UNL1        0.0075
     14 C           1.3855   -2.0541   -2.3387 C.3     1  UNL1        0.0432
     15 N           2.1169   -0.8404   -2.5284 N.pl3   1  UNL1       -0.3103
     16 C           3.1332   -0.1763   -1.8284 C.ar    1  UNL1        0.1942
     17 N           3.7594    0.9988   -2.0354 N.ar    1  UNL1       -0.2146
     18 C           4.6646    1.1431   -1.0601 C.ar    1  UNL1        0.0907
     19 C           4.6237    0.0588   -0.2205 C.ar    1  UNL1        0.0674
     20 N           3.6754   -0.7429   -0.7089 N.ar    1  UNL1       -0.3261
     21 C           5.5353    0.1103    0.8385 C.ar    1  UNL1       -0.0362
     22 C           6.3922    1.1673    1.0070 C.ar    1  UNL1       -0.0597
     23 C           6.3954    2.2321    0.1378 C.ar    1  UNL1       -0.0596
     24 C           5.5128    2.2171   -0.9161 C.ar    1  UNL1       -0.0342
     25 S          -1.0389   -1.1704   -1.2385 S.2     1  UNL1       -0.0901
     26 H          -7.7741    1.7407   -1.3680 H       1  UNL1        0.2547
     27 H          -7.8597    1.5245   -1.3633 H       1  UNL1        0.2547
     28 H          -7.6710    0.1995    1.8776 H       1  UNL1        0.2547
     29 H          -7.7009    2.2643    2.1193 H       1  UNL1        0.2547
     30 H          -2.2595   -1.4448    3.1670 H       1  UNL1        0.0716
     31 H          -0.4074   -2.0787    2.0809 H       1  UNL1        0.0630
     32 H           1.5724   -2.6995    0.5729 H       1  UNL1        0.0626
     33 H           0.7445   -2.2972   -3.1905 H       1  UNL1        0.0517
     34 H           2.0614   -2.9158   -2.1170 H       1  UNL1        0.0517
     35 H           1.8424   -0.3019   -3.3932 H       1  UNL1        0.1492
     36 H           3.5405   -1.6226   -0.1562 H       1  UNL1        0.1686
     37 H           5.5182   -0.7410    1.5157 H       1  UNL1        0.0639
     38 H           7.0404    1.0892    1.8538 H       1  UNL1        0.0618
     39 H           7.0907    3.0284    0.3248 H       1  UNL1        0.0618
     40 H           5.5330    3.0663   -1.5881 H       1  UNL1        0.0639
@<TRIPOS>BOND
     1     1     2    1
     2     2     3    1
     3     2     4    2
     4     4     5    1
     5     5     6   ar
     6     6     7   ar
     7     7     8   ar
     8     8     9   ar
     9     7    10    1
    10    10    11   ar
    11    11    12   ar
    12    12    13   ar
    13    13    14    1
    14    14    15    1
    15    15    16    1
    16    16    17   ar
    17    17    18   ar
    18    18    19   ar
    19    19    20   ar
    20    19    21   ar
    21    21    22   ar
    22    22    23   ar
    23    23    24   ar
    24    13    25   ar
    25     9     5   ar
    26    25    10   ar
    27    20    16   ar
    28    24    18   ar
    29     1    26    1
    30     1    27    1
    31     3    28    1
    32     3    29    1
    33     8    30    1
    34    11    31    1
    35    12    32    1
    36    14    33    1
    37    14    34    1
    38    15    35    1
    39    20    36    1
    40    21    37    1
    41    22    38    1
    42    23    39    1
    43    24    40    1
