@<TRIPOS>MOLECULE
*****
 53 56 0 0 0
SMALL
GASTEIGER

@<TRIPOS>ATOM
      1 C          10.0121   -0.1542    3.5501 C.3     1  UNL1       -0.0022
      2 C           8.7888   -0.1824    2.7283 C.1     1  UNL1       -0.0988
      3 C           7.7880   -0.2143    2.0729 C.1     1  UNL1       -0.0452
      4 C           6.6017   -0.2652    1.2703 C.ar    1  UNL1        0.1314
      5 C           6.5237   -1.1207    0.1727 C.ar    1  UNL1        0.0622
      6 N           5.3959   -1.1608   -0.5557 N.ar    1  UNL1       -0.2484
      7 C           4.3147   -0.3834   -0.2524 C.ar    1  UNL1        0.1170
      8 C           3.1168   -0.4560   -1.0382 C.2     1  UNL1        0.1506
      9 F           3.1032   -1.3547   -2.0811 F       1  UNL1       -0.2032
     10 C           2.0614    0.2753   -0.8020 C.2     1  UNL1       -0.0171
     11 C           0.8564    0.1474   -1.6556 C.ar    1  UNL1       -0.0217
     12 C           0.9515   -0.0637   -3.0070 C.ar    1  UNL1       -0.0518
     13 C          -0.1529   -0.2332   -3.8140 C.ar    1  UNL1       -0.0255
     14 C          -1.4010   -0.1824   -3.2044 C.ar    1  UNL1        0.1289
     15 F          -2.5072   -0.3514   -4.0031 F       1  UNL1       -0.2051
     16 C          -1.5297    0.0293   -1.8505 C.ar    1  UNL1        0.0158
     17 C          -2.9065    0.0186   -1.2641 C.3     1  UNL1        0.0935
     18 C          -3.6767    1.0563   -2.1321 C.3     1  UNL1       -0.0351
     19 N          -3.4260   -1.2773   -1.4973 N.2     1  UNL1       -0.2521
     20 C          -4.2709   -1.9550   -0.8408 C.2     1  UNL1        0.1485
     21 N          -4.6875   -3.2726   -1.2253 N.pl3   1  UNL1       -0.3380
     22 S          -4.9511   -1.1963    0.6350 S.3     1  UNL1       -0.0746
     23 C          -3.8892    0.1790    1.0661 C.3     1  UNL1        0.1052
     24 C          -4.5506    1.2372    1.8857 C.2     1  UNL1        0.2296
     25 O          -3.9539    1.8752    2.8035 O.2     1  UNL1       -0.2743
     26 N          -5.8962    1.5441    1.6305 N.am    1  UNL1       -0.3172
     27 C          -6.6187    2.5623    2.3798 C.3     1  UNL1        0.0001
     28 C          -2.4520   -0.1799    1.3146 C.3     1  UNL1       -0.0220
     29 C          -2.8478    0.5424    0.1106 C.3     1  UNL1        0.0134
     30 C          -0.4181    0.1969   -1.0626 C.ar    1  UNL1       -0.0463
     31 C           4.4083    0.4479    0.8238 C.ar    1  UNL1        0.0572
     32 N           5.5488    0.4831    1.5539 N.ar    1  UNL1       -0.2430
     33 H           9.8444   -0.6582    4.5269 H       1  UNL1        0.0362
     34 H          10.8264   -0.6568    2.9552 H       1  UNL1        0.0362
     35 H          10.3076    0.9074    3.7477 H       1  UNL1        0.0362
     36 H           7.3983   -1.7237   -0.0406 H       1  UNL1        0.0858
     37 H           2.0501    0.9700    0.0093 H       1  UNL1        0.0653
     38 H           1.9027   -0.1037   -3.5115 H       1  UNL1        0.0624
     39 H          -0.1103   -0.3965   -4.8651 H       1  UNL1        0.0646
     40 H          -2.9883    1.5899   -2.7980 H       1  UNL1        0.0256
     41 H          -4.4337    0.5173   -2.7441 H       1  UNL1        0.0256
     42 H          -4.1762    1.7847   -1.4778 H       1  UNL1        0.0256
     43 H          -4.3637   -3.6997   -2.0936 H       1  UNL1        0.1442
     44 H          -5.3275   -3.7844   -0.5967 H       1  UNL1        0.1442
     45 H          -6.3883    1.0176    0.8776 H       1  UNL1        0.1484
     46 H          -6.6488    2.2036    3.4446 H       1  UNL1        0.0426
     47 H          -7.6599    2.6765    1.9586 H       1  UNL1        0.0426
     48 H          -6.1445    3.5575    2.2850 H       1  UNL1        0.0426
     49 H          -1.9079    0.3601    2.1439 H       1  UNL1        0.0287
     50 H          -2.1032   -1.2159    1.1759 H       1  UNL1        0.0287
     51 H          -2.5710    1.6466    0.1293 H       1  UNL1        0.0346
     52 H          -0.4691    0.3701   -0.0087 H       1  UNL1        0.0628
     53 H           3.6278    1.1079    1.1706 H       1  UNL1        0.0852
@<TRIPOS>BOND
     1     1     2    1
     2     2     3    3
     3     3     4    1
     4     4     5   ar
     5     5     6   ar
     6     6     7   ar
     7     7     8    1
     8     8     9    1
     9     8    10    2
    10    10    11    1
    11    11    12   ar
    12    12    13   ar
    13    13    14   ar
    14    14    15    1
    15    14    16   ar
    16    16    17    1
    17    17    18    1
    18    17    19    1
    19    19    20    2
    20    20    21    1
    21    20    22    1
    22    22    23    1
    23    23    24    1
    24    24    25    2
    25    24    26   am
    26    26    27    1
    27    23    28    1
    28    28    29    1
    29    16    30   ar
    30     7    31   ar
    31    31    32   ar
    32    32     4   ar
    33    30    11   ar
    34    29    17    1
    35    29    23    1
    36     1    33    1
    37     1    34    1
    38     1    35    1
    39     5    36    1
    40    10    37    1
    41    12    38    1
    42    13    39    1
    43    18    40    1
    44    18    41    1
    45    18    42    1
    46    21    43    1
    47    21    44    1
    48    26    45    1
    49    27    46    1
    50    27    47    1
    51    27    48    1
    52    28    49    1
    53    28    50    1
    54    29    51    1
    55    30    52    1
    56    31    53    1
