
     RDKit          3D

 34 34  0  0  0  0  0  0  0  0999 V2000
   -1.0478   -2.2350    0.1218 C   0  0  0  0  0  0  0  0  0  0  0  0
   -0.3107   -0.9795    0.5881 C   0  0  0  0  0  0  0  0  0  0  0  0
   -0.8046    0.1369   -0.1232 N   0  0  0  0  0  0  0  0  0  0  0  0
   -2.1020    0.6194    0.2196 C   0  0  0  0  0  0  0  0  0  0  0  0
   -2.1733    0.9620    1.7168 C   0  0  0  0  0  0  0  0  0  0  0  0
   -2.2783    1.9310   -0.5812 C   0  0  0  0  0  0  0  0  0  0  0  0
   -3.2681   -0.2298   -0.1162 C   0  0  0  0  0  0  0  0  0  0  0  0
    1.1133   -1.2702    0.5443 C   0  0  0  0  0  0  0  0  0  0  0  0
    1.4236   -2.3793    1.1320 O   0  0  0  0  0  0  0  0  0  0  0  0
    2.1983   -0.5274   -0.0395 C   0  0  0  0  0  0  0  0  0  0  0  0
    3.4936   -1.0651   -0.0058 C   0  0  0  0  0  0  0  0  0  0  0  0
    4.5944   -0.4288   -0.5206 C   0  0  0  0  0  0  0  0  0  0  0  0
    4.4883    0.8066   -1.1156 C   0  0  0  0  0  0  0  0  0  0  0  0
    3.2293    1.3568   -1.1618 C   0  0  0  0  0  0  0  0  0  0  0  0
    3.0666    2.9313   -1.9152 Cl  0  0  0  0  0  0  0  0  0  0  0  0
    2.1040    0.7092   -0.6366 C   0  0  0  0  0  0  0  0  0  0  0  0
   -2.0170   -2.3758    0.5867 H   0  0  0  0  0  0  0  0  0  0  0  0
   -1.1358   -2.1564   -0.9806 H   0  0  0  0  0  0  0  0  0  0  0  0
   -0.4299   -3.1278    0.4102 H   0  0  0  0  0  0  0  0  0  0  0  0
   -0.5447   -0.8690    1.7144 H   0  0  0  0  0  0  0  0  0  0  0  0
   -0.7776   -0.0034   -1.1755 H   0  0  0  0  0  0  0  0  0  0  0  0
   -2.9671    1.7220    1.8074 H   0  0  0  0  0  0  0  0  0  0  0  0
   -1.1730    1.3312    2.0089 H   0  0  0  0  0  0  0  0  0  0  0  0
   -2.4987    0.0695    2.2895 H   0  0  0  0  0  0  0  0  0  0  0  0
   -2.9333    2.6351   -0.0335 H   0  0  0  0  0  0  0  0  0  0  0  0
   -1.2884    2.4172   -0.6986 H   0  0  0  0  0  0  0  0  0  0  0  0
   -2.7076    1.6238   -1.5679 H   0  0  0  0  0  0  0  0  0  0  0  0
   -3.1561   -0.9376   -0.9352 H   0  0  0  0  0  0  0  0  0  0  0  0
   -3.6772   -0.7213    0.8183 H   0  0  0  0  0  0  0  0  0  0  0  0
   -4.1394    0.4321   -0.4277 H   0  0  0  0  0  0  0  0  0  0  0  0
    3.6292   -2.0369    0.4523 H   0  0  0  0  0  0  0  0  0  0  0  0
    5.5851   -0.8638   -0.4831 H   0  0  0  0  0  0  0  0  0  0  0  0
    5.3480    1.3289   -1.5305 H   0  0  0  0  0  0  0  0  0  0  0  0
    1.1574    1.1941   -0.6951 H   0  0  0  0  0  0  0  0  0  0  0  0
  1  2  1  0
  2  3  1  0
  3  4  1  0
  4  5  1  0
  4  6  1  0
  4  7  1  0
  2  8  1  0
  8  9  2  0
  8 10  1  0
 10 11  2  0
 11 12  1  0
 12 13  2  0
 13 14  1  0
 14 15  1  0
 14 16  2  0
 16 10  1  0
  1 17  1  0
  1 18  1  0
  1 19  1  0
  2 20  1  0
  3 21  1  0
  5 22  1  0
  5 23  1  0
  5 24  1  0
  6 25  1  0
  6 26  1  0
  6 27  1  0
  7 28  1  0
  7 29  1  0
  7 30  1  0
 11 31  1  0
 12 32  1  0
 13 33  1  0
 16 34  1  0
M  END
$$$$
