@<TRIPOS>MOLECULE
*****
 34 34 0 0 0
SMALL
GASTEIGER

@<TRIPOS>ATOM
      1 C          -1.0478   -2.2350    0.1218 C.3     1  UNL1       -0.0424
      2 C          -0.3107   -0.9795    0.5881 C.3     1  UNL1        0.0687
      3 N          -0.8046    0.1369   -0.1232 N.3     1  UNL1       -0.3022
      4 C          -2.1020    0.6194    0.2196 C.3     1  UNL1        0.0114
      5 C          -2.1733    0.9620    1.7168 C.3     1  UNL1       -0.0473
      6 C          -2.2783    1.9310   -0.5812 C.3     1  UNL1       -0.0473
      7 C          -3.2681   -0.2298   -0.1162 C.3     1  UNL1       -0.0473
      8 C           1.1133   -1.2702    0.5443 C.2     1  UNL1        0.1797
      9 O           1.4236   -2.3793    1.1320 O.2     1  UNL1       -0.2904
     10 C           2.1983   -0.5274   -0.0395 C.ar    1  UNL1        0.0204
     11 C           3.4936   -1.0651   -0.0058 C.ar    1  UNL1       -0.0511
     12 C           4.5944   -0.4288   -0.5206 C.ar    1  UNL1       -0.0597
     13 C           4.4883    0.8066   -1.1156 C.ar    1  UNL1       -0.0433
     14 C           3.2293    1.3568   -1.1618 C.ar    1  UNL1        0.0416
     15 CL          3.0666    2.9313   -1.9152 Cl      1  UNL1       -0.0835
     16 C           2.1040    0.7092   -0.6366 C.ar    1  UNL1       -0.0328
     17 H          -2.0170   -2.3758    0.5867 H       1  UNL1        0.0249
     18 H          -1.1358   -2.1564   -0.9806 H       1  UNL1        0.0249
     19 H          -0.4299   -3.1278    0.4102 H       1  UNL1        0.0249
     20 H          -0.5447   -0.8690    1.7144 H       1  UNL1        0.0540
     21 H          -0.7776   -0.0034   -1.1755 H       1  UNL1        0.1231
     22 H          -2.9671    1.7220    1.8074 H       1  UNL1        0.0247
     23 H          -1.1730    1.3312    2.0089 H       1  UNL1        0.0247
     24 H          -2.4987    0.0695    2.2895 H       1  UNL1        0.0247
     25 H          -2.9333    2.6351   -0.0335 H       1  UNL1        0.0247
     26 H          -1.2884    2.4172   -0.6986 H       1  UNL1        0.0247
     27 H          -2.7076    1.6238   -1.5679 H       1  UNL1        0.0247
     28 H          -3.1561   -0.9376   -0.9352 H       1  UNL1        0.0247
     29 H          -3.6772   -0.7213    0.8183 H       1  UNL1        0.0247
     30 H          -4.1394    0.4321   -0.4277 H       1  UNL1        0.0247
     31 H           3.6292   -2.0369    0.4523 H       1  UNL1        0.0625
     32 H           5.5851   -0.8638   -0.4831 H       1  UNL1        0.0618
     33 H           5.3480    1.3289   -1.5305 H       1  UNL1        0.0632
     34 H           1.1574    1.1941   -0.6951 H       1  UNL1        0.0639
@<TRIPOS>BOND
     1     1     2    1
     2     2     3    1
     3     3     4    1
     4     4     5    1
     5     4     6    1
     6     4     7    1
     7     2     8    1
     8     8     9    2
     9     8    10    1
    10    10    11   ar
    11    11    12   ar
    12    12    13   ar
    13    13    14   ar
    14    14    15    1
    15    14    16   ar
    16    16    10   ar
    17     1    17    1
    18     1    18    1
    19     1    19    1
    20     2    20    1
    21     3    21    1
    22     5    22    1
    23     5    23    1
    24     5    24    1
    25     6    25    1
    26     6    26    1
    27     6    27    1
    28     7    28    1
    29     7    29    1
    30     7    30    1
    31    11    31    1
    32    12    32    1
    33    13    33    1
    34    16    34    1
