@<TRIPOS>MOLECULE
*****
 75 82 0 0 0
SMALL
GASTEIGER

@<TRIPOS>ATOM
      1 CL        -10.9664    4.0351   -0.8986 Cl      1  UNL1       -0.1171
      2 C         -10.0886    4.1206    0.6501 C.3     1  UNL1        0.0828
      3 C          -9.2641    2.8796    0.7746 C.ar    1  UNL1        0.1525
      4 N          -9.6254    1.7039    1.3314 N.ar    1  UNL1       -0.1324
      5 N          -8.6226    0.8535    1.2489 N.ar    1  UNL1       -0.1287
      6 C          -7.5974    1.4640    0.6382 C.ar    1  UNL1        0.1704
      7 C          -6.3321    0.9728    0.3276 C.ar    1  UNL1        0.0456
      8 C          -5.9381   -0.3145    0.6342 C.ar    1  UNL1       -0.0392
      9 C          -4.6821   -0.7916    0.3219 C.ar    1  UNL1        0.0088
     10 C          -4.2757   -2.1526    0.6486 C.ar    1  UNL1       -0.0158
     11 C          -4.2460   -2.5537    1.9628 C.ar    1  UNL1       -0.0540
     12 C          -3.8661   -3.8413    2.3302 C.ar    1  UNL1       -0.0612
     13 C          -3.5047   -4.7585    1.3638 C.ar    1  UNL1       -0.0617
     14 C          -3.5317   -4.3645    0.0433 C.ar    1  UNL1       -0.0612
     15 C          -3.9147   -3.0693   -0.3146 C.ar    1  UNL1       -0.0540
     16 C          -3.8234    0.0925   -0.3218 C.ar    1  UNL1        0.0794
     17 C          -2.4837   -0.3741   -0.6668 C.ar    1  UNL1        0.0010
     18 C          -1.6214   -0.7357    0.3485 C.ar    1  UNL1       -0.0522
     19 C          -0.3656   -1.1740    0.0283 C.ar    1  UNL1       -0.0567
     20 C           0.0288   -1.2525   -1.2774 C.ar    1  UNL1       -0.0333
     21 C           1.3722   -1.7179   -1.6422 C.3     1  UNL1        0.0240
     22 N           2.3501   -0.7100   -1.7493 N.3     1  UNL1       -0.2981
     23 C           3.6697   -1.0961   -2.0931 C.3     1  UNL1       -0.0001
     24 C           4.5186    0.0656   -2.5213 C.3     1  UNL1       -0.0304
     25 C           4.6606    0.9959   -1.3508 C.3     1  UNL1        0.0212
     26 C           5.6325    0.3750   -0.3930 C.ar    1  UNL1        0.1344
     27 N           5.5213   -0.6974    0.3811 N.ar    1  UNL1       -0.1339
     28 N           6.6666   -0.8413    1.0570 N.ar    1  UNL1       -0.1278
     29 C           7.5088    0.1391    0.7141 C.ar    1  UNL1        0.1800
     30 C           8.8650    0.3461    1.2234 C.ar    1  UNL1        0.1077
     31 C           9.4307   -0.5007    2.1572 C.ar    1  UNL1       -0.0326
     32 C          10.7044   -0.3174    2.6448 C.ar    1  UNL1       -0.0582
     33 C          11.4459    0.7500    2.1860 C.ar    1  UNL1       -0.0436
     34 C          10.8790    1.5938    1.2539 C.ar    1  UNL1        0.0284
     35 N           9.6259    1.3710    0.8071 N.ar    1  UNL1       -0.2519
     36 N           6.8696    0.8908   -0.1822 N.ar    1  UNL1       -0.3237
     37 C           3.3585    1.3005   -0.7391 C.3     1  UNL1       -0.0304
     38 C           2.1689    0.5194   -1.1243 C.3     1  UNL1       -0.0001
     39 C          -0.8153   -0.8956   -2.3309 C.ar    1  UNL1       -0.0567
     40 C          -2.0708   -0.4591   -1.9757 C.ar    1  UNL1       -0.0522
     41 N          -4.2084    1.3559   -0.6234 N.ar    1  UNL1       -0.2459
     42 C          -5.4393    1.8079   -0.3119 C.ar    1  UNL1        0.0766
     43 C          -5.8490    3.0883   -0.6099 C.ar    1  UNL1       -0.0190
     44 C          -7.1215    3.5329   -0.2800 C.ar    1  UNL1        0.0150
     45 N          -7.9960    2.6988    0.3520 N.ar    1  UNL1       -0.2848
     46 H         -10.7835    4.1711    1.5152 H       1  UNL1        0.0510
     47 H          -9.4480    5.0256    0.6234 H       1  UNL1        0.0510
     48 H          -6.6376   -0.9839    1.1404 H       1  UNL1        0.0632
     49 H          -4.5251   -1.8499    2.7327 H       1  UNL1        0.0624
     50 H          -3.8370   -4.1726    3.3543 H       1  UNL1        0.0618
     51 H          -3.2088   -5.7634    1.6586 H       1  UNL1        0.0618
     52 H          -3.2490   -5.0807   -0.7165 H       1  UNL1        0.0618
     53 H          -3.9423   -2.7435   -1.3331 H       1  UNL1        0.0624
     54 H          -1.9555   -0.6664    1.3993 H       1  UNL1        0.0624
     55 H           0.3151   -1.4577    0.8048 H       1  UNL1        0.0621
     56 H           1.6952   -2.4414   -0.8400 H       1  UNL1        0.0476
     57 H           1.3074   -2.3326   -2.5734 H       1  UNL1        0.0476
     58 H           3.6234   -1.8476   -2.9189 H       1  UNL1        0.0427
     59 H           4.1545   -1.6151   -1.2470 H       1  UNL1        0.0427
     60 H           5.5067   -0.2940   -2.8907 H       1  UNL1        0.0284
     61 H           3.9471    0.5677   -3.3489 H       1  UNL1        0.0284
     62 H           5.1103    1.9761   -1.7042 H       1  UNL1        0.0380
     63 H           8.8392   -1.3447    2.5174 H       1  UNL1        0.0640
     64 H          11.1565   -0.9776    3.3777 H       1  UNL1        0.0619
     65 H          12.4677    0.9348    2.5488 H       1  UNL1        0.0633
     66 H          11.4103    2.4535    0.8520 H       1  UNL1        0.0830
     67 H           7.3034    1.7339   -0.6206 H       1  UNL1        0.1686
     68 H           3.1534    2.4087   -0.8538 H       1  UNL1        0.0284
     69 H           3.5102    1.2204    0.3854 H       1  UNL1        0.0284
     70 H           1.5214    1.1702   -1.7871 H       1  UNL1        0.0427
     71 H           1.5206    0.3755   -0.2086 H       1  UNL1        0.0427
     72 H          -0.5096   -0.9557   -3.3610 H       1  UNL1        0.0621
     73 H          -2.8036   -0.1571   -2.7287 H       1  UNL1        0.0624
     74 H          -5.1970    3.7879   -1.1087 H       1  UNL1        0.0654
     75 H          -7.4727    4.5235   -0.4975 H       1  UNL1        0.0814
@<TRIPOS>BOND
     1     1     2    1
     2     2     3    1
     3     3     4   ar
     4     4     5   ar
     5     5     6   ar
     6     6     7   ar
     7     7     8   ar
     8     8     9   ar
     9     9    10    1
    10    10    11   ar
    11    11    12   ar
    12    12    13   ar
    13    13    14   ar
    14    14    15   ar
    15     9    16   ar
    16    16    17    1
    17    17    18   ar
    18    18    19   ar
    19    19    20   ar
    20    20    21    1
    21    21    22    1
    22    22    23    1
    23    23    24    1
    24    24    25    1
    25    25    26    1
    26    26    27   ar
    27    27    28   ar
    28    28    29   ar
    29    29    30    1
    30    30    31   ar
    31    31    32   ar
    32    32    33   ar
    33    33    34   ar
    34    34    35   ar
    35    29    36   ar
    36    25    37    1
    37    37    38    1
    38    20    39   ar
    39    39    40   ar
    40    16    41   ar
    41    41    42   ar
    42    42    43   ar
    43    43    44   ar
    44    44    45   ar
    45    45     3   ar
    46    45     6   ar
    47    42     7   ar
    48    15    10   ar
    49    40    17   ar
    50    38    22    1
    51    36    26   ar
    52    35    30   ar
    53     2    46    1
    54     2    47    1
    55     8    48    1
    56    11    49    1
    57    12    50    1
    58    13    51    1
    59    14    52    1
    60    15    53    1
    61    18    54    1
    62    19    55    1
    63    21    56    1
    64    21    57    1
    65    23    58    1
    66    23    59    1
    67    24    60    1
    68    24    61    1
    69    25    62    1
    70    31    63    1
    71    32    64    1
    72    33    65    1
    73    34    66    1
    74    36    67    1
    75    37    68    1
    76    37    69    1
    77    38    70    1
    78    38    71    1
    79    39    72    1
    80    40    73    1
    81    43    74    1
    82    44    75    1
