
     RDKit          3D

 63 68  0  0  0  0  0  0  0  0999 V2000
    8.3209    1.0181    2.6093 C   0  0  0  0  0  0  0  0  0  0  0  0
    8.3739    1.0291    1.1004 C   0  0  0  0  0  0  0  0  0  0  0  0
    7.2091    0.4397    0.5241 O   0  0  0  0  0  0  0  0  0  0  0  0
    5.9348    0.9273    0.7423 C   0  0  0  0  0  0  0  0  0  0  0  0
    5.8603    1.9527    1.5021 O   0  0  0  0  0  0  0  0  0  0  0  0
    4.7667    0.3744    0.1929 N   0  0  0  0  0  0  0  0  0  0  0  0
    3.3596    0.6713    0.2527 C   0  0  0  0  0  0  0  0  0  0  0  0
    3.2755    0.1352   -1.1599 C   0  0  0  0  0  0  0  0  0  0  0  0
    2.0636   -0.5960   -1.4581 N   0  0  0  0  0  0  0  0  0  0  0  0
    2.0840   -1.7890   -2.0305 N   0  0  0  0  0  0  0  0  0  0  0  0
    0.7976   -2.2203   -2.1817 C   0  0  0  0  0  0  0  0  0  0  0  0
    0.3463   -3.5152   -2.7827 C   0  0  0  0  0  0  0  0  0  0  0  0
   -0.0374   -1.2458   -1.6787 C   0  0  0  0  0  0  0  0  0  0  0  0
    0.7852   -0.2387   -1.2321 C   0  0  0  0  0  0  0  0  0  0  0  0
   -0.0877    0.7990   -0.7057 C   0  0  0  0  0  0  0  0  0  0  0  0
    0.3023    1.8823   -0.2050 O   0  0  0  0  0  0  0  0  0  0  0  0
   -1.4386    0.3822   -0.8534 N   0  0  0  0  0  0  0  0  0  0  0  0
   -2.5852    1.1466   -0.4833 C   0  0  0  0  0  0  0  0  0  0  0  0
   -3.2007    1.9850   -1.4221 C   0  0  0  0  0  0  0  0  0  0  0  0
   -4.2942    2.7336   -1.1011 C   0  0  0  0  0  0  0  0  0  0  0  0
   -4.9619    3.6371   -2.1034 C   0  0  0  0  0  0  0  0  0  0  0  0
   -4.8127    2.6711    0.1717 C   0  0  0  0  0  0  0  0  0  0  0  0
   -5.8655    3.3001    0.7266 N   0  0  0  0  0  0  0  0  0  0  0  0
   -5.9686    2.9129    1.9859 N   0  0  0  0  0  0  0  0  0  0  0  0
   -4.9693    2.0367    2.2084 C   0  0  0  0  0  0  0  0  0  0  0  0
   -4.7506    1.3771    3.5131 C   0  0  0  0  0  0  0  0  0  0  0  0
   -4.2378    1.8721    1.0914 N   0  0  0  0  0  0  0  0  0  0  0  0
   -3.1454    1.1230    0.7742 C   0  0  0  0  0  0  0  0  0  0  0  0
   -1.4758   -0.9177   -1.4505 C   0  0  0  0  0  0  0  0  0  0  0  0
   -2.1463   -1.9550   -0.6431 C   0  0  0  0  0  0  0  0  0  0  0  0
   -1.8198   -2.0698    0.6893 C   0  0  0  0  0  0  0  0  0  0  0  0
   -2.3916   -3.0066    1.5231 C   0  0  0  0  0  0  0  0  0  0  0  0
   -3.3255   -3.8605    1.0025 C   0  0  0  0  0  0  0  0  0  0  0  0
   -4.0481   -5.0463    2.0615 Cl  0  0  0  0  0  0  0  0  0  0  0  0
   -3.6690   -3.7694   -0.3169 C   0  0  0  0  0  0  0  0  0  0  0  0
   -3.0908   -2.8247   -1.1527 C   0  0  0  0  0  0  0  0  0  0  0  0
    4.4297   -0.7267   -0.6713 C   0  0  0  0  0  0  0  0  0  0  0  0
    7.8875    1.9948    2.9271 H   0  0  0  0  0  0  0  0  0  0  0  0
    7.7310    0.1859    2.9992 H   0  0  0  0  0  0  0  0  0  0  0  0
    9.3578    0.9969    3.0286 H   0  0  0  0  0  0  0  0  0  0  0  0
    8.5452    2.0368    0.6856 H   0  0  0  0  0  0  0  0  0  0  0  0
    9.2262    0.3958    0.7711 H   0  0  0  0  0  0  0  0  0  0  0  0
    3.0865    1.7327    0.3679 H   0  0  0  0  0  0  0  0  0  0  0  0
    2.8824   -0.0059    1.0187 H   0  0  0  0  0  0  0  0  0  0  0  0
    3.5854    0.8915   -1.8792 H   0  0  0  0  0  0  0  0  0  0  0  0
    1.2529   -4.1044   -3.0679 H   0  0  0  0  0  0  0  0  0  0  0  0
   -0.2280   -4.1113   -2.0690 H   0  0  0  0  0  0  0  0  0  0  0  0
   -0.1997   -3.3422   -3.7406 H   0  0  0  0  0  0  0  0  0  0  0  0
   -2.7962    2.0391   -2.4293 H   0  0  0  0  0  0  0  0  0  0  0  0
   -4.3414    3.7242   -3.0164 H   0  0  0  0  0  0  0  0  0  0  0  0
   -5.1160    4.6173   -1.6215 H   0  0  0  0  0  0  0  0  0  0  0  0
   -5.9133    3.1653   -2.3820 H   0  0  0  0  0  0  0  0  0  0  0  0
   -3.7284    0.9537    3.5963 H   0  0  0  0  0  0  0  0  0  0  0  0
   -4.9670    2.1214    4.3069 H   0  0  0  0  0  0  0  0  0  0  0  0
   -5.5393    0.5854    3.6277 H   0  0  0  0  0  0  0  0  0  0  0  0
   -2.7295    0.5137    1.5372 H   0  0  0  0  0  0  0  0  0  0  0  0
   -1.9256   -0.8518   -2.4770 H   0  0  0  0  0  0  0  0  0  0  0  0
   -1.0759   -1.3900    1.1049 H   0  0  0  0  0  0  0  0  0  0  0  0
   -2.0953   -3.0541    2.5747 H   0  0  0  0  0  0  0  0  0  0  0  0
   -4.4067   -4.4385   -0.7431 H   0  0  0  0  0  0  0  0  0  0  0  0
   -3.3491   -2.7378   -2.1961 H   0  0  0  0  0  0  0  0  0  0  0  0
    4.1097   -1.5946   -0.0764 H   0  0  0  0  0  0  0  0  0  0  0  0
    5.1600   -0.9487   -1.4727 H   0  0  0  0  0  0  0  0  0  0  0  0
  1  2  1  0
  2  3  1  0
  3  4  1  0
  4  5  2  0
  4  6  1  0
  6  7  1  0
  7  8  1  0
  8  9  1  0
  9 10  1  0
 10 11  2  0
 11 12  1  0
 11 13  1  0
 13 14  2  0
 14 15  1  0
 15 16  2  0
 15 17  1  0
 17 18  1  0
 18 19  1  0
 19 20  2  0
 20 21  1  0
 20 22  1  0
 22 23  2  0
 23 24  1  0
 24 25  2  0
 25 26  1  0
 25 27  1  0
 27 28  1  0
 17 29  1  0
 29 30  1  0
 30 31  2  0
 31 32  1  0
 32 33  2  0
 33 34  1  0
 33 35  1  0
 35 36  2  0
  8 37  1  0
 37  6  1  0
 14  9  1  0
 28 18  2  0
 36 30  1  0
 29 13  1  0
 27 22  1  0
  1 38  1  0
  1 39  1  0
  1 40  1  0
  2 41  1  0
  2 42  1  0
  7 43  1  0
  7 44  1  0
  8 45  1  0
 12 46  1  0
 12 47  1  0
 12 48  1  0
 19 49  1  0
 21 50  1  0
 21 51  1  0
 21 52  1  0
 26 53  1  0
 26 54  1  0
 26 55  1  0
 28 56  1  0
 29 57  1  0
 31 58  1  0
 32 59  1  0
 35 60  1  0
 36 61  1  0
 37 62  1  0
 37 63  1  0
M  END
$$$$
