@<TRIPOS>MOLECULE
*****
 63 68 0 0 0
SMALL
GASTEIGER

@<TRIPOS>ATOM
      1 C           8.3209    1.0181    2.6093 C.3     1  UNL1       -0.0305
      2 C           8.3739    1.0291    1.1004 C.3     1  UNL1        0.0913
      3 O           7.2091    0.4397    0.5241 O.3     1  UNL1       -0.4505
      4 C           5.9348    0.9273    0.7423 C.2     1  UNL1        0.4030
      5 O           5.8603    1.9527    1.5021 O.2     1  UNL1       -0.2263
      6 N           4.7667    0.3744    0.1929 N.am    1  UNL1       -0.2633
      7 C           3.3596    0.6713    0.2527 C.3     1  UNL1        0.0418
      8 C           3.2755    0.1352   -1.1599 C.3     1  UNL1        0.0850
      9 N           2.0636   -0.5960   -1.4581 N.ar    1  UNL1       -0.2526
     10 N           2.0840   -1.7890   -2.0305 N.ar    1  UNL1       -0.1751
     11 C           0.7976   -2.2203   -2.1817 C.ar    1  UNL1        0.0660
     12 C           0.3463   -3.5152   -2.7827 C.3     1  UNL1       -0.0203
     13 C          -0.0374   -1.2458   -1.6787 C.ar    1  UNL1        0.0304
     14 C           0.7852   -0.2387   -1.2321 C.ar    1  UNL1        0.1298
     15 C          -0.0877    0.7990   -0.7057 C.2     1  UNL1        0.2700
     16 O           0.3023    1.8823   -0.2050 O.2     1  UNL1       -0.2679
     17 N          -1.4386    0.3822   -0.8534 N.am    1  UNL1       -0.2531
     18 C          -2.5852    1.1466   -0.4833 C.ar    1  UNL1        0.0545
     19 C          -3.2007    1.9850   -1.4221 C.ar    1  UNL1       -0.0324
     20 C          -4.2942    2.7336   -1.1011 C.ar    1  UNL1       -0.0041
     21 C          -4.9619    3.6371   -2.1034 C.3     1  UNL1       -0.0361
     22 C          -4.8127    2.6711    0.1717 C.ar    1  UNL1        0.1641
     23 N          -5.8655    3.3001    0.7266 N.ar    1  UNL1       -0.1292
     24 N          -5.9686    2.9129    1.9859 N.ar    1  UNL1       -0.1340
     25 C          -4.9693    2.0367    2.2084 C.ar    1  UNL1        0.1347
     26 C          -4.7506    1.3771    3.5131 C.3     1  UNL1       -0.0041
     27 N          -4.2378    1.8721    1.0914 N.ar    1  UNL1       -0.2846
     28 C          -3.1454    1.1230    0.7742 C.ar    1  UNL1        0.0344
     29 C          -1.4758   -0.9177   -1.4505 C.3     1  UNL1        0.0854
     30 C          -2.1463   -1.9550   -0.6431 C.ar    1  UNL1       -0.0221
     31 C          -1.8198   -2.0698    0.6893 C.ar    1  UNL1       -0.0551
     32 C          -2.3916   -3.0066    1.5231 C.ar    1  UNL1       -0.0431
     33 C          -3.3255   -3.8605    1.0025 C.ar    1  UNL1        0.0410
     34 CL         -4.0481   -5.0463    2.0615 Cl      1  UNL1       -0.0835
     35 C          -3.6690   -3.7694   -0.3169 C.ar    1  UNL1       -0.0431
     36 C          -3.0908   -2.8247   -1.1527 C.ar    1  UNL1       -0.0551
     37 C           4.4297   -0.7267   -0.6713 C.3     1  UNL1        0.0418
     38 H           7.8875    1.9948    2.9271 H       1  UNL1        0.0262
     39 H           7.7310    0.1859    2.9992 H       1  UNL1        0.0262
     40 H           9.3578    0.9969    3.0286 H       1  UNL1        0.0262
     41 H           8.5452    2.0368    0.6856 H       1  UNL1        0.0695
     42 H           9.2262    0.3958    0.7711 H       1  UNL1        0.0695
     43 H           3.0865    1.7327    0.3679 H       1  UNL1        0.0487
     44 H           2.8824   -0.0059    1.0187 H       1  UNL1        0.0487
     45 H           3.5854    0.8915   -1.8792 H       1  UNL1        0.0576
     46 H           1.2529   -4.1044   -3.0679 H       1  UNL1        0.0293
     47 H          -0.2280   -4.1113   -2.0690 H       1  UNL1        0.0293
     48 H          -0.1997   -3.3422   -3.7406 H       1  UNL1        0.0293
     49 H          -2.7962    2.0391   -2.4293 H       1  UNL1        0.0640
     50 H          -4.3414    3.7242   -3.0164 H       1  UNL1        0.0279
     51 H          -5.1160    4.6173   -1.6215 H       1  UNL1        0.0279
     52 H          -5.9133    3.1653   -2.3820 H       1  UNL1        0.0279
     53 H          -3.7284    0.9537    3.5963 H       1  UNL1        0.0308
     54 H          -4.9670    2.1214    4.3069 H       1  UNL1        0.0308
     55 H          -5.5393    0.5854    3.6277 H       1  UNL1        0.0308
     56 H          -2.7295    0.5137    1.5372 H       1  UNL1        0.0833
     57 H          -1.9256   -0.8518   -2.4770 H       1  UNL1        0.0606
     58 H          -1.0759   -1.3900    1.1049 H       1  UNL1        0.0621
     59 H          -2.0953   -3.0541    2.5747 H       1  UNL1        0.0632
     60 H          -4.4067   -4.4385   -0.7431 H       1  UNL1        0.0632
     61 H          -3.3491   -2.7378   -2.1961 H       1  UNL1        0.0621
     62 H           4.1097   -1.5946   -0.0764 H       1  UNL1        0.0487
     63 H           5.1600   -0.9487   -1.4727 H       1  UNL1        0.0487
@<TRIPOS>BOND
     1     1     2    1
     2     2     3    1
     3     3     4    1
     4     4     5    2
     5     4     6   am
     6     6     7    1
     7     7     8    1
     8     8     9    1
     9     9    10   ar
    10    10    11   ar
    11    11    12    1
    12    11    13   ar
    13    13    14   ar
    14    14    15    1
    15    15    16    2
    16    15    17   am
    17    17    18    1
    18    18    19   ar
    19    19    20   ar
    20    20    21    1
    21    20    22   ar
    22    22    23   ar
    23    23    24   ar
    24    24    25   ar
    25    25    26    1
    26    25    27   ar
    27    27    28   ar
    28    17    29    1
    29    29    30    1
    30    30    31   ar
    31    31    32   ar
    32    32    33   ar
    33    33    34    1
    34    33    35   ar
    35    35    36   ar
    36     8    37    1
    37    37     6    1
    38    14     9   ar
    39    28    18   ar
    40    36    30   ar
    41    29    13    1
    42    27    22   ar
    43     1    38    1
    44     1    39    1
    45     1    40    1
    46     2    41    1
    47     2    42    1
    48     7    43    1
    49     7    44    1
    50     8    45    1
    51    12    46    1
    52    12    47    1
    53    12    48    1
    54    19    49    1
    55    21    50    1
    56    21    51    1
    57    21    52    1
    58    26    53    1
    59    26    54    1
    60    26    55    1
    61    28    56    1
    62    29    57    1
    63    31    58    1
    64    32    59    1
    65    35    60    1
    66    36    61    1
    67    37    62    1
    68    37    63    1
