@<TRIPOS>MOLECULE
*****
 55 58 0 0 0
SMALL
GASTEIGER

@<TRIPOS>ATOM
      1 C           4.5113    1.4880   -2.2254 C.3     1  UNL1       -0.0500
      2 C           3.8478    1.2782   -0.8602 C.3     1  UNL1        0.0579
      3 C           2.3819    1.1258   -1.0228 C.2     1  UNL1        0.2228
      4 O           1.9135    1.1376   -2.1985 O.2     1  UNL1       -0.2749
      5 N           1.4934    0.9694    0.0622 N.am    1  UNL1       -0.2993
      6 C           2.0029    0.9596    1.4137 C.3     1  UNL1        0.0035
      7 C           0.0994    0.8193   -0.1668 C.3     1  UNL1        0.0439
      8 C          -0.6998    1.8956    0.5353 C.3     1  UNL1       -0.0273
      9 C          -2.0353    1.9553   -0.1729 C.3     1  UNL1       -0.0103
     10 C          -2.6229    0.5913   -0.1079 C.ar    1  UNL1        0.0236
     11 C          -3.9545    0.1972   -0.2570 C.ar    1  UNL1       -0.0083
     12 C          -5.0514    1.1341   -0.5156 C.3     1  UNL1        0.0721
     13 C          -5.4664    1.8938    0.6790 C.2     1  UNL1        0.3091
     14 O          -4.9398    1.7603    1.8117 O.2     1  UNL1       -0.2507
     15 O          -6.4982    2.8122    0.5540 O.3     1  UNL1       -0.4804
     16 C          -4.0106   -1.1723   -0.1165 C.ar    1  UNL1        0.0038
     17 C          -5.0601   -2.0617   -0.1712 C.ar    1  UNL1       -0.0523
     18 C          -4.8677   -3.4236    0.0045 C.ar    1  UNL1       -0.0611
     19 C          -3.5823   -3.8562    0.2368 C.ar    1  UNL1       -0.0598
     20 C          -2.5394   -2.9607    0.2899 C.ar    1  UNL1       -0.0376
     21 C          -2.7251   -1.5990    0.1151 C.ar    1  UNL1        0.0496
     22 N          -1.8973   -0.5172    0.1170 N.ar    1  UNL1       -0.3417
     23 C          -0.4484   -0.5036    0.3237 C.3     1  UNL1        0.0422
     24 C           4.4492    0.0919   -0.1910 C.ar    1  UNL1       -0.0356
     25 C           4.2181   -1.1479   -0.7544 C.ar    1  UNL1       -0.0551
     26 C           4.7700   -2.2566   -0.1491 C.ar    1  UNL1       -0.0262
     27 C           5.5387   -2.1347    0.9967 C.ar    1  UNL1        0.1234
     28 F           6.0530   -3.2614    1.5436 F       1  UNL1       -0.2055
     29 C           5.7640   -0.8938    1.5518 C.ar    1  UNL1       -0.0262
     30 C           5.2167    0.2180    0.9541 C.ar    1  UNL1       -0.0551
     31 H           5.4401    2.0442   -2.0322 H       1  UNL1        0.0240
     32 H           4.7035    0.4980   -2.7091 H       1  UNL1        0.0240
     33 H           3.8390    2.1293   -2.8194 H       1  UNL1        0.0240
     34 H           4.0662    2.1629   -0.2535 H       1  UNL1        0.0440
     35 H           2.8125    1.7059    1.5462 H       1  UNL1        0.0429
     36 H           1.1693    1.1644    2.1214 H       1  UNL1        0.0429
     37 H           2.4241   -0.0258    1.6959 H       1  UNL1        0.0429
     38 H          -0.1331    0.8477   -1.2719 H       1  UNL1        0.0518
     39 H          -0.1884    2.8754    0.5470 H       1  UNL1        0.0287
     40 H          -0.9244    1.5280    1.5784 H       1  UNL1        0.0287
     41 H          -1.8008    2.1700   -1.2478 H       1  UNL1        0.0328
     42 H          -2.7041    2.7175    0.2748 H       1  UNL1        0.0328
     43 H          -5.9092    0.6639   -1.0606 H       1  UNL1        0.0427
     44 H          -4.6610    1.9032   -1.2461 H       1  UNL1        0.0427
     45 H          -6.9914    3.1671    1.3638 H       1  UNL1        0.2951
     46 H          -6.0330   -1.6790   -0.3527 H       1  UNL1        0.0624
     47 H          -5.7204   -4.0857   -0.0466 H       1  UNL1        0.0618
     48 H          -3.4360   -4.9215    0.3740 H       1  UNL1        0.0618
     49 H          -1.5511   -3.3471    0.4743 H       1  UNL1        0.0638
     50 H          -0.1816   -0.6838    1.3847 H       1  UNL1        0.0510
     51 H          -0.0301   -1.3314   -0.2847 H       1  UNL1        0.0510
     52 H           3.6085   -1.2377   -1.6614 H       1  UNL1        0.0621
     53 H           4.5888   -3.2332   -0.5908 H       1  UNL1        0.0646
     54 H           6.3559   -0.7782    2.4379 H       1  UNL1        0.0646
     55 H           5.3959    1.2073    1.3953 H       1  UNL1        0.0621
@<TRIPOS>BOND
     1     1     2    1
     2     2     3    1
     3     3     4    2
     4     3     5   am
     5     5     6    1
     6     5     7    1
     7     7     8    1
     8     8     9    1
     9     9    10    1
    10    10    11   ar
    11    11    12    1
    12    12    13    1
    13    13    14    2
    14    13    15    1
    15    11    16   ar
    16    16    17   ar
    17    17    18   ar
    18    18    19   ar
    19    19    20   ar
    20    20    21   ar
    21    21    22   ar
    22    22    23    1
    23     2    24    1
    24    24    25   ar
    25    25    26   ar
    26    26    27   ar
    27    27    28    1
    28    27    29   ar
    29    29    30   ar
    30    23     7    1
    31    30    24   ar
    32    22    10   ar
    33    21    16   ar
    34     1    31    1
    35     1    32    1
    36     1    33    1
    37     2    34    1
    38     6    35    1
    39     6    36    1
    40     6    37    1
    41     7    38    1
    42     8    39    1
    43     8    40    1
    44     9    41    1
    45     9    42    1
    46    12    43    1
    47    12    44    1
    48    15    45    1
    49    17    46    1
    50    18    47    1
    51    19    48    1
    52    20    49    1
    53    23    50    1
    54    23    51    1
    55    25    52    1
    56    26    53    1
    57    29    54    1
    58    30    55    1
