@<TRIPOS>MOLECULE
*****
 55 59 0 0 0
SMALL
GASTEIGER

@<TRIPOS>ATOM
      1 O           3.3554    3.1883    2.3254 O.2     1  UNL1       -0.2817
      2 C           3.6521    2.0405    1.8916 C.2     1  UNL1        0.2496
      3 C           4.9569    1.5118    1.5439 C.2     1  UNL1        0.2915
      4 O           6.0466    2.1145    1.6145 O.2     1  UNL1       -0.2661
      5 N           4.7761    0.1662    1.1015 N.am    1  UNL1       -0.2597
      6 C           5.8632   -0.7103    0.6757 C.3     1  UNL1        0.0480
      7 C           6.1364   -0.5800   -0.7750 C.ar    1  UNL1        0.0055
      8 C           5.7972    0.5482   -1.4940 C.ar    1  UNL1       -0.0543
      9 C           6.1030    0.5791   -2.8280 C.ar    1  UNL1       -0.0613
     10 C           6.7409   -0.4924   -3.4645 C.ar    1  UNL1       -0.0590
     11 C           7.0784   -1.6176   -2.7465 C.ar    1  UNL1       -0.0261
     12 C           6.7649   -1.6379   -1.3982 C.ar    1  UNL1        0.1281
     13 F           7.1121   -2.7640   -0.7104 F       1  UNL1       -0.2051
     14 C           3.3878   -0.0998    1.1852 C.ar    1  UNL1        0.0481
     15 C           2.6655   -1.2625    0.8859 C.ar    1  UNL1       -0.0377
     16 C           1.2992   -1.2860    1.0611 C.ar    1  UNL1       -0.0335
     17 C           0.5804   -0.2126    1.5225 C.ar    1  UNL1        0.1063
     18 S          -1.1736   -0.2611    1.7615 S.O2    1  UNL1        0.0612
     19 O          -1.5733   -1.6253    2.2488 O.2     1  UNL1       -0.1528
     20 O          -1.5219    0.6734    2.9090 O.2     1  UNL1       -0.1528
     21 N          -1.9637    0.1626    0.3312 N.3     1  UNL1       -0.1702
     22 C          -1.7019   -0.7265   -0.7663 C.3     1  UNL1        0.0225
     23 C          -2.9709   -1.4783   -0.3550 C.3     1  UNL1       -0.0180
     24 C          -3.3606   -0.0930    0.1892 C.3     1  UNL1        0.0671
     25 C          -4.1597   -0.1388    1.4481 C.3     1  UNL1        0.1067
     26 O          -5.5006   -0.3667    1.2387 O.3     1  UNL1       -0.4904
     27 C          -6.4704    0.3443    0.5971 C.ar    1  UNL1        0.1206
     28 C          -7.7718   -0.1970    0.5452 C.ar    1  UNL1       -0.0199
     29 C          -8.7714    0.4917   -0.0895 C.ar    1  UNL1       -0.0583
     30 C          -8.5503    1.7089   -0.6870 C.ar    1  UNL1       -0.0615
     31 C          -7.2906    2.2790   -0.6606 C.ar    1  UNL1       -0.0583
     32 C          -6.2925    1.5625   -0.0103 C.ar    1  UNL1       -0.0199
     33 C           1.2896    0.9478    1.8221 C.ar    1  UNL1       -0.0226
     34 C           2.6689    0.9636    1.6438 C.ar    1  UNL1        0.0502
     35 H           5.5622   -1.7754    0.8495 H       1  UNL1        0.0519
     36 H           6.7804   -0.5421    1.3021 H       1  UNL1        0.0519
     37 H           5.3064    1.3371   -0.9384 H       1  UNL1        0.0622
     38 H           5.8314    1.4721   -3.3884 H       1  UNL1        0.0618
     39 H           6.9595   -0.4155   -4.5147 H       1  UNL1        0.0618
     40 H           7.5760   -2.4725   -3.2039 H       1  UNL1        0.0646
     41 H           3.2349   -2.1058    0.5232 H       1  UNL1        0.0637
     42 H           0.7728   -2.2197    0.8209 H       1  UNL1        0.0638
     43 H          -0.7712   -1.3229   -0.7218 H       1  UNL1        0.0444
     44 H          -1.8192   -0.1950   -1.7446 H       1  UNL1        0.0444
     45 H          -3.5960   -1.7793   -1.2268 H       1  UNL1        0.0295
     46 H          -2.7510   -2.2368    0.3864 H       1  UNL1        0.0295
     47 H          -3.7750    0.4807   -0.6376 H       1  UNL1        0.0514
     48 H          -3.7835   -0.9446    2.1259 H       1  UNL1        0.0713
     49 H          -4.0840    0.8560    1.9900 H       1  UNL1        0.0713
     50 H          -7.9277   -1.1739    1.0311 H       1  UNL1        0.0654
     51 H          -9.7532    0.0111   -0.0898 H       1  UNL1        0.0619
     52 H          -9.3683    2.2151   -1.1760 H       1  UNL1        0.0618
     53 H          -7.0705    3.2449   -1.1260 H       1  UNL1        0.0619
     54 H          -5.2897    2.0286    0.0301 H       1  UNL1        0.0654
     55 H           0.7643    1.8052    2.1849 H       1  UNL1        0.0645
@<TRIPOS>BOND
     1     1     2    2
     2     2     3    1
     3     3     4    2
     4     3     5   am
     5     5     6    1
     6     6     7    1
     7     7     8   ar
     8     8     9   ar
     9     9    10   ar
    10    10    11   ar
    11    11    12   ar
    12    12    13    1
    13     5    14    1
    14    14    15   ar
    15    15    16   ar
    16    16    17   ar
    17    17    18    1
    18    18    19    2
    19    18    20    2
    20    18    21    1
    21    21    22    1
    22    22    23    1
    23    23    24    1
    24    24    25    1
    25    25    26    1
    26    26    27    1
    27    27    28   ar
    28    28    29   ar
    29    29    30   ar
    30    30    31   ar
    31    31    32   ar
    32    17    33   ar
    33    33    34   ar
    34    34     2    1
    35    12     7   ar
    36    34    14   ar
    37    24    21    1
    38    32    27   ar
    39     6    35    1
    40     6    36    1
    41     8    37    1
    42     9    38    1
    43    10    39    1
    44    11    40    1
    45    15    41    1
    46    16    42    1
    47    22    43    1
    48    22    44    1
    49    23    45    1
    50    23    46    1
    51    24    47    1
    52    25    48    1
    53    25    49    1
    54    28    50    1
    55    29    51    1
    56    30    52    1
    57    31    53    1
    58    32    54    1
    59    33    55    1
