
     RDKit          3D

 55 59  0  0  0  0  0  0  0  0999 V2000
    3.3554    3.1883    2.3254 O   0  0  0  0  0  0  0  0  0  0  0  0
    3.6521    2.0405    1.8916 C   0  0  0  0  0  0  0  0  0  0  0  0
    4.9569    1.5118    1.5439 C   0  0  0  0  0  0  0  0  0  0  0  0
    6.0466    2.1145    1.6145 O   0  0  0  0  0  0  0  0  0  0  0  0
    4.7761    0.1662    1.1015 N   0  0  0  0  0  0  0  0  0  0  0  0
    5.8632   -0.7103    0.6757 C   0  0  0  0  0  0  0  0  0  0  0  0
    6.1364   -0.5800   -0.7750 C   0  0  0  0  0  0  0  0  0  0  0  0
    5.7972    0.5482   -1.4940 C   0  0  0  0  0  0  0  0  0  0  0  0
    6.1030    0.5791   -2.8280 C   0  0  0  0  0  0  0  0  0  0  0  0
    6.7409   -0.4924   -3.4645 C   0  0  0  0  0  0  0  0  0  0  0  0
    7.0784   -1.6176   -2.7465 C   0  0  0  0  0  0  0  0  0  0  0  0
    6.7649   -1.6379   -1.3982 C   0  0  0  0  0  0  0  0  0  0  0  0
    7.1121   -2.7640   -0.7104 F   0  0  0  0  0  0  0  0  0  0  0  0
    3.3878   -0.0998    1.1852 C   0  0  0  0  0  0  0  0  0  0  0  0
    2.6655   -1.2625    0.8859 C   0  0  0  0  0  0  0  0  0  0  0  0
    1.2992   -1.2860    1.0611 C   0  0  0  0  0  0  0  0  0  0  0  0
    0.5804   -0.2126    1.5225 C   0  0  0  0  0  0  0  0  0  0  0  0
   -1.1736   -0.2611    1.7615 S   0  0  0  0  0  6  0  0  0  0  0  0
   -1.5733   -1.6253    2.2488 O   0  0  0  0  0  0  0  0  0  0  0  0
   -1.5219    0.6734    2.9090 O   0  0  0  0  0  0  0  0  0  0  0  0
   -1.9637    0.1626    0.3312 N   0  0  0  0  0  0  0  0  0  0  0  0
   -1.7019   -0.7265   -0.7663 C   0  0  0  0  0  0  0  0  0  0  0  0
   -2.9709   -1.4783   -0.3550 C   0  0  0  0  0  0  0  0  0  0  0  0
   -3.3606   -0.0930    0.1892 C   0  0  1  0  0  0  0  0  0  0  0  0
   -4.1597   -0.1388    1.4481 C   0  0  0  0  0  0  0  0  0  0  0  0
   -5.5006   -0.3667    1.2387 O   0  0  0  0  0  0  0  0  0  0  0  0
   -6.4704    0.3443    0.5971 C   0  0  0  0  0  0  0  0  0  0  0  0
   -7.7718   -0.1970    0.5452 C   0  0  0  0  0  0  0  0  0  0  0  0
   -8.7714    0.4917   -0.0895 C   0  0  0  0  0  0  0  0  0  0  0  0
   -8.5503    1.7089   -0.6870 C   0  0  0  0  0  0  0  0  0  0  0  0
   -7.2906    2.2790   -0.6606 C   0  0  0  0  0  0  0  0  0  0  0  0
   -6.2925    1.5625   -0.0103 C   0  0  0  0  0  0  0  0  0  0  0  0
    1.2896    0.9478    1.8221 C   0  0  0  0  0  0  0  0  0  0  0  0
    2.6689    0.9636    1.6438 C   0  0  0  0  0  0  0  0  0  0  0  0
    5.5622   -1.7754    0.8495 H   0  0  0  0  0  0  0  0  0  0  0  0
    6.7804   -0.5421    1.3021 H   0  0  0  0  0  0  0  0  0  0  0  0
    5.3064    1.3371   -0.9384 H   0  0  0  0  0  0  0  0  0  0  0  0
    5.8314    1.4721   -3.3884 H   0  0  0  0  0  0  0  0  0  0  0  0
    6.9595   -0.4155   -4.5147 H   0  0  0  0  0  0  0  0  0  0  0  0
    7.5760   -2.4725   -3.2039 H   0  0  0  0  0  0  0  0  0  0  0  0
    3.2349   -2.1058    0.5232 H   0  0  0  0  0  0  0  0  0  0  0  0
    0.7728   -2.2197    0.8209 H   0  0  0  0  0  0  0  0  0  0  0  0
   -0.7712   -1.3229   -0.7218 H   0  0  0  0  0  0  0  0  0  0  0  0
   -1.8192   -0.1950   -1.7446 H   0  0  0  0  0  0  0  0  0  0  0  0
   -3.5960   -1.7793   -1.2268 H   0  0  0  0  0  0  0  0  0  0  0  0
   -2.7510   -2.2368    0.3864 H   0  0  0  0  0  0  0  0  0  0  0  0
   -3.7750    0.4807   -0.6376 H   0  0  0  0  0  0  0  0  0  0  0  0
   -3.7835   -0.9446    2.1259 H   0  0  0  0  0  0  0  0  0  0  0  0
   -4.0840    0.8560    1.9900 H   0  0  0  0  0  0  0  0  0  0  0  0
   -7.9277   -1.1739    1.0311 H   0  0  0  0  0  0  0  0  0  0  0  0
   -9.7532    0.0111   -0.0898 H   0  0  0  0  0  0  0  0  0  0  0  0
   -9.3683    2.2151   -1.1760 H   0  0  0  0  0  0  0  0  0  0  0  0
   -7.0705    3.2449   -1.1260 H   0  0  0  0  0  0  0  0  0  0  0  0
   -5.2897    2.0286    0.0301 H   0  0  0  0  0  0  0  0  0  0  0  0
    0.7643    1.8052    2.1849 H   0  0  0  0  0  0  0  0  0  0  0  0
  1  2  2  0
  2  3  1  0
  3  4  2  0
  3  5  1  0
  5  6  1  0
  6  7  1  0
  7  8  2  0
  8  9  1  0
  9 10  2  0
 10 11  1  0
 11 12  2  0
 12 13  1  0
  5 14  1  0
 14 15  2  0
 15 16  1  0
 16 17  2  0
 17 18  1  0
 18 19  2  0
 18 20  2  0
 18 21  1  0
 21 22  1  0
 22 23  1  0
 23 24  1  0
 24 25  1  0
 25 26  1  0
 26 27  1  0
 27 28  2  0
 28 29  1  0
 29 30  2  0
 30 31  1  0
 31 32  2  0
 17 33  1  0
 33 34  2  0
 34  2  1  0
 12  7  1  0
 34 14  1  0
 24 21  1  0
 32 27  1  0
  6 35  1  0
  6 36  1  0
  8 37  1  0
  9 38  1  0
 10 39  1  0
 11 40  1  0
 15 41  1  0
 16 42  1  0
 22 43  1  0
 22 44  1  0
 23 45  1  0
 23 46  1  0
 24 47  1  6
 25 48  1  0
 25 49  1  0
 28 50  1  0
 29 51  1  0
 30 52  1  0
 31 53  1  0
 32 54  1  0
 33 55  1  0
M  END
$$$$
