@<TRIPOS>MOLECULE
*****
 43 45 0 0 0
SMALL
GASTEIGER

@<TRIPOS>ATOM
      1 C           6.4412   -2.8356    1.7195 C.1     1  UNL1       -0.1179
      2 C           5.5828   -2.0552    1.3068 C.1     1  UNL1       -0.0900
      3 C           4.5650   -1.1293    0.8139 C.3     1  UNL1        0.0607
      4 N           5.0811   -0.5201   -0.3803 N.3     1  UNL1       -0.2890
      5 C           5.2144   -1.4356   -1.4787 C.3     1  UNL1       -0.0115
      6 C           4.4459    0.7158   -0.7248 C.3     1  UNL1        0.0397
      7 C           3.0084    0.6026   -0.9890 C.ar    1  UNL1        0.0312
      8 C           2.0292    0.7404   -0.0406 C.ar    1  UNL1       -0.0320
      9 C           0.8027    0.5696   -0.6384 C.ar    1  UNL1        0.0034
     10 C          -0.5089    0.5952   -0.1919 C.ar    1  UNL1       -0.0108
     11 C          -1.5786    0.3854   -1.0270 C.ar    1  UNL1        0.1217
     12 O          -2.8961    0.4058   -0.6071 O.3     1  UNL1       -0.4874
     13 C          -3.1734    0.6571    0.7560 C.3     1  UNL1        0.1146
     14 C          -4.6329    0.6405    1.0259 C.ar    1  UNL1       -0.0104
     15 C          -5.2860   -0.5320    1.3738 C.ar    1  UNL1       -0.0554
     16 C          -6.6352   -0.5287    1.6225 C.ar    1  UNL1       -0.0614
     17 C          -7.4065    0.6266    1.5411 C.ar    1  UNL1       -0.0617
     18 C          -6.7607    1.7980    1.1949 C.ar    1  UNL1       -0.0614
     19 C          -5.4053    1.7788    0.9482 C.ar    1  UNL1       -0.0554
     20 C          -1.3193    0.1395   -2.3683 C.ar    1  UNL1       -0.0180
     21 C          -0.0172    0.1135   -2.8136 C.ar    1  UNL1       -0.0343
     22 C           1.0361    0.3276   -1.9519 C.ar    1  UNL1        0.0469
     23 N           2.3849    0.3514   -2.1480 N.ar    1  UNL1       -0.3569
     24 H           7.1656   -3.4981    2.0496 H       1  UNL1        0.1228
     25 H           3.6123   -1.6402    0.6942 H       1  UNL1        0.0563
     26 H           4.4883   -0.3073    1.5798 H       1  UNL1        0.0563
     27 H           4.2733   -1.9690   -1.7175 H       1  UNL1        0.0391
     28 H           5.9422   -2.2172   -1.1752 H       1  UNL1        0.0391
     29 H           5.6598   -0.8956   -2.3289 H       1  UNL1        0.0391
     30 H           4.6166    1.4171    0.1389 H       1  UNL1        0.0490
     31 H           5.0069    1.1707   -1.5728 H       1  UNL1        0.0490
     32 H           2.1627    0.9476    1.0057 H       1  UNL1        0.0642
     33 H          -0.6880    0.7876    0.8520 H       1  UNL1        0.0661
     34 H          -2.7786    1.6827    0.9553 H       1  UNL1        0.0748
     35 H          -2.7048   -0.1125    1.3706 H       1  UNL1        0.0748
     36 H          -4.6739   -1.4341    1.4348 H       1  UNL1        0.0621
     37 H          -7.1475   -1.4382    1.8934 H       1  UNL1        0.0618
     38 H          -8.4650    0.6159    1.7389 H       1  UNL1        0.0618
     39 H          -7.3559    2.7028    1.1296 H       1  UNL1        0.0618
     40 H          -4.9019    2.6986    0.6780 H       1  UNL1        0.0621
     41 H          -2.1347   -0.0333   -3.0672 H       1  UNL1        0.0655
     42 H           0.1531   -0.0816   -3.8687 H       1  UNL1        0.0639
     43 H           2.7977    0.1924   -3.0769 H       1  UNL1        0.1656
@<TRIPOS>BOND
     1     1     2    3
     2     2     3    1
     3     3     4    1
     4     4     5    1
     5     4     6    1
     6     6     7    1
     7     7     8   ar
     8     8     9   ar
     9     9    10   ar
    10    10    11   ar
    11    11    12    1
    12    12    13    1
    13    13    14    1
    14    14    15   ar
    15    15    16   ar
    16    16    17   ar
    17    17    18   ar
    18    18    19   ar
    19    11    20   ar
    20    20    21   ar
    21    21    22   ar
    22    22    23   ar
    23    23     7   ar
    24    22     9   ar
    25    19    14   ar
    26     1    24    1
    27     3    25    1
    28     3    26    1
    29     5    27    1
    30     5    28    1
    31     5    29    1
    32     6    30    1
    33     6    31    1
    34     8    32    1
    35    10    33    1
    36    13    34    1
    37    13    35    1
    38    15    36    1
    39    16    37    1
    40    17    38    1
    41    18    39    1
    42    19    40    1
    43    20    41    1
    44    21    42    1
    45    23    43    1
