
     RDKit          3D

 61 64  0  0  0  0  0  0  0  0999 V2000
    9.2992   -0.4923   -0.1927 C   0  0  0  0  0  0  0  0  0  0  0  0
    8.4074   -1.1250   -1.2445 C   0  0  0  0  0  0  0  0  0  0  0  0
    7.0536   -1.2700   -0.7180 N   0  0  0  0  0  0  0  0  0  0  0  0
    6.4864   -2.3664   -0.0088 C   0  0  0  0  0  0  0  0  0  0  0  0
    7.1778   -3.2903    0.4782 O   0  0  0  0  0  0  0  0  0  0  0  0
    4.9960   -2.1915    0.0275 C   0  0  0  0  0  0  0  0  0  0  0  0
    4.8918   -0.7679   -0.2240 N   0  0  0  0  0  0  0  0  0  0  0  0
    3.7721    0.0418    0.1069 C   0  0  0  0  0  0  0  0  0  0  0  0
    2.7253    0.2276   -0.7948 C   0  0  0  0  0  0  0  0  0  0  0  0
    1.6572    1.0219   -0.4424 C   0  0  0  0  0  0  0  0  0  0  0  0
    1.5752    1.6610    0.8019 C   0  0  0  0  0  0  0  0  0  0  0  0
    0.3912    2.4999    1.0481 C   0  0  0  0  0  0  0  0  0  0  0  0
   -0.8525    1.7487    1.3197 C   0  0  0  0  0  0  0  0  0  0  0  0
   -1.7671    1.5878    0.2689 C   0  0  0  0  0  0  0  0  0  0  0  0
   -2.9133    0.8987    0.4550 C   0  0  0  0  0  0  0  0  0  0  0  0
   -3.9313    0.6817   -0.6208 C   0  0  2  0  0  0  0  0  0  0  0  0
   -5.1602    0.9795   -0.0582 O   0  0  0  0  0  0  0  0  0  0  0  0
   -6.2255    0.5812   -0.8604 C   0  0  2  0  0  0  0  0  0  0  0  0
   -7.5031    1.0929   -0.2643 C   0  0  0  0  0  0  0  0  0  0  0  0
   -7.6347    0.5568    1.0148 O   0  0  0  0  0  0  0  0  0  0  0  0
   -6.2085   -0.9448   -0.8041 C   0  0  1  0  0  0  0  0  0  0  0  0
   -7.3871   -1.5096   -1.2316 O   0  0  0  0  0  0  0  0  0  0  0  0
   -5.0203   -1.3515   -1.6488 C   0  0  2  0  0  0  0  0  0  0  0  0
   -4.8592   -2.7503   -1.6208 O   0  0  0  0  0  0  0  0  0  0  0  0
   -3.7938   -0.7444   -1.0607 C   0  0  1  0  0  0  0  0  0  0  0  0
   -2.7583   -0.8118   -1.9897 O   0  0  0  0  0  0  0  0  0  0  0  0
   -3.1732    0.3472    1.7159 C   0  0  0  0  0  0  0  0  0  0  0  0
   -2.2940    0.4928    2.7543 C   0  0  0  0  0  0  0  0  0  0  0  0
   -1.1261    1.2051    2.5340 C   0  0  0  0  0  0  0  0  0  0  0  0
    0.0317    1.4343    3.8521 Cl  0  0  0  0  0  0  0  0  0  0  0  0
    2.6231    1.4492    1.6498 C   0  0  0  0  0  0  0  0  0  0  0  0
    3.7123    0.6633    1.3415 C   0  0  0  0  0  0  0  0  0  0  0  0
    6.0685   -0.2773   -0.8532 C   0  0  0  0  0  0  0  0  0  0  0  0
    6.1921    0.8296   -1.4169 O   0  0  0  0  0  0  0  0  0  0  0  0
    8.8568   -0.5655    0.8190 H   0  0  0  0  0  0  0  0  0  0  0  0
   10.2621   -1.0570   -0.1684 H   0  0  0  0  0  0  0  0  0  0  0  0
    9.5462    0.5481   -0.4337 H   0  0  0  0  0  0  0  0  0  0  0  0
    8.7822   -2.1410   -1.4848 H   0  0  0  0  0  0  0  0  0  0  0  0
    8.3853   -0.5193   -2.1673 H   0  0  0  0  0  0  0  0  0  0  0  0
    4.5636   -2.4122    1.0032 H   0  0  0  0  0  0  0  0  0  0  0  0
    4.5361   -2.7932   -0.7809 H   0  0  0  0  0  0  0  0  0  0  0  0
    2.7588   -0.2544   -1.7671 H   0  0  0  0  0  0  0  0  0  0  0  0
    0.8611    1.1526   -1.1504 H   0  0  0  0  0  0  0  0  0  0  0  0
    0.6008    3.0921    1.9879 H   0  0  0  0  0  0  0  0  0  0  0  0
    0.2504    3.2826    0.2727 H   0  0  0  0  0  0  0  0  0  0  0  0
   -1.5430    2.0208   -0.6879 H   0  0  0  0  0  0  0  0  0  0  0  0
   -3.6807    1.3838   -1.4422 H   0  0  0  0  0  0  0  0  0  0  0  0
   -6.0856    0.8891   -1.9151 H   0  0  0  0  0  0  0  0  0  0  0  0
   -7.4064    2.2116   -0.2022 H   0  0  0  0  0  0  0  0  0  0  0  0
   -8.3911    0.8685   -0.8951 H   0  0  0  0  0  0  0  0  0  0  0  0
   -7.0192    1.0716    1.6083 H   0  0  0  0  0  0  0  0  0  0  0  0
   -5.9494   -1.2288    0.2584 H   0  0  0  0  0  0  0  0  0  0  0  0
   -8.1168   -1.1375   -0.6765 H   0  0  0  0  0  0  0  0  0  0  0  0
   -5.2187   -1.0438   -2.6879 H   0  0  0  0  0  0  0  0  0  0  0  0
   -5.6217   -3.1884   -1.1629 H   0  0  0  0  0  0  0  0  0  0  0  0
   -3.4883   -1.3879   -0.1944 H   0  0  0  0  0  0  0  0  0  0  0  0
   -1.9491   -1.2187   -1.5950 H   0  0  0  0  0  0  0  0  0  0  0  0
   -4.0816   -0.2047    1.8805 H   0  0  0  0  0  0  0  0  0  0  0  0
   -2.4554    0.0874    3.7309 H   0  0  0  0  0  0  0  0  0  0  0  0
    2.6217    1.9242    2.6126 H   0  0  0  0  0  0  0  0  0  0  0  0
    4.5291    0.5123    2.0335 H   0  0  0  0  0  0  0  0  0  0  0  0
  1  2  1  0
  2  3  1  0
  3  4  1  0
  4  5  2  0
  4  6  1  0
  6  7  1  0
  7  8  1  0
  8  9  2  0
  9 10  1  0
 10 11  2  0
 11 12  1  0
 12 13  1  0
 13 14  2  0
 14 15  1  0
 15 16  1  0
 16 17  1  0
 17 18  1  0
 18 19  1  0
 19 20  1  0
 18 21  1  0
 21 22  1  0
 21 23  1  0
 23 24  1  0
 23 25  1  0
 25 26  1  0
 15 27  2  0
 27 28  1  0
 28 29  2  0
 29 30  1  0
 11 31  1  0
 31 32  2  0
  7 33  1  0
 33 34  2  0
 33  3  1  0
 32  8  1  0
 29 13  1  0
 25 16  1  0
  1 35  1  0
  1 36  1  0
  1 37  1  0
  2 38  1  0
  2 39  1  0
  6 40  1  0
  6 41  1  0
  9 42  1  0
 10 43  1  0
 12 44  1  0
 12 45  1  0
 14 46  1  0
 16 47  1  6
 18 48  1  6
 19 49  1  0
 19 50  1  0
 20 51  1  0
 21 52  1  1
 22 53  1  0
 23 54  1  6
 24 55  1  0
 25 56  1  1
 26 57  1  0
 27 58  1  0
 28 59  1  0
 31 60  1  0
 32 61  1  0
M  END
$$$$
