@<TRIPOS>MOLECULE
*****
 69 74 0 0 0
SMALL
GASTEIGER

@<TRIPOS>ATOM
      1 C          11.9297    0.5669   -1.1119 C.3     1  UNL1        0.0371
      2 O          10.5954    0.9576   -1.1442 O.3     1  UNL1       -0.3736
      3 C          10.1794    1.2283    0.1725 C.3     1  UNL1        0.1258
      4 C           8.7559    1.6406    0.0852 C.ar    1  UNL1        0.2534
      5 N           7.6677    0.8346    0.1541 N.ar    1  UNL1       -0.1894
      6 C           6.5723    1.5854    0.0346 C.ar    1  UNL1        0.2021
      7 C           5.1856    1.1251    0.0555 C.ar    1  UNL1        0.0226
      8 C           4.4963    0.9893    1.2572 C.ar    1  UNL1       -0.0492
      9 C           3.1916    0.5538    1.2410 C.ar    1  UNL1       -0.0391
     10 C           2.5046    0.2355    0.0909 C.ar    1  UNL1        0.0455
     11 N           1.1433   -0.2162    0.1295 N.am    1  UNL1       -0.1920
     12 C           0.6809   -1.5571    0.2346 C.2     1  UNL1        0.3219
     13 O           1.4530   -2.5588    0.3067 O.2     1  UNL1       -0.2512
     14 N          -0.7524   -1.6075    0.2467 N.am    1  UNL1       -0.2240
     15 C          -1.5710   -2.7059    0.6217 C.ar    1  UNL1        0.1364
     16 C          -1.9533   -2.8049    1.9405 C.ar    1  UNL1        0.0432
     17 C          -2.7475   -3.8772    2.2989 C.ar    1  UNL1        0.2531
     18 O          -3.0946   -3.9649    3.5032 O.2     1  UNL1       -0.2678
     19 N          -3.1424   -4.8023    1.4004 N.ar    1  UNL1       -0.3133
     20 C          -2.7564   -4.6841    0.1184 C.ar    1  UNL1        0.0981
     21 N          -1.9718   -3.6333   -0.2585 N.ar    1  UNL1       -0.2220
     22 C          -1.2161   -0.2934   -0.2020 C.3     1  UNL1        0.1240
     23 C          -2.3483    0.2109    0.6377 C.3     1  UNL1       -0.0095
     24 C          -3.2471    1.1046   -0.1746 C.3     1  UNL1        0.0017
     25 N          -3.9537    0.3527   -1.1908 N.3     1  UNL1       -0.2965
     26 C          -5.0435   -0.3486   -0.5807 C.3     1  UNL1        0.0415
     27 C          -5.9949    0.5577    0.0830 C.ar    1  UNL1        0.0581
     28 N          -6.0184    0.6948    1.4200 N.ar    1  UNL1       -0.2583
     29 C          -6.9023    1.5366    2.0281 C.ar    1  UNL1        0.0279
     30 C          -7.8018    2.2758    1.2925 C.ar    1  UNL1       -0.0433
     31 C          -7.7979    2.1525   -0.0884 C.ar    1  UNL1       -0.0557
     32 C          -6.8754    1.2786   -0.6662 C.ar    1  UNL1       -0.0279
     33 C          -6.8927    1.1649   -2.1407 C.3     1  UNL1       -0.0380
     34 C          -3.0732   -0.5276   -1.8895 C.3     1  UNL1        0.0017
     35 C          -1.6103   -0.2733   -1.6394 C.3     1  UNL1       -0.0095
     36 C          -0.0351    0.5815    0.0745 C.2     1  UNL1        0.2516
     37 O          -0.0318    1.8236    0.2390 O.2     1  UNL1       -0.2724
     38 C           3.2061    0.3770   -1.0912 C.ar    1  UNL1       -0.0391
     39 C           4.5185    0.8127   -1.1030 C.ar    1  UNL1       -0.0492
     40 N           7.0060    2.8514   -0.1072 N.ar    1  UNL1       -0.0560
     41 O           8.3232    2.8579   -0.0734 O.2     1  UNL1       -0.3353
     42 H          12.0430   -0.3439   -0.4887 H       1  UNL1        0.0524
     43 H          12.1990    0.3111   -2.1725 H       1  UNL1        0.0524
     44 H          12.5367    1.4130   -0.7528 H       1  UNL1        0.0524
     45 H          10.7640    2.0564    0.6190 H       1  UNL1        0.0659
     46 H          10.2380    0.3070    0.8059 H       1  UNL1        0.0659
     47 H           5.0352    1.2396    2.1616 H       1  UNL1        0.0625
     48 H           2.6751    0.4548    2.1791 H       1  UNL1        0.0636
     49 H          -1.6651   -2.0914    2.7013 H       1  UNL1        0.0706
     50 H          -3.7520   -5.6069    1.7270 H       1  UNL1        0.1698
     51 H          -3.0536   -5.4076   -0.6320 H       1  UNL1        0.1028
     52 H          -2.9536   -0.6311    1.0146 H       1  UNL1        0.0303
     53 H          -1.9659    0.8284    1.4826 H       1  UNL1        0.0303
     54 H          -3.9802    1.6535    0.4565 H       1  UNL1        0.0427
     55 H          -2.6622    1.8884   -0.7248 H       1  UNL1        0.0427
     56 H          -5.5337   -0.9289   -1.4109 H       1  UNL1        0.0491
     57 H          -4.7029   -1.1446    0.1280 H       1  UNL1        0.0491
     58 H          -6.9202    1.6464    3.1051 H       1  UNL1        0.0829
     59 H          -8.4901    2.9342    1.8002 H       1  UNL1        0.0633
     60 H          -8.4774    2.7053   -0.7085 H       1  UNL1        0.0621
     61 H          -7.0368    2.1817   -2.5593 H       1  UNL1        0.0278
     62 H          -5.9264    0.7915   -2.5429 H       1  UNL1        0.0278
     63 H          -7.7401    0.4868   -2.3976 H       1  UNL1        0.0278
     64 H          -3.2843   -1.5938   -1.6418 H       1  UNL1        0.0427
     65 H          -3.2434   -0.3724   -2.9803 H       1  UNL1        0.0427
     66 H          -1.0544   -1.0507   -2.2294 H       1  UNL1        0.0303
     67 H          -1.3578    0.7315   -2.0524 H       1  UNL1        0.0303
     68 H           2.6844    0.1326   -2.0053 H       1  UNL1        0.0636
     69 H           5.0471    0.9140   -2.0552 H       1  UNL1        0.0625
@<TRIPOS>BOND
     1     1     2    1
     2     2     3    1
     3     3     4    1
     4     4     5   ar
     5     5     6   ar
     6     6     7    1
     7     7     8   ar
     8     8     9   ar
     9     9    10   ar
    10    10    11    1
    11    11    12   am
    12    12    13    2
    13    12    14   am
    14    14    15    1
    15    15    16   ar
    16    16    17   ar
    17    17    18    2
    18    17    19   ar
    19    19    20   ar
    20    20    21   ar
    21    14    22    1
    22    22    23    1
    23    23    24    1
    24    24    25    1
    25    25    26    1
    26    26    27    1
    27    27    28   ar
    28    28    29   ar
    29    29    30   ar
    30    30    31   ar
    31    31    32   ar
    32    32    33    1
    33    25    34    1
    34    34    35    1
    35    22    36    1
    36    36    37    2
    37    10    38   ar
    38    38    39   ar
    39     6    40   ar
    40    40    41   ar
    41    41     4   ar
    42    39     7   ar
    43    36    11   am
    44    21    15   ar
    45    35    22    1
    46    32    27   ar
    47     1    42    1
    48     1    43    1
    49     1    44    1
    50     3    45    1
    51     3    46    1
    52     8    47    1
    53     9    48    1
    54    16    49    1
    55    19    50    1
    56    20    51    1
    57    23    52    1
    58    23    53    1
    59    24    54    1
    60    24    55    1
    61    26    56    1
    62    26    57    1
    63    29    58    1
    64    30    59    1
    65    31    60    1
    66    33    61    1
    67    33    62    1
    68    33    63    1
    69    34    64    1
    70    34    65    1
    71    35    66    1
    72    35    67    1
    73    38    68    1
    74    39    69    1
