
     RDKit          3D

 69 74  0  0  0  0  0  0  0  0999 V2000
   11.9297    0.5669   -1.1119 C   0  0  0  0  0  0  0  0  0  0  0  0
   10.5954    0.9576   -1.1442 O   0  0  0  0  0  0  0  0  0  0  0  0
   10.1794    1.2283    0.1725 C   0  0  0  0  0  0  0  0  0  0  0  0
    8.7559    1.6406    0.0852 C   0  0  0  0  0  0  0  0  0  0  0  0
    7.6677    0.8346    0.1541 N   0  0  0  0  0  0  0  0  0  0  0  0
    6.5723    1.5854    0.0346 C   0  0  0  0  0  0  0  0  0  0  0  0
    5.1856    1.1251    0.0555 C   0  0  0  0  0  0  0  0  0  0  0  0
    4.4963    0.9893    1.2572 C   0  0  0  0  0  0  0  0  0  0  0  0
    3.1916    0.5538    1.2410 C   0  0  0  0  0  0  0  0  0  0  0  0
    2.5046    0.2355    0.0909 C   0  0  0  0  0  0  0  0  0  0  0  0
    1.1433   -0.2162    0.1295 N   0  0  0  0  0  0  0  0  0  0  0  0
    0.6809   -1.5571    0.2346 C   0  0  0  0  0  0  0  0  0  0  0  0
    1.4530   -2.5588    0.3067 O   0  0  0  0  0  0  0  0  0  0  0  0
   -0.7524   -1.6075    0.2467 N   0  0  0  0  0  0  0  0  0  0  0  0
   -1.5710   -2.7059    0.6217 C   0  0  0  0  0  0  0  0  0  0  0  0
   -1.9533   -2.8049    1.9405 C   0  0  0  0  0  0  0  0  0  0  0  0
   -2.7475   -3.8772    2.2989 C   0  0  0  0  0  0  0  0  0  0  0  0
   -3.0946   -3.9649    3.5032 O   0  0  0  0  0  0  0  0  0  0  0  0
   -3.1424   -4.8023    1.4004 N   0  0  0  0  0  0  0  0  0  0  0  0
   -2.7564   -4.6841    0.1184 C   0  0  0  0  0  0  0  0  0  0  0  0
   -1.9718   -3.6333   -0.2585 N   0  0  0  0  0  0  0  0  0  0  0  0
   -1.2161   -0.2934   -0.2020 C   0  0  0  0  0  0  0  0  0  0  0  0
   -2.3483    0.2109    0.6377 C   0  0  0  0  0  0  0  0  0  0  0  0
   -3.2471    1.1046   -0.1746 C   0  0  0  0  0  0  0  0  0  0  0  0
   -3.9537    0.3527   -1.1908 N   0  0  0  0  0  0  0  0  0  0  0  0
   -5.0435   -0.3486   -0.5807 C   0  0  0  0  0  0  0  0  0  0  0  0
   -5.9949    0.5577    0.0830 C   0  0  0  0  0  0  0  0  0  0  0  0
   -6.0184    0.6948    1.4200 N   0  0  0  0  0  0  0  0  0  0  0  0
   -6.9023    1.5366    2.0281 C   0  0  0  0  0  0  0  0  0  0  0  0
   -7.8018    2.2758    1.2925 C   0  0  0  0  0  0  0  0  0  0  0  0
   -7.7979    2.1525   -0.0884 C   0  0  0  0  0  0  0  0  0  0  0  0
   -6.8754    1.2786   -0.6662 C   0  0  0  0  0  0  0  0  0  0  0  0
   -6.8927    1.1649   -2.1407 C   0  0  0  0  0  0  0  0  0  0  0  0
   -3.0732   -0.5276   -1.8895 C   0  0  0  0  0  0  0  0  0  0  0  0
   -1.6103   -0.2733   -1.6394 C   0  0  0  0  0  0  0  0  0  0  0  0
   -0.0351    0.5815    0.0745 C   0  0  0  0  0  0  0  0  0  0  0  0
   -0.0318    1.8236    0.2390 O   0  0  0  0  0  0  0  0  0  0  0  0
    3.2061    0.3770   -1.0912 C   0  0  0  0  0  0  0  0  0  0  0  0
    4.5185    0.8127   -1.1030 C   0  0  0  0  0  0  0  0  0  0  0  0
    7.0060    2.8514   -0.1072 N   0  0  0  0  0  0  0  0  0  0  0  0
    8.3232    2.8579   -0.0734 O   0  0  0  0  0  0  0  0  0  0  0  0
   12.0430   -0.3439   -0.4887 H   0  0  0  0  0  0  0  0  0  0  0  0
   12.1990    0.3111   -2.1725 H   0  0  0  0  0  0  0  0  0  0  0  0
   12.5367    1.4130   -0.7528 H   0  0  0  0  0  0  0  0  0  0  0  0
   10.7640    2.0564    0.6190 H   0  0  0  0  0  0  0  0  0  0  0  0
   10.2380    0.3070    0.8059 H   0  0  0  0  0  0  0  0  0  0  0  0
    5.0352    1.2396    2.1616 H   0  0  0  0  0  0  0  0  0  0  0  0
    2.6751    0.4548    2.1791 H   0  0  0  0  0  0  0  0  0  0  0  0
   -1.6651   -2.0914    2.7013 H   0  0  0  0  0  0  0  0  0  0  0  0
   -3.7520   -5.6069    1.7270 H   0  0  0  0  0  0  0  0  0  0  0  0
   -3.0536   -5.4076   -0.6320 H   0  0  0  0  0  0  0  0  0  0  0  0
   -2.9536   -0.6311    1.0146 H   0  0  0  0  0  0  0  0  0  0  0  0
   -1.9659    0.8284    1.4826 H   0  0  0  0  0  0  0  0  0  0  0  0
   -3.9802    1.6535    0.4565 H   0  0  0  0  0  0  0  0  0  0  0  0
   -2.6622    1.8884   -0.7248 H   0  0  0  0  0  0  0  0  0  0  0  0
   -5.5337   -0.9289   -1.4109 H   0  0  0  0  0  0  0  0  0  0  0  0
   -4.7029   -1.1446    0.1280 H   0  0  0  0  0  0  0  0  0  0  0  0
   -6.9202    1.6464    3.1051 H   0  0  0  0  0  0  0  0  0  0  0  0
   -8.4901    2.9342    1.8002 H   0  0  0  0  0  0  0  0  0  0  0  0
   -8.4774    2.7053   -0.7085 H   0  0  0  0  0  0  0  0  0  0  0  0
   -7.0368    2.1817   -2.5593 H   0  0  0  0  0  0  0  0  0  0  0  0
   -5.9264    0.7915   -2.5429 H   0  0  0  0  0  0  0  0  0  0  0  0
   -7.7401    0.4868   -2.3976 H   0  0  0  0  0  0  0  0  0  0  0  0
   -3.2843   -1.5938   -1.6418 H   0  0  0  0  0  0  0  0  0  0  0  0
   -3.2434   -0.3724   -2.9803 H   0  0  0  0  0  0  0  0  0  0  0  0
   -1.0544   -1.0507   -2.2294 H   0  0  0  0  0  0  0  0  0  0  0  0
   -1.3578    0.7315   -2.0524 H   0  0  0  0  0  0  0  0  0  0  0  0
    2.6844    0.1326   -2.0053 H   0  0  0  0  0  0  0  0  0  0  0  0
    5.0471    0.9140   -2.0552 H   0  0  0  0  0  0  0  0  0  0  0  0
  1  2  1  0
  2  3  1  0
  3  4  1  0
  4  5  2  0
  5  6  1  0
  6  7  1  0
  7  8  2  0
  8  9  1  0
  9 10  2  0
 10 11  1  0
 11 12  1  0
 12 13  2  0
 12 14  1  0
 14 15  1  0
 15 16  2  0
 16 17  1  0
 17 18  2  0
 17 19  1  0
 19 20  1  0
 20 21  2  0
 14 22  1  0
 22 23  1  0
 23 24  1  0
 24 25  1  0
 25 26  1  0
 26 27  1  0
 27 28  2  0
 28 29  1  0
 29 30  2  0
 30 31  1  0
 31 32  2  0
 32 33  1  0
 25 34  1  0
 34 35  1  0
 22 36  1  0
 36 37  2  0
 10 38  1  0
 38 39  2  0
  6 40  2  0
 40 41  1  0
 41  4  1  0
 39  7  1  0
 36 11  1  0
 21 15  1  0
 35 22  1  0
 32 27  1  0
  1 42  1  0
  1 43  1  0
  1 44  1  0
  3 45  1  0
  3 46  1  0
  8 47  1  0
  9 48  1  0
 16 49  1  0
 19 50  1  0
 20 51  1  0
 23 52  1  0
 23 53  1  0
 24 54  1  0
 24 55  1  0
 26 56  1  0
 26 57  1  0
 29 58  1  0
 30 59  1  0
 31 60  1  0
 33 61  1  0
 33 62  1  0
 33 63  1  0
 34 64  1  0
 34 65  1  0
 35 66  1  0
 35 67  1  0
 38 68  1  0
 39 69  1  0
M  END
$$$$
