@<TRIPOS>MOLECULE
*****
 41 45 0 0 0
SMALL
GASTEIGER

@<TRIPOS>ATOM
      1 O          -3.7428    2.3842    1.0304 O.2     1  UNL1       -0.2849
      2 C          -3.1220    1.3547    0.6715 C.2     1  UNL1        0.2149
      3 C          -3.8320    0.3131   -0.0402 C.ar    1  UNL1        0.0239
      4 C          -3.5492   -1.0153    0.0227 C.ar    1  UNL1       -0.0509
      5 C          -4.2417   -1.9419   -0.7164 C.ar    1  UNL1       -0.0611
      6 C          -5.2541   -1.5186   -1.5460 C.ar    1  UNL1       -0.0617
      7 C          -5.5622   -0.1768   -1.6274 C.ar    1  UNL1       -0.0611
      8 C          -4.8510    0.7258   -0.8758 C.ar    1  UNL1       -0.0509
      9 C          -1.6822    1.1640    0.9511 C.ar    1  UNL1        0.1561
     10 N          -1.1351    1.7680    2.0191 N.ar    1  UNL1       -0.2382
     11 C           0.1820    1.6505    2.2580 C.ar    1  UNL1        0.0886
     12 C           0.7415    2.2766    3.3748 C.ar    1  UNL1       -0.0343
     13 C           2.0799    2.1833    3.6681 C.ar    1  UNL1       -0.0596
     14 C           2.8852    1.4522    2.8352 C.ar    1  UNL1       -0.0597
     15 C           2.3833    0.7991    1.6966 C.ar    1  UNL1       -0.0357
     16 C           1.0407    0.9263    1.4515 C.ar    1  UNL1        0.0754
     17 N           0.4903    0.3206    0.3769 N.ar    1  UNL1       -0.2718
     18 C           1.0507   -0.4070   -0.5721 C.ar    1  UNL1        0.1705
     19 C           2.3980   -0.8721   -0.8663 C.ar    1  UNL1        0.0379
     20 C           2.8766   -2.0891   -0.4520 C.ar    1  UNL1       -0.0496
     21 C           4.1351   -2.4935   -0.7970 C.ar    1  UNL1       -0.0610
     22 C           4.9641   -1.7052   -1.5654 C.ar    1  UNL1       -0.0603
     23 C           4.4678   -0.4795   -1.9765 C.ar    1  UNL1       -0.0427
     24 C           3.2049   -0.0579   -1.6385 C.ar    1  UNL1        0.0517
     25 CL          2.6027    1.5226   -2.1852 Cl      1  UNL1       -0.0828
     26 N           0.0345   -0.7512   -1.4287 N.ar    1  UNL1       -0.1283
     27 N          -1.0864   -0.2398   -0.9950 N.ar    1  UNL1       -0.1267
     28 C          -0.8410    0.4471    0.1481 C.ar    1  UNL1        0.1913
     29 H          -2.7626   -1.3592    0.7104 H       1  UNL1        0.0625
     30 H          -4.0005   -3.0049   -0.6511 H       1  UNL1        0.0618
     31 H          -5.8039   -2.2269   -2.1297 H       1  UNL1        0.0618
     32 H          -6.3537    0.1792   -2.2706 H       1  UNL1        0.0618
     33 H          -5.1291    1.7795   -0.9733 H       1  UNL1        0.0625
     34 H           0.0652    2.8498    4.0169 H       1  UNL1        0.0639
     35 H           2.4962    2.6855    4.5500 H       1  UNL1        0.0618
     36 H           3.9530    1.3722    3.0631 H       1  UNL1        0.0618
     37 H           3.0660    0.2351    1.0885 H       1  UNL1        0.0639
     38 H           2.2295   -2.7318    0.1626 H       1  UNL1        0.0625
     39 H           4.5566   -3.4581   -0.4874 H       1  UNL1        0.0618
     40 H           5.9392   -2.0312   -1.8253 H       1  UNL1        0.0618
     41 H           5.1062    0.1707   -2.5870 H       1  UNL1        0.0632
@<TRIPOS>BOND
     1     1     2    2
     2     2     3    1
     3     3     4   ar
     4     4     5   ar
     5     5     6   ar
     6     6     7   ar
     7     7     8   ar
     8     2     9    1
     9     9    10   ar
    10    10    11   ar
    11    11    12   ar
    12    12    13   ar
    13    13    14   ar
    14    14    15   ar
    15    15    16   ar
    16    16    17   ar
    17    17    18   ar
    18    18    19    1
    19    19    20   ar
    20    20    21   ar
    21    21    22   ar
    22    22    23   ar
    23    23    24   ar
    24    24    25    1
    25    18    26   ar
    26    26    27   ar
    27    27    28   ar
    28     8     3   ar
    29    28     9   ar
    30    16    11   ar
    31    28    17   ar
    32    24    19   ar
    33     4    29    1
    34     5    30    1
    35     6    31    1
    36     7    32    1
    37     8    33    1
    38    12    34    1
    39    13    35    1
    40    14    36    1
    41    15    37    1
    42    20    38    1
    43    21    39    1
    44    22    40    1
    45    23    41    1
