
     RDKit          3D

 35 36  0  0  0  0  0  0  0  0999 V2000
   -4.5327   -1.1494    1.2500 N   0  0  0  0  0  0  0  0  0  0  0  0
   -4.5767   -0.4800   -0.0316 C   0  0  2  0  0  0  0  0  0  0  0  0
   -3.4149   -0.8338   -0.9078 C   0  0  0  0  0  0  0  0  0  0  0  0
   -2.0931   -0.4995   -0.3560 C   0  0  0  0  0  0  0  0  0  0  0  0
   -1.3593   -1.3748    0.4225 C   0  0  0  0  0  0  0  0  0  0  0  0
   -0.1114   -1.1105    0.9665 C   0  0  0  0  0  0  0  0  0  0  0  0
    0.9157   -2.5145    2.1358 I   0  0  0  0  0  0  0  0  0  0  0  0
    0.4371    0.1434    0.6995 C   0  0  0  0  0  0  0  0  0  0  0  0
    1.6837    0.4919    1.2055 O   0  0  0  0  0  0  0  0  0  0  0  0
    2.8837    0.2814    0.5737 C   0  0  0  0  0  0  0  0  0  0  0  0
    3.9849    0.7277    1.3038 C   0  0  0  0  0  0  0  0  0  0  0  0
    5.2622    0.5819    0.7916 C   0  0  0  0  0  0  0  0  0  0  0  0
    6.9765    1.2404    1.8538 I   0  0  0  0  0  0  0  0  0  0  0  0
    5.4981   -0.0026   -0.4451 C   0  0  0  0  0  0  0  0  0  0  0  0
    6.7682   -0.1617   -0.9832 O   0  0  0  0  0  0  0  0  0  0  0  0
    4.3970   -0.4401   -1.1571 C   0  0  0  0  0  0  0  0  0  0  0  0
    4.5775   -1.3526   -3.0563 I   0  0  0  0  0  0  0  0  0  0  0  0
    3.1190   -0.3001   -0.6567 C   0  0  0  0  0  0  0  0  0  0  0  0
   -0.2368    1.0904   -0.0790 C   0  0  0  0  0  0  0  0  0  0  0  0
    0.5954    2.9820   -0.4793 I   0  0  0  0  0  0  0  0  0  0  0  0
   -1.4721    0.7078   -0.5638 C   0  0  0  0  0  0  0  0  0  0  0  0
   -4.6610    0.9914    0.0677 C   0  0  0  0  0  0  0  0  0  0  0  0
   -4.7117    1.9451    1.0630 O   0  0  0  0  0  0  0  0  0  0  0  0
   -4.7010    1.6054   -1.0410 O   0  0  0  0  0  0  0  0  0  0  0  0
   -3.5725   -1.1681    1.6562 H   0  0  0  0  0  0  0  0  0  0  0  0
   -5.2603   -0.8406    1.8997 H   0  0  0  0  0  0  0  0  0  0  0  0
   -5.4871   -0.8443   -0.5504 H   0  0  0  0  0  0  0  0  0  0  0  0
   -3.5126   -0.3404   -1.8921 H   0  0  0  0  0  0  0  0  0  0  0  0
   -3.4196   -1.9462   -1.0865 H   0  0  0  0  0  0  0  0  0  0  0  0
   -1.7460   -2.3569    0.6540 H   0  0  0  0  0  0  0  0  0  0  0  0
    3.9363    1.1914    2.2617 H   0  0  0  0  0  0  0  0  0  0  0  0
    7.5290    0.2561   -0.4666 H   0  0  0  0  0  0  0  0  0  0  0  0
    2.2100   -0.6203   -1.1607 H   0  0  0  0  0  0  0  0  0  0  0  0
   -1.9570    1.4706   -1.1603 H   0  0  0  0  0  0  0  0  0  0  0  0
   -3.9487    2.6294    1.0827 H   0  0  0  0  0  0  0  0  0  0  0  0
  1  2  1  0
  2  3  1  0
  3  4  1  0
  4  5  2  0
  5  6  1  0
  6  7  1  0
  6  8  2  0
  8  9  1  0
  9 10  1  0
 10 11  2  0
 11 12  1  0
 12 13  1  0
 12 14  2  0
 14 15  1  0
 14 16  1  0
 16 17  1  0
 16 18  2  0
  8 19  1  0
 19 20  1  0
 19 21  2  0
  2 22  1  0
 22 23  1  0
 22 24  2  0
 21  4  1  0
 18 10  1  0
  1 25  1  0
  1 26  1  0
  2 27  1  6
  3 28  1  0
  3 29  1  0
  5 30  1  0
 11 31  1  0
 15 32  1  0
 18 33  1  0
 21 34  1  0
 23 35  1  0
M  END
$$$$
