@<TRIPOS>MOLECULE
*****
 35 36 0 0 0
SMALL
GASTEIGER

@<TRIPOS>ATOM
      1 N          -4.5327   -1.1494    1.2500 N.3     1  UNL1       -0.3181
      2 CA         -4.5767   -0.4800   -0.0316 C.3     1  UNL1        0.1072
      3 C          -3.4149   -0.8338   -0.9078 C.3     1  UNL1       -0.0020
      4 C          -2.0931   -0.4995   -0.3560 C.ar    1  UNL1       -0.0432
      5 C          -1.3593   -1.3748    0.4225 C.ar    1  UNL1       -0.0418
      6 C          -0.1114   -1.1105    0.9665 C.ar    1  UNL1        0.0569
      7 I           0.9157   -2.5145    2.1358 I       1  UNL1       -0.0400
      8 C           0.4371    0.1434    0.6995 C.ar    1  UNL1        0.1545
      9 O           1.6837    0.4919    1.2055 O.3     1  UNL1       -0.4539
     10 C           2.8837    0.2814    0.5737 C.ar    1  UNL1        0.1307
     11 C           3.9849    0.7277    1.3038 C.ar    1  UNL1       -0.0026
     12 C           5.2622    0.5819    0.7916 C.ar    1  UNL1        0.0592
     13 I           6.9765    1.2404    1.8538 I       1  UNL1       -0.0399
     14 C           5.4981   -0.0026   -0.4451 C.ar    1  UNL1        0.1432
     15 O           6.7682   -0.1617   -0.9832 O.3     1  UNL1       -0.5047
     16 C           4.3970   -0.4401   -1.1571 C.ar    1  UNL1        0.0592
     17 I           4.5775   -1.3526   -3.0563 I       1  UNL1       -0.0399
     18 C           3.1190   -0.3001   -0.6567 C.ar    1  UNL1       -0.0026
     19 C          -0.2368    1.0904   -0.0790 C.ar    1  UNL1        0.0569
     20 I           0.5954    2.9820   -0.4793 I       1  UNL1       -0.0400
     21 C          -1.4721    0.7078   -0.5638 C.ar    1  UNL1       -0.0418
     22 C          -4.6610    0.9914    0.0677 C.2     1  UNL1        0.3220
     23 O          -4.7117    1.9451    1.0630 O.3     1  UNL1       -0.4795
     24 OXT        -4.7010    1.6054   -1.0410 O.2     1  UNL1       -0.2492
     25 H1         -3.5725   -1.1681    1.6562 H       1  UNL1        0.1190
     26 H2         -5.2603   -0.8406    1.8997 H       1  UNL1        0.1190
     27 HA         -5.4871   -0.8443   -0.5504 H       1  UNL1        0.0577
     28 H          -3.5126   -0.3404   -1.8921 H       1  UNL1        0.0334
     29 H          -3.4196   -1.9462   -1.0865 H       1  UNL1        0.0334
     30 H          -1.7460   -2.3569    0.6540 H       1  UNL1        0.0632
     31 H           3.9363    1.1914    2.2617 H       1  UNL1        0.0666
     32 H           7.5290    0.2561   -0.4666 H       1  UNL1        0.2922
     33 H           2.2100   -0.6203   -1.1607 H       1  UNL1        0.0666
     34 H          -1.9570    1.4706   -1.1603 H       1  UNL1        0.0632
     35 H          -3.9487    2.6294    1.0827 H       1  UNL1        0.2951
@<TRIPOS>BOND
     1     1     2    1
     2     2     3    1
     3     3     4    1
     4     4     5   ar
     5     5     6   ar
     6     6     7    1
     7     6     8   ar
     8     8     9    1
     9     9    10    1
    10    10    11   ar
    11    11    12   ar
    12    12    13    1
    13    12    14   ar
    14    14    15    1
    15    14    16   ar
    16    16    17    1
    17    16    18   ar
    18     8    19   ar
    19    19    20    1
    20    19    21   ar
    21     2    22    1
    22    22    23    1
    23    22    24    2
    24    21     4   ar
    25    18    10   ar
    26     1    25    1
    27     1    26    1
    28     2    27    1
    29     3    28    1
    30     3    29    1
    31     5    30    1
    32    11    31    1
    33    15    32    1
    34    18    33    1
    35    21    34    1
    36    23    35    1
