
     RDKit          3D

 62 64  0  0  0  0  0  0  0  0999 V2000
    8.0665    1.2953    1.0117 C   0  0  0  0  0  0  0  0  0  0  0  0
    7.4393    0.9095   -0.3321 C   0  0  0  0  0  0  0  0  0  0  0  0
    6.5952   -0.2105   -0.2277 N   0  0  0  0  0  0  0  0  0  0  0  0
    7.2042   -1.4614    0.0588 C   0  0  0  0  0  0  0  0  0  0  0  0
    8.0590   -2.0260   -1.0173 C   0  0  0  0  0  0  0  0  0  0  0  0
    5.4317   -0.2596   -1.0315 C   0  0  0  0  0  0  0  0  0  0  0  0
    4.4523    0.7850   -0.5610 C   0  0  0  0  0  0  0  0  0  0  0  0
    4.1109    0.4542    0.8984 C   0  0  0  0  0  0  0  0  0  0  0  0
    3.1493    1.4592    1.4055 C   0  0  0  0  0  0  0  0  0  0  0  0
    3.5804    2.4784    1.9825 O   0  0  0  0  0  0  0  0  0  0  0  0
    1.7178    1.2609    1.2323 C   0  0  0  0  0  0  0  0  0  0  0  0
    0.8477    2.2361    1.7378 C   0  0  0  0  0  0  0  0  0  0  0  0
   -0.5010    2.1021    1.5913 C   0  0  0  0  0  0  0  0  0  0  0  0
   -1.0406    0.9781    0.9272 C   0  0  0  0  0  0  0  0  0  0  0  0
   -2.4065    0.8797    0.7981 O   0  0  0  0  0  0  0  0  0  0  0  0
   -3.0893   -0.1630    0.1823 C   0  0  0  0  0  0  0  0  0  0  0  0
   -4.1150   -0.7980    1.0991 C   0  0  0  0  0  0  0  0  0  0  0  0
   -5.4227   -0.7274    0.3872 C   0  0  0  0  0  0  0  0  0  0  0  0
   -6.6687   -1.1975    0.7762 C   0  0  0  0  0  0  0  0  0  0  0  0
   -7.7531   -1.0181   -0.0511 C   0  0  0  0  0  0  0  0  0  0  0  0
   -9.0113   -1.4719    0.2995 O   0  0  0  0  0  0  0  0  0  0  0  0
   -9.2295   -2.1355    1.5191 C   0  0  0  0  0  0  0  0  0  0  0  0
   -7.5798   -0.3669   -1.2660 C   0  0  0  0  0  0  0  0  0  0  0  0
   -8.6936   -0.1913   -2.0996 O   0  0  0  0  0  0  0  0  0  0  0  0
   -8.5102    0.4728   -3.3378 C   0  0  0  0  0  0  0  0  0  0  0  0
   -6.3343    0.0902   -1.6289 C   0  0  0  0  0  0  0  0  0  0  0  0
   -5.2451   -0.0898   -0.7984 C   0  0  0  0  0  0  0  0  0  0  0  0
   -3.8758    0.3137   -1.0006 C   0  0  0  0  0  0  0  0  0  0  0  0
   -3.4363    0.9427   -1.9824 O   0  0  0  0  0  0  0  0  0  0  0  0
   -0.1586    0.0482    0.4484 C   0  0  0  0  0  0  0  0  0  0  0  0
    1.2255    0.1583    0.5834 C   0  0  0  0  0  0  0  0  0  0  0  0
    8.8521    2.0478    0.7424 H   0  0  0  0  0  0  0  0  0  0  0  0
    8.4695    0.4428    1.5545 H   0  0  0  0  0  0  0  0  0  0  0  0
    7.2920    1.8636    1.5689 H   0  0  0  0  0  0  0  0  0  0  0  0
    6.8449    1.7928   -0.6388 H   0  0  0  0  0  0  0  0  0  0  0  0
    8.2307    0.8274   -1.1164 H   0  0  0  0  0  0  0  0  0  0  0  0
    7.7630   -1.3845    1.0131 H   0  0  0  0  0  0  0  0  0  0  0  0
    6.3847   -2.2013    0.2622 H   0  0  0  0  0  0  0  0  0  0  0  0
    7.4562   -2.6878   -1.7035 H   0  0  0  0  0  0  0  0  0  0  0  0
    8.8227   -2.7049   -0.5844 H   0  0  0  0  0  0  0  0  0  0  0  0
    8.5796   -1.3023   -1.6409 H   0  0  0  0  0  0  0  0  0  0  0  0
    4.9345   -1.2527   -0.9285 H   0  0  0  0  0  0  0  0  0  0  0  0
    5.6497   -0.0349   -2.0972 H   0  0  0  0  0  0  0  0  0  0  0  0
    4.8454    1.7987   -0.5649 H   0  0  0  0  0  0  0  0  0  0  0  0
    3.5177    0.6693   -1.1556 H   0  0  0  0  0  0  0  0  0  0  0  0
    5.0418    0.5309    1.5133 H   0  0  0  0  0  0  0  0  0  0  0  0
    3.6951   -0.5641    0.9719 H   0  0  0  0  0  0  0  0  0  0  0  0
    1.2443    3.1014    2.2481 H   0  0  0  0  0  0  0  0  0  0  0  0
   -1.2197    2.8404    1.9716 H   0  0  0  0  0  0  0  0  0  0  0  0
   -2.4277   -0.9888   -0.1448 H   0  0  0  0  0  0  0  0  0  0  0  0
   -3.9155   -1.8478    1.3226 H   0  0  0  0  0  0  0  0  0  0  0  0
   -4.1635   -0.2426    2.0671 H   0  0  0  0  0  0  0  0  0  0  0  0
   -6.7907   -1.7105    1.7388 H   0  0  0  0  0  0  0  0  0  0  0  0
   -8.4673   -2.9437    1.6251 H   0  0  0  0  0  0  0  0  0  0  0  0
   -8.9923   -1.4042    2.3409 H   0  0  0  0  0  0  0  0  0  0  0  0
  -10.2694   -2.5092    1.5937 H   0  0  0  0  0  0  0  0  0  0  0  0
   -9.4333    0.4638   -3.9314 H   0  0  0  0  0  0  0  0  0  0  0  0
   -7.7326   -0.0650   -3.9544 H   0  0  0  0  0  0  0  0  0  0  0  0
   -8.1205    1.5009   -3.1808 H   0  0  0  0  0  0  0  0  0  0  0  0
   -6.2404    0.5955   -2.5887 H   0  0  0  0  0  0  0  0  0  0  0  0
   -0.5134   -0.8535   -0.0811 H   0  0  0  0  0  0  0  0  0  0  0  0
    1.8539   -0.6240    0.1726 H   0  0  0  0  0  0  0  0  0  0  0  0
  1  2  1  0
  2  3  1  0
  3  4  1  0
  4  5  1  0
  3  6  1  0
  6  7  1  0
  7  8  1  0
  8  9  1  0
  9 10  2  0
  9 11  1  0
 11 12  2  0
 12 13  1  0
 13 14  2  0
 14 15  1  0
 15 16  1  0
 16 17  1  0
 17 18  1  0
 18 19  2  0
 19 20  1  0
 20 21  1  0
 21 22  1  0
 20 23  2  0
 23 24  1  0
 24 25  1  0
 23 26  1  0
 26 27  2  0
 27 28  1  0
 28 29  2  0
 14 30  1  0
 30 31  2  0
 31 11  1  0
 28 16  1  0
 27 18  1  0
  1 32  1  0
  1 33  1  0
  1 34  1  0
  2 35  1  0
  2 36  1  0
  4 37  1  0
  4 38  1  0
  5 39  1  0
  5 40  1  0
  5 41  1  0
  6 42  1  0
  6 43  1  0
  7 44  1  0
  7 45  1  0
  8 46  1  0
  8 47  1  0
 12 48  1  0
 13 49  1  0
 16 50  1  0
 17 51  1  0
 17 52  1  0
 19 53  1  0
 22 54  1  0
 22 55  1  0
 22 56  1  0
 25 57  1  0
 25 58  1  0
 25 59  1  0
 26 60  1  0
 30 61  1  0
 31 62  1  0
M  END
$$$$
