@<TRIPOS>MOLECULE
*****
 62 64 0 0 0
SMALL
GASTEIGER

@<TRIPOS>ATOM
      1 C           8.0665    1.2953    1.0117 C.3     1  UNL1       -0.0524
      2 C           7.4393    0.9095   -0.3321 C.3     1  UNL1       -0.0040
      3 N           6.5952   -0.2105   -0.2277 N.3     1  UNL1       -0.3028
      4 C           7.2042   -1.4614    0.0588 C.3     1  UNL1       -0.0040
      5 C           8.0590   -2.0260   -1.0173 C.3     1  UNL1       -0.0524
      6 C           5.4317   -0.2596   -1.0315 C.3     1  UNL1       -0.0007
      7 C           4.4523    0.7850   -0.5610 C.3     1  UNL1       -0.0332
      8 C           4.1109    0.4542    0.8984 C.3     1  UNL1        0.0116
      9 C           3.1493    1.4592    1.4055 C.2     1  UNL1        0.1632
     10 O           3.5804    2.4784    1.9825 O.2     1  UNL1       -0.2921
     11 C           1.7178    1.2609    1.2323 C.ar    1  UNL1        0.0176
     12 C           0.8477    2.2361    1.7378 C.ar    1  UNL1       -0.0478
     13 C          -0.5010    2.1021    1.5913 C.ar    1  UNL1       -0.0192
     14 C          -1.0406    0.9781    0.9272 C.ar    1  UNL1        0.1216
     15 O          -2.4065    0.8797    0.7981 O.3     1  UNL1       -0.4807
     16 C          -3.0893   -0.1630    0.1823 C.3     1  UNL1        0.1661
     17 C          -4.1150   -0.7980    1.0991 C.3     1  UNL1        0.0177
     18 C          -5.4227   -0.7274    0.3872 C.ar    1  UNL1       -0.0292
     19 C          -6.6687   -1.1975    0.7762 C.ar    1  UNL1       -0.0123
     20 C          -7.7531   -1.0181   -0.0511 C.ar    1  UNL1        0.1618
     21 O          -9.0113   -1.4719    0.2995 O.3     1  UNL1       -0.4914
     22 C          -9.2295   -2.1355    1.5191 C.3     1  UNL1        0.0790
     23 C          -7.5798   -0.3669   -1.2660 C.ar    1  UNL1        0.1622
     24 O          -8.6936   -0.1913   -2.0996 O.3     1  UNL1       -0.4914
     25 C          -8.5102    0.4728   -3.3378 C.3     1  UNL1        0.0790
     26 C          -6.3343    0.0902   -1.6289 C.ar    1  UNL1       -0.0054
     27 C          -5.2451   -0.0898   -0.7984 C.ar    1  UNL1        0.0282
     28 C          -3.8758    0.3137   -1.0006 C.2     1  UNL1        0.2040
     29 O          -3.4363    0.9427   -1.9824 O.2     1  UNL1       -0.2881
     30 C          -0.1586    0.0482    0.4484 C.ar    1  UNL1       -0.0192
     31 C           1.2255    0.1583    0.5834 C.ar    1  UNL1       -0.0478
     32 H           8.8521    2.0478    0.7424 H       1  UNL1        0.0242
     33 H           8.4695    0.4428    1.5545 H       1  UNL1        0.0242
     34 H           7.2920    1.8636    1.5689 H       1  UNL1        0.0242
     35 H           6.8449    1.7928   -0.6388 H       1  UNL1        0.0424
     36 H           8.2307    0.8274   -1.1164 H       1  UNL1        0.0424
     37 H           7.7630   -1.3845    1.0131 H       1  UNL1        0.0424
     38 H           6.3847   -2.2013    0.2622 H       1  UNL1        0.0424
     39 H           7.4562   -2.6878   -1.7035 H       1  UNL1        0.0242
     40 H           8.8227   -2.7049   -0.5844 H       1  UNL1        0.0242
     41 H           8.5796   -1.3023   -1.6409 H       1  UNL1        0.0242
     42 H           4.9345   -1.2527   -0.9285 H       1  UNL1        0.0427
     43 H           5.6497   -0.0349   -2.0972 H       1  UNL1        0.0427
     44 H           4.8454    1.7987   -0.5649 H       1  UNL1        0.0282
     45 H           3.5177    0.6693   -1.1556 H       1  UNL1        0.0282
     46 H           5.0418    0.5309    1.5133 H       1  UNL1        0.0345
     47 H           3.6951   -0.5641    0.9719 H       1  UNL1        0.0345
     48 H           1.2443    3.1014    2.2481 H       1  UNL1        0.0626
     49 H          -1.2197    2.8404    1.9716 H       1  UNL1        0.0654
     50 H          -2.4277   -0.9888   -0.1448 H       1  UNL1        0.0821
     51 H          -3.9155   -1.8478    1.3226 H       1  UNL1        0.0354
     52 H          -4.1635   -0.2426    2.0671 H       1  UNL1        0.0354
     53 H          -6.7907   -1.7105    1.7388 H       1  UNL1        0.0658
     54 H          -8.4673   -2.9437    1.6251 H       1  UNL1        0.0660
     55 H          -8.9923   -1.4042    2.3409 H       1  UNL1        0.0660
     56 H         -10.2694   -2.5092    1.5937 H       1  UNL1        0.0660
     57 H          -9.4333    0.4638   -3.9314 H       1  UNL1        0.0660
     58 H          -7.7326   -0.0650   -3.9544 H       1  UNL1        0.0660
     59 H          -8.1205    1.5009   -3.1808 H       1  UNL1        0.0660
     60 H          -6.2404    0.5955   -2.5887 H       1  UNL1        0.0662
     61 H          -0.5134   -0.8535   -0.0811 H       1  UNL1        0.0654
     62 H           1.8539   -0.6240    0.1726 H       1  UNL1        0.0626
@<TRIPOS>BOND
     1     1     2    1
     2     2     3    1
     3     3     4    1
     4     4     5    1
     5     3     6    1
     6     6     7    1
     7     7     8    1
     8     8     9    1
     9     9    10    2
    10     9    11    1
    11    11    12   ar
    12    12    13   ar
    13    13    14   ar
    14    14    15    1
    15    15    16    1
    16    16    17    1
    17    17    18    1
    18    18    19   ar
    19    19    20   ar
    20    20    21    1
    21    21    22    1
    22    20    23   ar
    23    23    24    1
    24    24    25    1
    25    23    26   ar
    26    26    27   ar
    27    27    28    1
    28    28    29    2
    29    14    30   ar
    30    30    31   ar
    31    31    11   ar
    32    28    16    1
    33    27    18   ar
    34     1    32    1
    35     1    33    1
    36     1    34    1
    37     2    35    1
    38     2    36    1
    39     4    37    1
    40     4    38    1
    41     5    39    1
    42     5    40    1
    43     5    41    1
    44     6    42    1
    45     6    43    1
    46     7    44    1
    47     7    45    1
    48     8    46    1
    49     8    47    1
    50    12    48    1
    51    13    49    1
    52    16    50    1
    53    17    51    1
    54    17    52    1
    55    19    53    1
    56    22    54    1
    57    22    55    1
    58    22    56    1
    59    25    57    1
    60    25    58    1
    61    25    59    1
    62    26    60    1
    63    30    61    1
    64    31    62    1
