@<TRIPOS>MOLECULE
*****
 51 54 0 0 0
SMALL
GASTEIGER

@<TRIPOS>ATOM
      1 C           8.4427    2.0761    0.2118 C.3     1  UNL1        0.0788
      2 O           7.8055    0.8477    0.4578 O.3     1  UNL1       -0.4951
      3 C           6.4253    0.7388    0.3656 C.ar    1  UNL1        0.1201
      4 C           5.7806   -0.4556    0.6028 C.ar    1  UNL1       -0.0193
      5 C           4.3882   -0.4957    0.4928 C.ar    1  UNL1       -0.0476
      6 C           3.6306    0.5966    0.1600 C.ar    1  UNL1        0.0176
      7 C           2.1596    0.5459    0.0454 C.ar    1  UNL1        0.1397
      8 C           1.4793   -0.6239    0.2683 C.ar    1  UNL1       -0.0101
      9 C           0.0806   -0.6993    0.1659 C.ar    1  UNL1        0.0002
     10 C          -0.6242   -1.9514    0.4065 C.ar    1  UNL1       -0.0170
     11 C          -0.5722   -2.6072    1.6190 C.ar    1  UNL1       -0.0540
     12 C          -1.2198   -3.7815    1.8814 C.ar    1  UNL1       -0.0612
     13 C          -1.9843   -4.3689    0.8773 C.ar    1  UNL1       -0.0617
     14 C          -2.0540   -3.7344   -0.3459 C.ar    1  UNL1       -0.0612
     15 C          -1.3925   -2.5463   -0.5953 C.ar    1  UNL1       -0.0540
     16 C          -0.5495    0.4734   -0.1705 C.ar    1  UNL1        0.0743
     17 C          -1.9882    0.5111   -0.3031 C.ar    1  UNL1       -0.0103
     18 C          -2.6220    0.8432   -1.4883 C.ar    1  UNL1       -0.0520
     19 C          -3.9983    0.8664   -1.5692 C.ar    1  UNL1       -0.0363
     20 C          -4.8064    0.5652   -0.4922 C.ar    1  UNL1        0.0879
     21 S          -6.5524    0.5976   -0.6033 S.O2    1  UNL1       -0.0059
     22 C          -7.0705    2.2492   -0.1758 C.3     1  UNL1        0.0596
     23 O          -6.9758    0.2864   -2.0027 O.2     1  UNL1       -0.1696
     24 O          -7.1710   -0.3738    0.3797 O.2     1  UNL1       -0.1696
     25 C          -4.1557    0.2349    0.6863 C.ar    1  UNL1       -0.0363
     26 C          -2.7822    0.2076    0.7817 C.ar    1  UNL1       -0.0520
     27 C           0.1749    1.6198   -0.3839 C.ar    1  UNL1        0.3456
     28 O          -0.3556    2.7226   -0.6950 O.2     1  UNL1       -0.2445
     29 O           1.4971    1.6399   -0.2749 O.2     1  UNL1       -0.4217
     30 C           4.2876    1.7963   -0.0775 C.ar    1  UNL1       -0.0476
     31 C           5.6530    1.8379    0.0298 C.ar    1  UNL1       -0.0193
     32 H           8.3847    2.3455   -0.8614 H       1  UNL1        0.0660
     33 H           7.9533    2.9072    0.7750 H       1  UNL1        0.0660
     34 H           9.5378    2.0309    0.4497 H       1  UNL1        0.0660
     35 H           6.3577   -1.3304    0.8668 H       1  UNL1        0.0654
     36 H           3.9167   -1.4667    0.6903 H       1  UNL1        0.0626
     37 H           1.9537   -1.5545    0.5331 H       1  UNL1        0.0661
     38 H           0.0205   -2.1554    2.4025 H       1  UNL1        0.0624
     39 H          -1.1411   -4.2499    2.8549 H       1  UNL1        0.0618
     40 H          -2.5022   -5.3066    1.0847 H       1  UNL1        0.0618
     41 H          -2.6628   -4.2221   -1.1124 H       1  UNL1        0.0618
     42 H          -1.4718   -2.0796   -1.5666 H       1  UNL1        0.0624
     43 H          -1.9969    1.0805   -2.3363 H       1  UNL1        0.0624
     44 H          -4.5033    1.1266   -2.4978 H       1  UNL1        0.0637
     45 H          -6.2339    2.9799   -0.2782 H       1  UNL1        0.0468
     46 H          -7.4127    2.2962    0.8729 H       1  UNL1        0.0468
     47 H          -7.8624    2.6130   -0.8780 H       1  UNL1        0.0468
     48 H          -4.7876   -0.0052    1.5447 H       1  UNL1        0.0637
     49 H          -2.3012   -0.0531    1.7118 H       1  UNL1        0.0624
     50 H           3.6719    2.6437   -0.3380 H       1  UNL1        0.0626
     51 H           6.1490    2.7818   -0.1594 H       1  UNL1        0.0654
@<TRIPOS>BOND
     1     1     2    1
     2     2     3    1
     3     3     4   ar
     4     4     5   ar
     5     5     6   ar
     6     6     7    1
     7     7     8   ar
     8     8     9   ar
     9     9    10    1
    10    10    11   ar
    11    11    12   ar
    12    12    13   ar
    13    13    14   ar
    14    14    15   ar
    15     9    16   ar
    16    16    17    1
    17    17    18   ar
    18    18    19   ar
    19    19    20   ar
    20    20    21    1
    21    21    22    1
    22    21    23    2
    23    21    24    2
    24    20    25   ar
    25    25    26   ar
    26    16    27   ar
    27    27    28    2
    28    27    29   ar
    29     6    30   ar
    30    30    31   ar
    31    31     3   ar
    32    29     7   ar
    33    15    10   ar
    34    26    17   ar
    35     1    32    1
    36     1    33    1
    37     1    34    1
    38     4    35    1
    39     5    36    1
    40     8    37    1
    41    11    38    1
    42    12    39    1
    43    13    40    1
    44    14    41    1
    45    15    42    1
    46    18    43    1
    47    19    44    1
    48    22    45    1
    49    22    46    1
    50    22    47    1
    51    25    48    1
    52    26    49    1
    53    30    50    1
    54    31    51    1
