@<TRIPOS>MOLECULE
*****
 45 47 0 0 0
SMALL
GASTEIGER

@<TRIPOS>ATOM
      1 O           2.7880    2.1111    0.6775 O.2     1  UNL1       -0.2524
      2 C           2.4947    1.0207    0.0324 C.2     1  UNL1        0.3050
      3 N           3.5803    0.4082   -0.5965 N.am    1  UNL1       -0.2811
      4 C           4.9278    0.9902   -0.3556 C.3     1  UNL1        0.0396
      5 C           5.8048   -0.1804    0.1003 C.3     1  UNL1        0.0635
      6 O           5.7219   -1.2806   -0.7086 O.3     1  UNL1       -0.3767
      7 C           4.4156   -1.7943   -0.7959 C.3     1  UNL1        0.0635
      8 C           3.6135   -0.7094   -1.4965 C.3     1  UNL1        0.0396
      9 N           1.1559    0.6519    0.0810 N.am    1  UNL1       -0.2825
     10 C           0.6340   -0.5642   -0.4704 C.3     1  UNL1        0.0319
     11 C          -0.6569   -0.9410    0.2857 C.3     1  UNL1        0.0281
     12 N          -1.6828    0.1009    0.1048 N.pl3   1  UNL1       -0.3266
     13 C          -3.0146   -0.3541    0.1289 C.ar    1  UNL1        0.0353
     14 C          -3.3526   -1.4939    0.8950 C.ar    1  UNL1       -0.0389
     15 C          -4.6339   -1.9624    0.9996 C.ar    1  UNL1       -0.0416
     16 C          -5.6561   -1.3295    0.3524 C.ar    1  UNL1        0.0414
     17 CL         -7.3227   -1.8615    0.4432 Cl      1  UNL1       -0.0835
     18 C          -5.3682   -0.2352   -0.3906 C.ar    1  UNL1       -0.0363
     19 C          -4.0550    0.2592   -0.5097 C.ar    1  UNL1        0.0002
     20 C          -3.7992    1.4505   -1.3664 C.3     1  UNL1        0.0710
     21 O          -4.9881    1.6716   -2.1185 O.3     1  UNL1       -0.3904
     22 C          -1.1823    1.4301   -0.0170 C.3     1  UNL1        0.0281
     23 C           0.1814    1.5583    0.7122 C.3     1  UNL1        0.0319
     24 H           5.2620    1.4176   -1.3007 H       1  UNL1        0.0488
     25 H           4.9202    1.7189    0.4520 H       1  UNL1        0.0488
     26 H           6.8467    0.1940    0.0774 H       1  UNL1        0.0575
     27 H           5.4951   -0.4264    1.1506 H       1  UNL1        0.0575
     28 H           4.0528   -1.9752    0.2359 H       1  UNL1        0.0575
     29 H           4.4157   -2.7352   -1.3483 H       1  UNL1        0.0575
     30 H           2.6906   -1.0272   -1.9498 H       1  UNL1        0.0488
     31 H           4.2964   -0.3773   -2.3534 H       1  UNL1        0.0488
     32 H           1.3060   -1.4390   -0.1990 H       1  UNL1        0.0480
     33 H           0.4386   -0.4881   -1.5358 H       1  UNL1        0.0480
     34 H          -0.9804   -1.9120   -0.1009 H       1  UNL1        0.0479
     35 H          -0.3494   -0.9953    1.3469 H       1  UNL1        0.0479
     36 H          -2.5083   -1.9719    1.3986 H       1  UNL1        0.0637
     37 H          -4.8386   -2.8305    1.5937 H       1  UNL1        0.0633
     38 H          -6.1596    0.2822   -0.9120 H       1  UNL1        0.0636
     39 H          -3.6749    2.3907   -0.8035 H       1  UNL1        0.0608
     40 H          -3.0201    1.2502   -2.1243 H       1  UNL1        0.0608
     41 H          -5.6018    2.1441   -1.5061 H       1  UNL1        0.2098
     42 H          -1.8093    2.1837    0.5174 H       1  UNL1        0.0479
     43 H          -0.9535    1.7048   -1.0597 H       1  UNL1        0.0479
     44 H           0.4964    2.5976    0.5644 H       1  UNL1        0.0480
     45 H           0.0699    1.3481    1.7911 H       1  UNL1        0.0480
@<TRIPOS>BOND
     1     1     2    2
     2     2     3   am
     3     3     4    1
     4     4     5    1
     5     5     6    1
     6     6     7    1
     7     7     8    1
     8     2     9   am
     9     9    10    1
    10    10    11    1
    11    11    12    1
    12    12    13    1
    13    13    14   ar
    14    14    15   ar
    15    15    16   ar
    16    16    17    1
    17    16    18   ar
    18    18    19   ar
    19    19    20    1
    20    20    21    1
    21    12    22    1
    22    22    23    1
    23     8     3    1
    24    23     9    1
    25    19    13   ar
    26     4    24    1
    27     4    25    1
    28     5    26    1
    29     5    27    1
    30     7    28    1
    31     7    29    1
    32     8    30    1
    33     8    31    1
    34    10    32    1
    35    10    33    1
    36    11    34    1
    37    11    35    1
    38    14    36    1
    39    15    37    1
    40    18    38    1
    41    20    39    1
    42    20    40    1
    43    21    41    1
    44    22    42    1
    45    22    43    1
    46    23    44    1
    47    23    45    1
