@<TRIPOS>MOLECULE
*****
 60 64 0 0 0
SMALL
GASTEIGER

@<TRIPOS>ATOM
      1 C          -4.6079   -2.9634    0.9634 C.3     1  UNL1       -0.0274
      2 C          -3.9870   -1.6225    1.1926 C.3     1  UNL1        0.1037
      3 O          -3.8474   -0.8575    0.0376 O.3     1  UNL1       -0.4725
      4 C          -2.6700   -0.3624   -0.4594 C.ar    1  UNL1        0.2265
      5 N          -1.4707   -0.5547    0.1140 N.ar    1  UNL1       -0.2121
      6 C          -0.3121   -0.0713   -0.3690 C.ar    1  UNL1        0.0798
      7 C           0.9523   -0.3314    0.3220 C.ar    1  UNL1        0.0380
      8 C           1.0720   -1.0643    1.4808 C.ar    1  UNL1        0.0586
      9 N           2.3709   -1.0933    1.8242 N.ar    1  UNL1       -0.1787
     10 N           3.0972   -0.4114    0.9387 N.ar    1  UNL1       -0.2677
     11 C           4.5105   -0.2561    1.0231 C.3     1  UNL1        0.0550
     12 C           5.0080    1.0827    0.5588 C.3     1  UNL1       -0.0176
     13 C           5.8196    0.9742   -0.7133 C.3     1  UNL1        0.0005
     14 N           6.9990    0.1501   -0.5259 N.3     1  UNL1       -0.3052
     15 C           7.9606    0.7840    0.3544 C.3     1  UNL1       -0.0128
     16 C           6.6630   -1.1299    0.0618 C.3     1  UNL1        0.0005
     17 C           5.1631   -1.3403    0.1632 C.3     1  UNL1       -0.0176
     18 C           2.2285    0.0643    0.0047 C.ar    1  UNL1        0.0350
     19 C          -0.3072    0.6848   -1.5396 C.ar    1  UNL1       -0.0076
     20 C          -1.5069    0.9068   -2.1593 C.ar    1  UNL1        0.0999
     21 N          -1.8007    1.5934   -3.2911 N.ar    1  UNL1       -0.1712
     22 N          -3.0958    1.5086   -3.4578 N.ar    1  UNL1       -0.2732
     23 C          -3.8569    2.1039   -4.5552 C.3     1  UNL1        0.0302
     24 C          -3.6693    0.7927   -2.4798 C.ar    1  UNL1        0.0380
     25 C          -2.6650    0.3878   -1.6209 C.ar    1  UNL1        0.0812
     26 C          -4.7920   -0.8018    2.2036 C.3     1  UNL1        0.0196
     27 C          -4.1259    0.5523    2.4063 C.3     1  UNL1        0.0182
     28 N          -4.7154    1.3927    1.3851 N.am    1  UNL1       -0.3149
     29 C          -5.8269    0.7429    0.7879 C.2     1  UNL1        0.2135
     30 O          -6.4600    1.0511   -0.2699 O.2     1  UNL1       -0.2758
     31 C          -6.1353   -0.4259    1.6679 C.3     1  UNL1        0.0315
     32 H          -3.8251   -3.6558    0.6212 H       1  UNL1        0.0265
     33 H          -4.9591   -3.3430    1.9531 H       1  UNL1        0.0265
     34 H          -5.4237   -2.9518    0.2142 H       1  UNL1        0.0265
     35 H          -2.9909   -1.7858    1.6761 H       1  UNL1        0.0734
     36 H           0.3102   -1.5587    2.0685 H       1  UNL1        0.0854
     37 H           4.8390   -0.4494    2.0630 H       1  UNL1        0.0545
     38 H           5.6799    1.5094    1.3318 H       1  UNL1        0.0298
     39 H           4.2121    1.8242    0.3831 H       1  UNL1        0.0298
     40 H           5.1946    0.5240   -1.4970 H       1  UNL1        0.0427
     41 H           6.1382    1.9693   -1.0363 H       1  UNL1        0.0427
     42 H           7.8560    0.4365    1.3966 H       1  UNL1        0.0391
     43 H           7.9623    1.8736    0.3037 H       1  UNL1        0.0391
     44 H           8.9690    0.4288    0.0189 H       1  UNL1        0.0391
     45 H           7.0283   -1.9049   -0.6520 H       1  UNL1        0.0427
     46 H           7.1514   -1.2892    1.0342 H       1  UNL1        0.0427
     47 H           4.7128   -1.4044   -0.8274 H       1  UNL1        0.0298
     48 H           5.0347   -2.2990    0.7360 H       1  UNL1        0.0298
     49 H           2.4970    0.6495   -0.8371 H       1  UNL1        0.0833
     50 H           0.6368    1.0411   -1.8752 H       1  UNL1        0.0661
     51 H          -4.1465    1.3161   -5.2900 H       1  UNL1        0.0473
     52 H          -3.3278    2.9540   -5.0070 H       1  UNL1        0.0473
     53 H          -4.7916    2.4988   -4.1146 H       1  UNL1        0.0473
     54 H          -4.7094    0.5407   -2.3288 H       1  UNL1        0.0834
     55 H          -4.8470   -1.3044    3.1833 H       1  UNL1        0.0356
     56 H          -4.3713    0.9487    3.4170 H       1  UNL1        0.0466
     57 H          -3.0465    0.4094    2.2688 H       1  UNL1        0.0466
     58 H          -4.3831    2.3389    1.1165 H       1  UNL1        0.1487
     59 H          -6.6451   -1.2383    1.1335 H       1  UNL1        0.0363
     60 H          -6.7476   -0.0503    2.4972 H       1  UNL1        0.0363
@<TRIPOS>BOND
     1     1     2    1
     2     2     3    1
     3     3     4    1
     4     4     5   ar
     5     5     6   ar
     6     6     7    1
     7     7     8   ar
     8     8     9   ar
     9     9    10   ar
    10    10    11    1
    11    11    12    1
    12    12    13    1
    13    13    14    1
    14    14    15    1
    15    14    16    1
    16    16    17    1
    17    10    18   ar
    18     6    19   ar
    19    19    20   ar
    20    20    21   ar
    21    21    22   ar
    22    22    23    1
    23    22    24   ar
    24    24    25   ar
    25     2    26    1
    26    26    27    1
    27    27    28    1
    28    28    29   am
    29    29    30    2
    30    29    31    1
    31    25     4   ar
    32    31    26    1
    33    18     7   ar
    34    25    20   ar
    35    17    11    1
    36     1    32    1
    37     1    33    1
    38     1    34    1
    39     2    35    1
    40     8    36    1
    41    11    37    1
    42    12    38    1
    43    12    39    1
    44    13    40    1
    45    13    41    1
    46    15    42    1
    47    15    43    1
    48    15    44    1
    49    16    45    1
    50    16    46    1
    51    17    47    1
    52    17    48    1
    53    18    49    1
    54    19    50    1
    55    23    51    1
    56    23    52    1
    57    23    53    1
    58    24    54    1
    59    26    55    1
    60    27    56    1
    61    27    57    1
    62    28    58    1
    63    31    59    1
    64    31    60    1
