@<TRIPOS>MOLECULE
*****
 46 47 0 0 0
SMALL
GASTEIGER

@<TRIPOS>ATOM
      1 C           5.4928    1.3495    1.3432 C.3     1  UNL1       -0.0306
      2 C           4.2959    1.5064    0.4467 C.3     1  UNL1        0.0900
      3 O           3.3587    0.4750    0.7833 O.3     1  UNL1       -0.4616
      4 C           2.1521    0.3858    0.1021 C.2     1  UNL1        0.3375
      5 O           2.2195    1.3407   -0.7145 O.2     1  UNL1       -0.2452
      6 C           1.1264   -0.6194    0.3594 C.2     1  UNL1        0.0652
      7 C           1.2830   -1.5459    1.2919 C.2     1  UNL1        0.0157
      8 C           2.5036   -1.6279    2.1359 C.3     1  UNL1       -0.0260
      9 N           0.2048   -2.4638    1.4373 N.pl3   1  UNL1       -0.3207
     10 C          -0.9973   -2.4606    0.6757 C.2     1  UNL1        0.0157
     11 C          -2.0645   -3.4496    0.8922 C.3     1  UNL1       -0.0260
     12 C          -1.0876   -1.5071   -0.2391 C.2     1  UNL1        0.0651
     13 C          -0.0546   -0.4645   -0.5254 C.3     1  UNL1        0.0508
     14 C          -0.7147    0.8550   -0.2963 C.ar    1  UNL1       -0.0287
     15 C          -0.8614    1.8155   -1.2769 C.ar    1  UNL1        0.0197
     16 C          -1.4786    3.0237   -1.0234 C.ar    1  UNL1        0.2734
     17 C          -1.9609    3.2738    0.2469 C.ar    1  UNL1        0.0156
     18 C          -1.8306    2.3366    1.2475 C.ar    1  UNL1       -0.0551
     19 C          -1.2143    1.1563    0.9540 C.ar    1  UNL1       -0.0572
     20 N          -1.6138    3.9930   -2.0569 N.pl3   1  UNL1        0.0796
     21 O          -1.1339    3.7415   -3.3174 O.co2   1  UNL1       -0.5760
     22 O          -2.1767    5.0788   -1.8006 O.2     1  UNL1        0.0414
     23 C          -2.2896   -1.4213   -1.0747 C.2     1  UNL1        0.3373
     24 O          -2.4925   -0.5509   -1.9860 O.2     1  UNL1       -0.2452
     25 O          -3.3284   -2.2926   -0.9462 O.3     1  UNL1       -0.4646
     26 C          -4.4857   -2.2019   -1.7580 C.3     1  UNL1        0.0820
     27 H           6.3794    1.8950    0.9559 H       1  UNL1        0.0262
     28 H           5.7513    0.2749    1.4715 H       1  UNL1        0.0262
     29 H           5.2478    1.7936    2.3290 H       1  UNL1        0.0262
     30 H           4.5994    1.4241   -0.5991 H       1  UNL1        0.0695
     31 H           3.8607    2.5030    0.6705 H       1  UNL1        0.0695
     32 H           2.6444   -0.6807    2.6846 H       1  UNL1        0.0290
     33 H           2.3830   -2.5007    2.8109 H       1  UNL1        0.0290
     34 H           3.3644   -1.7664    1.4446 H       1  UNL1        0.0290
     35 H           0.3300   -3.2054    2.1836 H       1  UNL1        0.1516
     36 H          -2.2517   -4.1218    0.0396 H       1  UNL1        0.0290
     37 H          -2.9985   -2.9578    1.2713 H       1  UNL1        0.0290
     38 H          -1.7522   -4.1158    1.7292 H       1  UNL1        0.0290
     39 H           0.2820   -0.5334   -1.5744 H       1  UNL1        0.0451
     40 H          -0.4645    1.5652   -2.2535 H       1  UNL1        0.0688
     41 H          -2.4362    4.2343    0.3954 H       1  UNL1        0.0685
     42 H          -2.2439    2.6419    2.1956 H       1  UNL1        0.0620
     43 H          -1.1192    0.4335    1.7445 H       1  UNL1        0.0621
     44 H          -4.2983   -1.5349   -2.6194 H       1  UNL1        0.0661
     45 H          -5.3699   -1.8658   -1.1747 H       1  UNL1        0.0661
     46 H          -4.7598   -3.2086   -2.1828 H       1  UNL1        0.0661
@<TRIPOS>UNITY_ATOM_ATTR
20 1
charge 1
21 1
charge -1
@<TRIPOS>BOND
     1     1     2    1
     2     2     3    1
     3     3     4    1
     4     4     5    2
     5     4     6    1
     6     6     7    2
     7     7     8    1
     8     7     9    1
     9     9    10    1
    10    10    11    1
    11    10    12    2
    12    12    13    1
    13    13    14    1
    14    14    15   ar
    15    15    16   ar
    16    16    17   ar
    17    17    18   ar
    18    18    19   ar
    19    16    20    1
    20    20    21    1
    21    20    22    2
    22    12    23    1
    23    23    24    2
    24    23    25    1
    25    25    26    1
    26    13     6    1
    27    19    14   ar
    28     1    27    1
    29     1    28    1
    30     1    29    1
    31     2    30    1
    32     2    31    1
    33     8    32    1
    34     8    33    1
    35     8    34    1
    36     9    35    1
    37    11    36    1
    38    11    37    1
    39    11    38    1
    40    13    39    1
    41    15    40    1
    42    17    41    1
    43    18    42    1
    44    19    43    1
    45    26    44    1
    46    26    45    1
    47    26    46    1
