@<TRIPOS>MOLECULE
*****
 102 108 0 0 0
SMALL
GASTEIGER

@<TRIPOS>ATOM
      1 C         -10.3519    5.3478   -1.2938 C.3     1  UNL1        0.0788
      2 O          -9.7761    4.8364   -0.1063 O.3     1  UNL1       -0.4951
      3 C          -9.6435    3.4701    0.0365 C.ar    1  UNL1        0.1202
      4 C         -10.0405    2.5621   -0.9133 C.ar    1  UNL1       -0.0179
      5 C          -9.8587    1.2227   -0.6606 C.ar    1  UNL1       -0.0327
      6 C          -9.2864    0.7495    0.5240 C.ar    1  UNL1        0.0677
      7 N          -9.1187   -0.6550    0.7408 N.ar    1  UNL1       -0.2181
      8 N          -9.9244   -1.4885    1.3564 N.ar    1  UNL1       -0.1694
      9 C          -9.4372   -2.7324    1.3651 C.ar    1  UNL1        0.0679
     10 C         -10.0867   -3.9409    1.9749 C.3     1  UNL1       -0.0025
     11 C          -9.1175   -4.7118    2.8094 C.3     1  UNL1       -0.0572
     12 C         -10.5539   -4.8864    0.8592 C.3     1  UNL1       -0.0572
     13 C          -8.2303   -2.6945    0.7073 C.ar    1  UNL1        0.0018
     14 C          -8.0503   -1.3791    0.3235 C.ar    1  UNL1        0.1299
     15 N          -6.9218   -0.9093   -0.3809 N.am    1  UNL1       -0.2538
     16 C          -5.7609   -0.3868    0.2980 C.2     1  UNL1        0.3092
     17 O          -5.7955   -0.3684    1.5269 O.2     1  UNL1       -0.2521
     18 N          -4.6363    0.0850   -0.4113 N.am    1  UNL1       -0.2686
     19 C          -3.4491    0.6215    0.1517 C.ar    1  UNL1        0.0427
     20 C          -3.2048    0.6460    1.4889 C.ar    1  UNL1       -0.0363
     21 C          -2.0549    1.1970    2.0247 C.ar    1  UNL1       -0.0169
     22 C          -1.0991    1.7498    1.2012 C.ar    1  UNL1        0.1381
     23 O           0.0601    2.3066    1.7160 O.3     1  UNL1       -0.4373
     24 C           1.2805    1.7259    1.4315 C.ar    1  UNL1        0.2249
     25 C           2.3863    2.3957    1.9693 C.ar    1  UNL1        0.0186
     26 C           3.6180    1.8555    1.7119 C.ar    1  UNL1        0.0362
     27 N           3.7364    0.7386    0.9783 N.ar    1  UNL1       -0.2225
     28 C           2.6923    0.0792    0.4524 C.ar    1  UNL1        0.2226
     29 N           2.7582   -1.0896   -0.3294 N.pl3   1  UNL1       -0.2834
     30 C           3.9574   -1.6946   -0.7329 C.ar    1  UNL1        0.0378
     31 C           3.8809   -2.9741   -1.2928 C.ar    1  UNL1        0.0013
     32 C           4.9924   -3.6491   -1.7255 C.ar    1  UNL1        0.1226
     33 O           4.8205   -4.9146   -2.2692 O.3     1  UNL1       -0.4950
     34 C           5.9010   -5.6911   -2.7475 C.3     1  UNL1        0.0788
     35 C           6.2369   -3.0551   -1.6090 C.ar    1  UNL1       -0.0077
     36 C           6.3765   -1.7921   -1.0643 C.ar    1  UNL1        0.0419
     37 C           7.6964   -1.1755   -0.9191 C.2     1  UNL1        0.2443
     38 O           8.7545   -1.8650   -1.0281 O.2     1  UNL1       -0.2702
     39 N           7.8746    0.2081   -0.6532 N.am    1  UNL1       -0.3101
     40 C           9.1453    0.8659   -0.4909 C.3     1  UNL1        0.0247
     41 C           9.9244    0.3283    0.6813 C.3     1  UNL1        0.0146
     42 N          11.2036    0.9791    0.8419 N.3     1  UNL1       -0.2965
     43 C          12.1509    0.6636   -0.2128 C.3     1  UNL1        0.0225
     44 C          13.5102    1.1629    0.2893 C.3     1  UNL1        0.0604
     45 O          13.3623    2.0253    1.3476 O.3     1  UNL1       -0.3772
     46 C          12.4193    3.0112    1.1889 C.3     1  UNL1        0.0604
     47 C          11.0451    2.4215    0.9087 C.3     1  UNL1        0.0225
     48 C           5.2081   -1.1676   -0.6483 C.ar    1  UNL1       -0.0281
     49 N           1.4602    0.6129    0.7058 N.ar    1  UNL1       -0.1789
     50 C          -1.3266    1.7370   -0.1611 C.ar    1  UNL1        0.0262
     51 C          -0.3684    2.3057   -0.9818 C.ar    1  UNL1       -0.0505
     52 C          -0.5735    2.3115   -2.3343 C.ar    1  UNL1       -0.0611
     53 C          -1.7059    1.7671   -2.8758 C.ar    1  UNL1       -0.0611
     54 C          -2.6784    1.1948   -2.0649 C.ar    1  UNL1       -0.0521
     55 C          -2.4933    1.1779   -0.7044 C.ar    1  UNL1        0.0069
     56 C          -8.8942    1.6713    1.4642 C.ar    1  UNL1       -0.0327
     57 C          -9.0707    3.0193    1.2237 C.ar    1  UNL1       -0.0179
     58 H          -9.8477    4.8419   -2.1506 H       1  UNL1        0.0660
     59 H         -10.2410    6.4495   -1.3552 H       1  UNL1        0.0660
     60 H         -11.4200    5.0256   -1.3241 H       1  UNL1        0.0660
     61 H         -10.4811    2.9105   -1.8284 H       1  UNL1        0.0655
     62 H         -10.1547    0.4821   -1.3774 H       1  UNL1        0.0640
     63 H         -11.0048   -3.6486    2.5136 H       1  UNL1        0.0359
     64 H          -9.5833   -5.7257    2.9877 H       1  UNL1        0.0236
     65 H          -8.2140   -4.9200    2.2001 H       1  UNL1        0.0236
     66 H          -8.8581   -4.2505    3.7666 H       1  UNL1        0.0236
     67 H         -10.7885   -5.8341    1.3574 H       1  UNL1        0.0236
     68 H          -9.7777   -4.9840    0.0736 H       1  UNL1        0.0236
     69 H         -11.4494   -4.4672    0.3817 H       1  UNL1        0.0236
     70 H          -7.5773   -3.5456    0.5413 H       1  UNL1        0.0671
     71 H          -6.9176   -0.9358   -1.4189 H       1  UNL1        0.1578
     72 H          -4.7323    0.0014   -1.4592 H       1  UNL1        0.1564
     73 H          -3.8990    0.2254    2.2116 H       1  UNL1        0.0637
     74 H          -1.8787    1.2075    3.0852 H       1  UNL1        0.0655
     75 H           2.3001    3.2900    2.5578 H       1  UNL1        0.0686
     76 H           4.4881    2.3753    2.1302 H       1  UNL1        0.0832
     77 H           1.8484   -1.5356   -0.6306 H       1  UNL1        0.1550
     78 H           2.9124   -3.4360   -1.3824 H       1  UNL1        0.0673
     79 H           6.1873   -5.2542   -3.7283 H       1  UNL1        0.0660
     80 H           5.5110   -6.7034   -2.9761 H       1  UNL1        0.0660
     81 H           6.7240   -5.7719   -2.0404 H       1  UNL1        0.0660
     82 H           7.1241   -3.5889   -1.9523 H       1  UNL1        0.0662
     83 H           6.9971    0.7995   -0.5715 H       1  UNL1        0.1490
     84 H           9.7548    0.8271   -1.4385 H       1  UNL1        0.0475
     85 H           8.9537    1.9411   -0.3027 H       1  UNL1        0.0475
     86 H           9.3365    0.6244    1.6032 H       1  UNL1        0.0442
     87 H          10.0048   -0.7626    0.5989 H       1  UNL1        0.0442
     88 H          11.9028    1.2858   -1.0823 H       1  UNL1        0.0449
     89 H          12.1373   -0.4173   -0.3900 H       1  UNL1        0.0449
     90 H          14.0958    1.5748   -0.5328 H       1  UNL1        0.0572
     91 H          14.0756    0.2679    0.6737 H       1  UNL1        0.0572
     92 H          12.3634    3.6011    2.1116 H       1  UNL1        0.0572
     93 H          12.7566    3.6952    0.3743 H       1  UNL1        0.0572
     94 H          10.3411    2.7326    1.6883 H       1  UNL1        0.0449
     95 H          10.7233    2.8515   -0.0492 H       1  UNL1        0.0449
     96 H           5.3249   -0.1938   -0.2362 H       1  UNL1        0.0644
     97 H           0.5173    2.7630   -0.6022 H       1  UNL1        0.0625
     98 H           0.1549    2.7445   -3.0195 H       1  UNL1        0.0618
     99 H          -1.8854    1.7572   -3.9276 H       1  UNL1        0.0618
    100 H          -3.5613    0.7751   -2.5024 H       1  UNL1        0.0624
    101 H          -8.4504    1.3586    2.3873 H       1  UNL1        0.0640
    102 H          -8.7561    3.7354    1.9759 H       1  UNL1        0.0655
@<TRIPOS>BOND
     1     1     2    1
     2     2     3    1
     3     3     4   ar
     4     4     5   ar
     5     5     6   ar
     6     6     7    1
     7     7     8   ar
     8     8     9   ar
     9     9    10    1
    10    10    11    1
    11    10    12    1
    12     9    13   ar
    13    13    14   ar
    14    14    15    1
    15    15    16   am
    16    16    17    2
    17    16    18   am
    18    18    19    1
    19    19    20   ar
    20    20    21   ar
    21    21    22   ar
    22    22    23    1
    23    23    24    1
    24    24    25   ar
    25    25    26   ar
    26    26    27   ar
    27    27    28   ar
    28    28    29    1
    29    29    30    1
    30    30    31   ar
    31    31    32   ar
    32    32    33    1
    33    33    34    1
    34    32    35   ar
    35    35    36   ar
    36    36    37    1
    37    37    38    2
    38    37    39   am
    39    39    40    1
    40    40    41    1
    41    41    42    1
    42    42    43    1
    43    43    44    1
    44    44    45    1
    45    45    46    1
    46    46    47    1
    47    36    48   ar
    48    28    49   ar
    49    22    50   ar
    50    50    51   ar
    51    51    52   ar
    52    52    53   ar
    53    53    54   ar
    54    54    55   ar
    55     6    56   ar
    56    56    57   ar
    57    57     3   ar
    58    14     7   ar
    59    55    19   ar
    60    49    24   ar
    61    55    50   ar
    62    48    30   ar
    63    47    42    1
    64     1    58    1
    65     1    59    1
    66     1    60    1
    67     4    61    1
    68     5    62    1
    69    10    63    1
    70    11    64    1
    71    11    65    1
    72    11    66    1
    73    12    67    1
    74    12    68    1
    75    12    69    1
    76    13    70    1
    77    15    71    1
    78    18    72    1
    79    20    73    1
    80    21    74    1
    81    25    75    1
    82    26    76    1
    83    29    77    1
    84    31    78    1
    85    34    79    1
    86    34    80    1
    87    34    81    1
    88    35    82    1
    89    39    83    1
    90    40    84    1
    91    40    85    1
    92    41    86    1
    93    41    87    1
    94    43    88    1
    95    43    89    1
    96    44    90    1
    97    44    91    1
    98    46    92    1
    99    46    93    1
   100    47    94    1
   101    47    95    1
   102    48    96    1
   103    51    97    1
   104    52    98    1
   105    53    99    1
   106    54   100    1
   107    56   101    1
   108    57   102    1
