@<TRIPOS>MOLECULE
*****
 30 30 0 0 0
SMALL
GASTEIGER

@<TRIPOS>ATOM
      1 C          -2.2902   -1.4544   -0.5450 C.3     1  UNL1       -0.0639
      2 C          -1.0641   -0.6724   -0.9556 C.3     1  UNL1       -0.0351
      3 C          -0.5394    0.0404    0.2583 C.3     1  UNL1        0.1045
      4 C          -1.6081    0.9746    0.7853 C.3     1  UNL1       -0.0351
      5 C          -2.0219    2.0071   -0.2087 C.3     1  UNL1       -0.0639
      6 C          -0.1900   -0.9278    1.3324 C.2     1  UNL1        0.2264
      7 O          -0.9597   -1.2691    2.2928 O.2     1  UNL1       -0.2747
      8 N           1.1140   -1.5435    1.3106 N.am    1  UNL1       -0.3138
      9 C           2.2864   -0.8184    0.8679 C.3     1  UNL1        0.0209
     10 C           1.9045   -0.0721   -0.4170 C.3     1  UNL1        0.0312
     11 C           3.0364    0.7306   -0.9718 C.3     1  UNL1       -0.0542
     12 C           0.7308    0.7710   -0.0203 C.2     1  UNL1        0.1524
     13 O           0.8820    1.9891    0.0503 O.2     1  UNL1       -0.2960
     14 H          -3.1420   -0.7245   -0.4587 H       1  UNL1        0.0230
     15 H          -2.5412   -2.2080   -1.3405 H       1  UNL1        0.0230
     16 H          -2.1436   -1.9782    0.4068 H       1  UNL1        0.0230
     17 H          -1.4132    0.0831   -1.6925 H       1  UNL1        0.0277
     18 H          -0.3180   -1.2784   -1.4726 H       1  UNL1        0.0277
     19 H          -1.2380    1.5001    1.7010 H       1  UNL1        0.0277
     20 H          -2.4734    0.3707    1.1271 H       1  UNL1        0.0277
     21 H          -3.0429    1.7634   -0.5889 H       1  UNL1        0.0230
     22 H          -1.3654    2.0743   -1.0987 H       1  UNL1        0.0230
     23 H          -2.1496    3.0077    0.2915 H       1  UNL1        0.0230
     24 H           1.1882   -2.5539    1.6319 H       1  UNL1        0.1487
     25 H           3.0650   -1.5704    0.6245 H       1  UNL1        0.0469
     26 H           2.6034   -0.1003    1.6362 H       1  UNL1        0.0469
     27 H           1.6517   -0.8582   -1.1498 H       1  UNL1        0.0390
     28 H           2.9591    0.7492   -2.0894 H       1  UNL1        0.0237
     29 H           3.9958    0.2148   -0.7709 H       1  UNL1        0.0237
     30 H           3.0835    1.7537   -0.5362 H       1  UNL1        0.0237
@<TRIPOS>BOND
     1     1     2    1
     2     2     3    1
     3     3     4    1
     4     4     5    1
     5     3     6    1
     6     6     7    2
     7     6     8   am
     8     8     9    1
     9     9    10    1
    10    10    11    1
    11    10    12    1
    12    12    13    2
    13    12     3    1
    14     1    14    1
    15     1    15    1
    16     1    16    1
    17     2    17    1
    18     2    18    1
    19     4    19    1
    20     4    20    1
    21     5    21    1
    22     5    22    1
    23     5    23    1
    24     8    24    1
    25     9    25    1
    26     9    26    1
    27    10    27    1
    28    11    28    1
    29    11    29    1
    30    11    30    1
