
     RDKit          3D

 31 31  0  0  0  0  0  0  0  0999 V2000
    4.1944    0.6024   -0.4612 C   0  0  2  0  0  0  0  0  0  0  0  0
    5.4919    1.0690   -0.0339 O   0  0  0  0  0  0  0  0  0  0  0  0
    3.2294    1.4385    0.2763 C   0  0  0  0  0  0  0  0  0  0  0  0
    1.8563    1.2259    0.0793 N   0  0  0  0  0  0  0  0  0  0  0  0
    0.8159    0.3132    0.2673 C   0  0  0  0  0  0  0  0  0  0  0  0
    1.0556   -0.7601    0.8453 O   0  0  0  0  0  0  0  0  0  0  0  0
   -0.5399    0.4078   -0.1093 N   0  0  0  0  0  0  0  0  0  0  0  0
   -1.3180   -0.7732    0.2722 C   0  0  0  0  0  0  0  0  0  0  0  0
   -2.7196   -0.6259   -0.1426 C   0  0  0  0  0  0  0  0  0  0  0  0
   -3.2330   -1.0317   -1.3689 C   0  0  0  0  0  0  0  0  0  0  0  0
   -4.5907   -0.8314   -1.6359 C   0  0  0  0  0  0  0  0  0  0  0  0
   -5.4590   -0.2449   -0.7357 C   0  0  0  0  0  0  0  0  0  0  0  0
   -4.9354    0.1571    0.4872 C   0  0  0  0  0  0  0  0  0  0  0  0
   -3.6050   -0.0380    0.7517 C   0  0  0  0  0  0  0  0  0  0  0  0
    4.1069   -0.8386   -0.2824 C   0  0  0  0  0  0  0  0  0  0  0  0
    5.0680   -1.4699    0.4717 O   0  0  0  0  0  0  0  0  0  0  0  0
    3.3092   -1.7417   -0.6720 O   0  0  0  0  0  0  0  0  0  0  0  0
    4.1683    0.8017   -1.5681 H   0  0  0  0  0  0  0  0  0  0  0  0
    5.4434    2.0404   -0.3007 H   0  0  0  0  0  0  0  0  0  0  0  0
    3.4404    2.5307    0.1727 H   0  0  0  0  0  0  0  0  0  0  0  0
    3.4213    1.2482    1.4074 H   0  0  0  0  0  0  0  0  0  0  0  0
    1.3943    2.0683   -0.4057 H   0  0  0  0  0  0  0  0  0  0  0  0
   -0.8312    1.2906   -0.6077 H   0  0  0  0  0  0  0  0  0  0  0  0
   -1.2350   -0.9162    1.3684 H   0  0  0  0  0  0  0  0  0  0  0  0
   -0.8634   -1.6517   -0.2349 H   0  0  0  0  0  0  0  0  0  0  0  0
   -2.5563   -1.4891   -2.0712 H   0  0  0  0  0  0  0  0  0  0  0  0
   -4.9845   -1.1512   -2.5966 H   0  0  0  0  0  0  0  0  0  0  0  0
   -6.4904   -0.1271   -1.0191 H   0  0  0  0  0  0  0  0  0  0  0  0
   -5.6359    0.6056    1.1560 H   0  0  0  0  0  0  0  0  0  0  0  0
   -3.3170    0.3173    1.7380 H   0  0  0  0  0  0  0  0  0  0  0  0
    5.3190   -2.4260    0.3902 H   0  0  0  0  0  0  0  0  0  0  0  0
  1  2  1  0
  1  3  1  0
  3  4  1  0
  4  5  1  0
  5  6  2  0
  5  7  1  0
  7  8  1  0
  8  9  1  0
  9 10  2  0
 10 11  1  0
 11 12  2  0
 12 13  1  0
 13 14  2  0
  1 15  1  0
 15 16  1  0
 15 17  2  0
 14  9  1  0
  1 18  1  6
  2 19  1  0
  3 20  1  0
  3 21  1  0
  4 22  1  0
  7 23  1  0
  8 24  1  0
  8 25  1  0
 10 26  1  0
 11 27  1  0
 12 28  1  0
 13 29  1  0
 14 30  1  0
 16 31  1  0
M  END
$$$$
