@<TRIPOS>MOLECULE
*****
 31 31 0 0 0
SMALL
GASTEIGER

@<TRIPOS>ATOM
      1 C           4.1944    0.6024   -0.4612 C.3     1  UNL1        0.1668
      2 O           5.4919    1.0690   -0.0339 O.3     1  UNL1       -0.3791
      3 C           3.2294    1.4385    0.2763 C.3     1  UNL1        0.0495
      4 N           1.8563    1.2259    0.0793 N.am    1  UNL1       -0.2964
      5 C           0.8159    0.3132    0.2673 C.2     1  UNL1        0.3000
      6 O           1.0556   -0.7601    0.8453 O.2     1  UNL1       -0.2529
      7 N          -0.5399    0.4078   -0.1093 N.am    1  UNL1       -0.2953
      8 C          -1.3180   -0.7732    0.2722 C.3     1  UNL1        0.0383
      9 C          -2.7196   -0.6259   -0.1426 C.ar    1  UNL1       -0.0303
     10 C          -3.2330   -1.0317   -1.3689 C.ar    1  UNL1       -0.0571
     11 C          -4.5907   -0.8314   -1.6359 C.ar    1  UNL1       -0.0615
     12 C          -5.4590   -0.2449   -0.7357 C.ar    1  UNL1       -0.0617
     13 C          -4.9354    0.1571    0.4872 C.ar    1  UNL1       -0.0615
     14 C          -3.6050   -0.0380    0.7517 C.ar    1  UNL1       -0.0571
     15 C           4.1069   -0.8386   -0.2824 C.2     1  UNL1        0.3352
     16 O           5.0680   -1.4699    0.4717 O.3     1  UNL1       -0.4788
     17 O           3.3092   -1.7417   -0.6720 O.2     1  UNL1       -0.2480
     18 H           4.1683    0.8017   -1.5681 H       1  UNL1        0.0726
     19 H           5.4434    2.0404   -0.3007 H       1  UNL1        0.2106
     20 H           3.4404    2.5307    0.1727 H       1  UNL1        0.0493
     21 H           3.4213    1.2482    1.4074 H       1  UNL1        0.0493
     22 H           1.3943    2.0683   -0.4057 H       1  UNL1        0.1503
     23 H          -0.8312    1.2906   -0.6077 H       1  UNL1        0.1506
     24 H          -1.2350   -0.9162    1.3684 H       1  UNL1        0.0512
     25 H          -0.8634   -1.6517   -0.2349 H       1  UNL1        0.0512
     26 H          -2.5563   -1.4891   -2.0712 H       1  UNL1        0.0621
     27 H          -4.9845   -1.1512   -2.5966 H       1  UNL1        0.0618
     28 H          -6.4904   -0.1271   -1.0191 H       1  UNL1        0.0618
     29 H          -5.6359    0.6056    1.1560 H       1  UNL1        0.0618
     30 H          -3.3170    0.3173    1.7380 H       1  UNL1        0.0621
     31 H           5.3190   -2.4260    0.3902 H       1  UNL1        0.2951
@<TRIPOS>BOND
     1     1     2    1
     2     1     3    1
     3     3     4    1
     4     4     5   am
     5     5     6    2
     6     5     7   am
     7     7     8    1
     8     8     9    1
     9     9    10   ar
    10    10    11   ar
    11    11    12   ar
    12    12    13   ar
    13    13    14   ar
    14     1    15    1
    15    15    16    1
    16    15    17    2
    17    14     9   ar
    18     1    18    1
    19     2    19    1
    20     3    20    1
    21     3    21    1
    22     4    22    1
    23     7    23    1
    24     8    24    1
    25     8    25    1
    26    10    26    1
    27    11    27    1
    28    12    28    1
    29    13    29    1
    30    14    30    1
    31    16    31    1
