
     RDKit          3D

 48 49  0  0  0  0  0  0  0  0999 V2000
   -3.7173    5.0831    0.6031 F   0  0  0  0  0  0  0  0  0  0  0  0
   -4.2590    4.6078   -0.5631 C   0  0  0  0  0  0  0  0  0  0  0  0
   -5.4850    5.1471   -0.8117 F   0  0  0  0  0  0  0  0  0  0  0  0
   -3.3850    4.8738   -1.5991 F   0  0  0  0  0  0  0  0  0  0  0  0
   -4.4413    3.0968   -0.4573 C   0  0  0  0  0  0  0  0  0  0  0  0
   -3.1825    2.5647   -0.2444 O   0  0  0  0  0  0  0  0  0  0  0  0
   -2.9514    1.2010   -0.0869 C   0  0  0  0  0  0  0  0  0  0  0  0
   -1.7256    0.4891    0.1374 C   0  0  0  0  0  0  0  0  0  0  0  0
   -1.4823   -0.9886    0.3090 C   0  0  0  0  0  0  0  0  0  0  0  0
   -0.1306   -0.6684    0.4516 C   0  0  0  0  0  0  0  0  0  0  0  0
   -0.1205   -1.9374    0.6685 O   0  0  0  0  0  0  0  0  0  0  0  0
    1.0037    0.0858    0.4910 N   0  0  0  0  0  0  0  0  0  0  0  0
    2.1966   -0.7165    0.8077 C   0  0  0  0  0  0  0  0  0  0  0  0
    3.4031    0.2073    0.7740 C   0  0  0  0  0  0  0  0  0  0  0  0
    4.6532   -0.6238    1.1152 C   0  0  0  0  0  0  0  0  0  0  0  0
    5.7586    0.4267    1.1795 C   0  0  0  0  0  0  0  0  0  0  0  0
    5.9520    1.0770   -0.1609 C   0  0  0  0  0  0  0  0  0  0  0  0
    4.7219    1.3761   -0.9295 C   0  0  0  0  0  0  0  0  0  0  0  0
    3.5544    0.7100   -0.5357 N   0  0  0  0  0  0  0  0  0  0  0  0
   -2.7606   -1.2913    0.1741 C   0  0  0  0  0  0  0  0  0  0  0  0
   -2.3496   -2.6694    0.3564 O   0  0  0  0  0  0  0  0  0  0  0  0
   -3.3310   -3.6534    0.3232 C   0  0  0  0  0  0  0  0  0  0  0  0
   -2.7069   -5.0382    0.5262 C   0  0  0  0  0  0  0  0  0  0  0  0
   -2.0658   -5.0856    1.7460 F   0  0  0  0  0  0  0  0  0  0  0  0
   -3.7557   -5.9403    0.6105 F   0  0  0  0  0  0  0  0  0  0  0  0
   -1.8857   -5.3676   -0.5198 F   0  0  0  0  0  0  0  0  0  0  0  0
   -4.0112   -0.8788   -0.0252 C   0  0  0  0  0  0  0  0  0  0  0  0
   -4.1308    0.4612   -0.1679 C   0  0  0  0  0  0  0  0  0  0  0  0
   -5.2051    2.8325    0.2957 H   0  0  0  0  0  0  0  0  0  0  0  0
   -4.8730    2.7934   -1.4499 H   0  0  0  0  0  0  0  0  0  0  0  0
   -1.1332    1.4698    0.1216 H   0  0  0  0  0  0  0  0  0  0  0  0
    0.6840    1.0259    0.2792 H   0  0  0  0  0  0  0  0  0  0  0  0
    2.3620   -1.4864    0.0371 H   0  0  0  0  0  0  0  0  0  0  0  0
    2.0767   -1.0790    1.8337 H   0  0  0  0  0  0  0  0  0  0  0  0
    3.3408    0.9821    1.5615 H   0  0  0  0  0  0  0  0  0  0  0  0
    4.6076   -1.0769    2.1045 H   0  0  0  0  0  0  0  0  0  0  0  0
    4.7928   -1.3216    0.2680 H   0  0  0  0  0  0  0  0  0  0  0  0
    6.6904   -0.1063    1.4441 H   0  0  0  0  0  0  0  0  0  0  0  0
    5.4463    1.1743    1.9363 H   0  0  0  0  0  0  0  0  0  0  0  0
    6.7110    0.4983   -0.7696 H   0  0  0  0  0  0  0  0  0  0  0  0
    6.4645    2.0666    0.0271 H   0  0  0  0  0  0  0  0  0  0  0  0
    4.5760    2.4828   -1.1110 H   0  0  0  0  0  0  0  0  0  0  0  0
    4.9467    1.0035   -1.9962 H   0  0  0  0  0  0  0  0  0  0  0  0
    2.8987    0.4123   -1.2581 H   0  0  0  0  0  0  0  0  0  0  0  0
   -3.8556   -3.6723   -0.6573 H   0  0  0  0  0  0  0  0  0  0  0  0
   -4.0715   -3.5380    1.1423 H   0  0  0  0  0  0  0  0  0  0  0  0
   -4.6791   -1.7370   -0.0298 H   0  0  0  0  0  0  0  0  0  0  0  0
   -5.1455    0.7281   -0.3221 H   0  0  0  0  0  0  0  0  0  0  0  0
  1  2  1  0
  2  3  1  0
  2  4  1  0
  2  5  1  0
  5  6  1  0
  6  7  1  0
  7  8  2  0
  8  9  1  0
  9 10  1  0
 10 11  2  0
 10 12  1  0
 12 13  1  0
 13 14  1  0
 14 15  1  0
 15 16  1  0
 16 17  1  0
 17 18  1  0
 18 19  1  0
  9 20  2  0
 20 21  1  0
 21 22  1  0
 22 23  1  0
 23 24  1  0
 23 25  1  0
 23 26  1  0
 20 27  1  0
 27 28  2  0
 28  7  1  0
 19 14  1  0
  5 29  1  0
  5 30  1  0
  8 31  1  0
 12 32  1  0
 13 33  1  0
 13 34  1  0
 14 35  1  0
 15 36  1  0
 15 37  1  0
 16 38  1  0
 16 39  1  0
 17 40  1  0
 17 41  1  0
 18 42  1  0
 18 43  1  0
 19 44  1  0
 22 45  1  0
 22 46  1  0
 27 47  1  0
 28 48  1  0
M  END
$$$$
