@<TRIPOS>MOLECULE
*****
 48 49 0 0 0
SMALL
GASTEIGER

@<TRIPOS>ATOM
      1 F          -3.7173    5.0831    0.6031 F       1  UNL1       -0.1671
      2 C          -4.2590    4.6078   -0.5631 C.3     1  UNL1        0.4236
      3 F          -5.4850    5.1471   -0.8117 F       1  UNL1       -0.1671
      4 F          -3.3850    4.8738   -1.5991 F       1  UNL1       -0.1671
      5 C          -4.4413    3.0968   -0.4573 C.3     1  UNL1        0.1842
      6 O          -3.1825    2.5647   -0.2444 O.3     1  UNL1       -0.4830
      7 C          -2.9514    1.2010   -0.0869 C.ar    1  UNL1        0.1219
      8 C          -1.7256    0.4891    0.1374 C.ar    1  UNL1       -0.0043
      9 C          -1.4823   -0.9886    0.3090 C.ar    1  UNL1        0.0817
     10 C          -0.1306   -0.6684    0.4516 C.2     1  UNL1        0.2478
     11 O          -0.1205   -1.9374    0.6685 O.2     1  UNL1       -0.2701
     12 N           1.0037    0.0858    0.4910 N.am    1  UNL1       -0.3098
     13 C           2.1966   -0.7165    0.8077 C.3     1  UNL1        0.0273
     14 C           3.4031    0.2073    0.7740 C.3     1  UNL1        0.0231
     15 C           4.6532   -0.6238    1.1152 C.3     1  UNL1       -0.0361
     16 C           5.7586    0.4267    1.1795 C.3     1  UNL1       -0.0504
     17 C           5.9520    1.0770   -0.1609 C.3     1  UNL1       -0.0404
     18 C           4.7219    1.3761   -0.9295 C.3     1  UNL1       -0.0038
     19 N           3.5544    0.7100   -0.5357 N.3     1  UNL1       -0.3118
     20 C          -2.7606   -1.2913    0.1741 C.ar    1  UNL1        0.1332
     21 O          -2.3496   -2.6694    0.3564 O.3     1  UNL1       -0.4823
     22 C          -3.3310   -3.6534    0.3232 C.3     1  UNL1        0.1842
     23 C          -2.7069   -5.0382    0.5262 C.3     1  UNL1        0.4236
     24 F          -2.0658   -5.0856    1.7460 F       1  UNL1       -0.1671
     25 F          -3.7557   -5.9403    0.6105 F       1  UNL1       -0.1671
     26 F          -1.8857   -5.3676   -0.5198 F       1  UNL1       -0.1671
     27 C          -4.0112   -0.8788   -0.0252 C.ar    1  UNL1       -0.0157
     28 C          -4.1308    0.4612   -0.1679 C.ar    1  UNL1       -0.0164
     29 H          -5.2051    2.8325    0.2957 H       1  UNL1        0.0788
     30 H          -4.8730    2.7934   -1.4499 H       1  UNL1        0.0788
     31 H          -1.1332    1.4698    0.1216 H       1  UNL1        0.0663
     32 H           0.6840    1.0259    0.2792 H       1  UNL1        0.1491
     33 H           2.3620   -1.4864    0.0371 H       1  UNL1        0.0477
     34 H           2.0767   -1.0790    1.8337 H       1  UNL1        0.0477
     35 H           3.3408    0.9821    1.5615 H       1  UNL1        0.0476
     36 H           4.6076   -1.0769    2.1045 H       1  UNL1        0.0281
     37 H           4.7928   -1.3216    0.2680 H       1  UNL1        0.0281
     38 H           6.6904   -0.1063    1.4441 H       1  UNL1        0.0266
     39 H           5.4463    1.1743    1.9363 H       1  UNL1        0.0266
     40 H           6.7110    0.4983   -0.7696 H       1  UNL1        0.0277
     41 H           6.4645    2.0666    0.0271 H       1  UNL1        0.0277
     42 H           4.5760    2.4828   -1.1110 H       1  UNL1        0.0424
     43 H           4.9467    1.0035   -1.9962 H       1  UNL1        0.0424
     44 H           2.8987    0.4123   -1.2581 H       1  UNL1        0.1223
     45 H          -3.8556   -3.6723   -0.6573 H       1  UNL1        0.0788
     46 H          -4.0715   -3.5380    1.1423 H       1  UNL1        0.0788
     47 H          -4.6791   -1.7370   -0.0298 H       1  UNL1        0.0655
     48 H          -5.1455    0.7281   -0.3221 H       1  UNL1        0.0655
@<TRIPOS>BOND
     1     1     2    1
     2     2     3    1
     3     2     4    1
     4     2     5    1
     5     5     6    1
     6     6     7    1
     7     7     8   ar
     8     8     9   ar
     9     9    10    1
    10    10    11    2
    11    10    12   am
    12    12    13    1
    13    13    14    1
    14    14    15    1
    15    15    16    1
    16    16    17    1
    17    17    18    1
    18    18    19    1
    19     9    20   ar
    20    20    21    1
    21    21    22    1
    22    22    23    1
    23    23    24    1
    24    23    25    1
    25    23    26    1
    26    20    27   ar
    27    27    28   ar
    28    28     7   ar
    29    19    14    1
    30     5    29    1
    31     5    30    1
    32     8    31    1
    33    12    32    1
    34    13    33    1
    35    13    34    1
    36    14    35    1
    37    15    36    1
    38    15    37    1
    39    16    38    1
    40    16    39    1
    41    17    40    1
    42    17    41    1
    43    18    42    1
    44    18    43    1
    45    19    44    1
    46    22    45    1
    47    22    46    1
    48    27    47    1
    49    28    48    1
