@<TRIPOS>MOLECULE
*****
 43 43 0 0 0
SMALL
GASTEIGER

@<TRIPOS>ATOM
      1 C          -5.6803    2.1059   -0.1690 C.3     1  UNL1        0.0671
      2 N          -5.3619    1.2589   -1.3012 N.pl3   1  UNL1       -0.2362
      3 C          -4.3347    0.3147   -1.0080 C.2     1  UNL1        0.3260
      4 N          -2.9347    0.3022   -0.6620 N.pl3   1  UNL1       -0.2327
      5 C          -2.8125   -0.1110    0.7023 C.3     1  UNL1        0.0871
      6 C          -1.3852   -0.1664    1.2015 C.3     1  UNL1        0.0301
      7 S          -0.5331    1.4109    1.1185 S.3     1  UNL1       -0.1493
      8 C           1.1377    1.1503    1.7743 C.3     1  UNL1        0.0519
      9 C           1.9598    0.2594    0.9255 C.ar    1  UNL1        0.1151
     10 C           2.0559   -1.1133    1.0185 C.ar    1  UNL1       -0.0196
     11 C           2.9407   -1.5527    0.0280 C.ar    1  UNL1       -0.0191
     12 C           3.3322   -0.3995   -0.6139 C.ar    1  UNL1        0.1192
     13 C           4.2877   -0.3312   -1.7651 C.3     1  UNL1        0.0566
     14 N           5.6478   -0.1780   -1.2870 N.3     1  UNL1       -0.3013
     15 C           5.9655   -1.3154   -0.4542 C.3     1  UNL1       -0.0126
     16 C           5.6904    1.0559   -0.4984 C.3     1  UNL1       -0.0126
     17 O           2.7342    0.6267   -0.0553 O.2     1  UNL1       -0.4624
     18 C          -4.8347   -0.9294   -1.0783 C.2     1  UNL1        0.3211
     19 N          -6.2014   -1.2596   -1.4009 N.pl3   1  UNL1        0.0799
     20 O          -7.0893   -1.5146   -0.3580 O.co2   1  UNL1       -0.5763
     21 O          -7.0803   -1.4518   -2.2633 O.2     1  UNL1        0.0411
     22 H          -4.9155    2.9106   -0.0416 H       1  UNL1        0.0687
     23 H          -6.6625    2.6065   -0.3427 H       1  UNL1        0.0687
     24 H          -5.7727    1.4672    0.7395 H       1  UNL1        0.0687
     25 H          -5.7737    1.2601   -2.2522 H       1  UNL1        0.2910
     26 H          -2.2439    0.5838   -1.4162 H       1  UNL1        0.2913
     27 H          -3.4677    0.4644    1.3657 H       1  UNL1        0.0732
     28 H          -3.1897   -1.1624    0.7539 H       1  UNL1        0.0732
     29 H          -1.3646   -0.5222    2.2491 H       1  UNL1        0.0413
     30 H          -0.7964   -0.8996    0.6207 H       1  UNL1        0.0413
     31 H           1.1003    0.6526    2.7873 H       1  UNL1        0.0456
     32 H           1.6657    2.1051    1.9500 H       1  UNL1        0.0456
     33 H           1.5181   -1.7022    1.7497 H       1  UNL1        0.0652
     34 H           3.2276   -2.5860   -0.1587 H       1  UNL1        0.0652
     35 H           4.0205    0.5342   -2.3795 H       1  UNL1        0.0506
     36 H           4.2466   -1.2446   -2.3587 H       1  UNL1        0.0506
     37 H           7.0470   -1.4022   -0.2307 H       1  UNL1        0.0391
     38 H           5.6457   -2.2374   -0.9727 H       1  UNL1        0.0391
     39 H           5.4109   -1.2069    0.5156 H       1  UNL1        0.0391
     40 H           4.8562    1.7283   -0.7491 H       1  UNL1        0.0391
     41 H           5.5579    0.7529    0.5622 H       1  UNL1        0.0391
     42 H           6.6547    1.5742   -0.6694 H       1  UNL1        0.0391
     43 H          -4.2684   -1.8384   -0.9005 H       1  UNL1        0.1524
@<TRIPOS>UNITY_ATOM_ATTR
19 1
charge 1
20 1
charge -1
@<TRIPOS>BOND
     1     1     2    1
     2     2     3    1
     3     3     4    1
     4     4     5    1
     5     5     6    1
     6     6     7    1
     7     7     8    1
     8     8     9    1
     9     9    10   ar
    10    10    11   ar
    11    11    12   ar
    12    12    13    1
    13    13    14    1
    14    14    15    1
    15    14    16    1
    16    12    17   ar
    17     3    18    2
    18    18    19    1
    19    19    20    1
    20    19    21    2
    21    17     9   ar
    22     1    22    1
    23     1    23    1
    24     1    24    1
    25     2    25    1
    26     4    26    1
    27     5    27    1
    28     5    28    1
    29     6    29    1
    30     6    30    1
    31     8    31    1
    32     8    32    1
    33    10    33    1
    34    11    34    1
    35    13    35    1
    36    13    36    1
    37    15    37    1
    38    15    38    1
    39    15    39    1
    40    16    40    1
    41    16    41    1
    42    16    42    1
    43    18    43    1
