@<TRIPOS>MOLECULE
*****
 54 56 0 0 0
SMALL
GASTEIGER

@<TRIPOS>ATOM
      1 C          -3.5954    0.2253    1.0718 C.3     1  UNL1        0.0172
      2 N          -3.5222   -1.2102    1.1602 N.3     1  UNL1       -0.3265
      3 C          -2.2861    0.8083    1.5463 C.3     1  UNL1        0.0396
      4 C          -1.1891    0.2949    0.6885 C.2     1  UNL1        0.2173
      5 O          -1.0940   -0.4981   -0.3113 O.2     1  UNL1       -0.2755
      6 N           0.1125    0.8102    1.0616 N.am    1  UNL1       -0.2969
      7 C           0.4896    1.7439    2.1365 C.3     1  UNL1        0.0151
      8 C           1.5838    2.6109    1.6079 C.3     1  UNL1       -0.0354
      9 C           1.8917    1.9956    0.2530 C.3     1  UNL1       -0.0314
     10 C           1.4533    0.5705    0.4984 C.3     1  UNL1        0.0415
     11 C           2.3827   -0.0857    1.4602 C.3     1  UNL1        0.0305
     12 N           3.6781   -0.2991    0.8656 N.am    1  UNL1       -0.3096
     13 C           3.9441   -1.0833   -0.2888 C.2     1  UNL1        0.2441
     14 O           2.9797   -1.6541   -0.8626 O.2     1  UNL1       -0.2702
     15 C           5.2651   -1.2844   -0.8726 C.ar    1  UNL1        0.0367
     16 C           5.3704   -2.0861   -1.9876 C.ar    1  UNL1       -0.0496
     17 C           6.5962   -2.3224   -2.5976 C.ar    1  UNL1       -0.0610
     18 C           7.7639   -1.7551   -2.1013 C.ar    1  UNL1       -0.0617
     19 C           7.6664   -0.9466   -0.9789 C.ar    1  UNL1       -0.0610
     20 C           6.4337   -0.7344   -0.4001 C.ar    1  UNL1       -0.0496
     21 C          -3.8991    0.7247   -0.3133 C.3     1  UNL1       -0.0093
     22 C          -5.2202    0.1992   -0.8006 C.ar    1  UNL1       -0.0107
     23 C          -5.3748   -1.1121   -1.2421 C.ar    1  UNL1        0.1266
     24 F          -4.3177   -1.9494   -1.2397 F       1  UNL1       -0.2052
     25 C          -6.5853   -1.5985   -1.6894 C.ar    1  UNL1       -0.0262
     26 C          -7.6727   -0.7306   -1.6894 C.ar    1  UNL1       -0.0590
     27 C          -7.5898    0.5983   -1.2601 C.ar    1  UNL1       -0.0613
     28 C          -6.3421    0.9980   -0.8304 C.ar    1  UNL1       -0.0558
     29 H          -4.3961    0.5880    1.7690 H       1  UNL1        0.0466
     30 H          -4.0301   -1.5231    2.0333 H       1  UNL1        0.1185
     31 H          -2.5370   -1.5169    1.2093 H       1  UNL1        0.1185
     32 H          -2.1052    0.5530    2.6201 H       1  UNL1        0.0374
     33 H          -2.4014    1.9254    1.4313 H       1  UNL1        0.0374
     34 H          -0.3711    2.3911    2.4040 H       1  UNL1        0.0465
     35 H           0.7284    1.1603    3.0318 H       1  UNL1        0.0465
     36 H           2.4843    2.5203    2.2407 H       1  UNL1        0.0281
     37 H           1.2910    3.6761    1.5060 H       1  UNL1        0.0281
     38 H           1.2285    2.4113   -0.5167 H       1  UNL1        0.0284
     39 H           2.9607    2.0952    0.0261 H       1  UNL1        0.0284
     40 H           1.3787   -0.0146   -0.4359 H       1  UNL1        0.0516
     41 H           1.9189   -1.0578    1.7959 H       1  UNL1        0.0480
     42 H           2.5293    0.4891    2.3773 H       1  UNL1        0.0480
     43 H           4.5552    0.1380    1.2741 H       1  UNL1        0.1491
     44 H           4.5162   -2.5787   -2.4560 H       1  UNL1        0.0625
     45 H           6.6986   -2.9566   -3.4838 H       1  UNL1        0.0618
     46 H           8.7542   -1.8797   -2.5047 H       1  UNL1        0.0618
     47 H           8.5425   -0.4760   -0.5449 H       1  UNL1        0.0618
     48 H           6.3949   -0.1090    0.4587 H       1  UNL1        0.0625
     49 H          -3.0998    0.4219   -1.0042 H       1  UNL1        0.0329
     50 H          -3.9908    1.8242   -0.2973 H       1  UNL1        0.0329
     51 H          -6.6596   -2.6166   -2.0215 H       1  UNL1        0.0646
     52 H          -8.6307   -1.0903   -2.0358 H       1  UNL1        0.0618
     53 H          -8.4551    1.2448   -1.2736 H       1  UNL1        0.0618
     54 H          -6.2273    2.0207   -0.4874 H       1  UNL1        0.0621
@<TRIPOS>BOND
     1     1     2    1
     2     1     3    1
     3     3     4    1
     4     4     5    2
     5     4     6   am
     6     6     7    1
     7     7     8    1
     8     8     9    1
     9     9    10    1
    10    10    11    1
    11    11    12    1
    12    12    13   am
    13    13    14    2
    14    13    15    1
    15    15    16   ar
    16    16    17   ar
    17    17    18   ar
    18    18    19   ar
    19    19    20   ar
    20     1    21    1
    21    21    22    1
    22    22    23   ar
    23    23    24    1
    24    23    25   ar
    25    25    26   ar
    26    26    27   ar
    27    27    28   ar
    28    10     6    1
    29    20    15   ar
    30    28    22   ar
    31     1    29    1
    32     2    30    1
    33     2    31    1
    34     3    32    1
    35     3    33    1
    36     7    34    1
    37     7    35    1
    38     8    36    1
    39     8    37    1
    40     9    38    1
    41     9    39    1
    42    10    40    1
    43    11    41    1
    44    11    42    1
    45    12    43    1
    46    16    44    1
    47    17    45    1
    48    18    46    1
    49    19    47    1
    50    20    48    1
    51    21    49    1
    52    21    50    1
    53    25    51    1
    54    26    52    1
    55    27    53    1
    56    28    54    1
