
     RDKit          3D

 54 56  0  0  0  0  0  0  0  0999 V2000
   -3.5954    0.2253    1.0718 C   0  0  1  0  0  0  0  0  0  0  0  0
   -3.5222   -1.2102    1.1602 N   0  0  0  0  0  0  0  0  0  0  0  0
   -2.2861    0.8083    1.5463 C   0  0  0  0  0  0  0  0  0  0  0  0
   -1.1891    0.2949    0.6885 C   0  0  0  0  0  0  0  0  0  0  0  0
   -1.0940   -0.4981   -0.3113 O   0  0  0  0  0  0  0  0  0  0  0  0
    0.1125    0.8102    1.0616 N   0  0  0  0  0  0  0  0  0  0  0  0
    0.4896    1.7439    2.1365 C   0  0  0  0  0  0  0  0  0  0  0  0
    1.5838    2.6109    1.6079 C   0  0  0  0  0  0  0  0  0  0  0  0
    1.8917    1.9956    0.2530 C   0  0  0  0  0  0  0  0  0  0  0  0
    1.4533    0.5705    0.4984 C   0  0  1  0  0  0  0  0  0  0  0  0
    2.3827   -0.0857    1.4602 C   0  0  0  0  0  0  0  0  0  0  0  0
    3.6781   -0.2991    0.8656 N   0  0  0  0  0  0  0  0  0  0  0  0
    3.9441   -1.0833   -0.2888 C   0  0  0  0  0  0  0  0  0  0  0  0
    2.9797   -1.6541   -0.8626 O   0  0  0  0  0  0  0  0  0  0  0  0
    5.2651   -1.2844   -0.8726 C   0  0  0  0  0  0  0  0  0  0  0  0
    5.3704   -2.0861   -1.9876 C   0  0  0  0  0  0  0  0  0  0  0  0
    6.5962   -2.3224   -2.5976 C   0  0  0  0  0  0  0  0  0  0  0  0
    7.7639   -1.7551   -2.1013 C   0  0  0  0  0  0  0  0  0  0  0  0
    7.6664   -0.9466   -0.9789 C   0  0  0  0  0  0  0  0  0  0  0  0
    6.4337   -0.7344   -0.4001 C   0  0  0  0  0  0  0  0  0  0  0  0
   -3.8991    0.7247   -0.3133 C   0  0  0  0  0  0  0  0  0  0  0  0
   -5.2202    0.1992   -0.8006 C   0  0  0  0  0  0  0  0  0  0  0  0
   -5.3748   -1.1121   -1.2421 C   0  0  0  0  0  0  0  0  0  0  0  0
   -4.3177   -1.9494   -1.2397 F   0  0  0  0  0  0  0  0  0  0  0  0
   -6.5853   -1.5985   -1.6894 C   0  0  0  0  0  0  0  0  0  0  0  0
   -7.6727   -0.7306   -1.6894 C   0  0  0  0  0  0  0  0  0  0  0  0
   -7.5898    0.5983   -1.2601 C   0  0  0  0  0  0  0  0  0  0  0  0
   -6.3421    0.9980   -0.8304 C   0  0  0  0  0  0  0  0  0  0  0  0
   -4.3961    0.5880    1.7690 H   0  0  0  0  0  0  0  0  0  0  0  0
   -4.0301   -1.5231    2.0333 H   0  0  0  0  0  0  0  0  0  0  0  0
   -2.5370   -1.5169    1.2093 H   0  0  0  0  0  0  0  0  0  0  0  0
   -2.1052    0.5530    2.6201 H   0  0  0  0  0  0  0  0  0  0  0  0
   -2.4014    1.9254    1.4313 H   0  0  0  0  0  0  0  0  0  0  0  0
   -0.3711    2.3911    2.4040 H   0  0  0  0  0  0  0  0  0  0  0  0
    0.7284    1.1603    3.0318 H   0  0  0  0  0  0  0  0  0  0  0  0
    2.4843    2.5203    2.2407 H   0  0  0  0  0  0  0  0  0  0  0  0
    1.2910    3.6761    1.5060 H   0  0  0  0  0  0  0  0  0  0  0  0
    1.2285    2.4113   -0.5167 H   0  0  0  0  0  0  0  0  0  0  0  0
    2.9607    2.0952    0.0261 H   0  0  0  0  0  0  0  0  0  0  0  0
    1.3787   -0.0146   -0.4359 H   0  0  0  0  0  0  0  0  0  0  0  0
    1.9189   -1.0578    1.7959 H   0  0  0  0  0  0  0  0  0  0  0  0
    2.5293    0.4891    2.3773 H   0  0  0  0  0  0  0  0  0  0  0  0
    4.5552    0.1380    1.2741 H   0  0  0  0  0  0  0  0  0  0  0  0
    4.5162   -2.5787   -2.4560 H   0  0  0  0  0  0  0  0  0  0  0  0
    6.6986   -2.9566   -3.4838 H   0  0  0  0  0  0  0  0  0  0  0  0
    8.7542   -1.8797   -2.5047 H   0  0  0  0  0  0  0  0  0  0  0  0
    8.5425   -0.4760   -0.5449 H   0  0  0  0  0  0  0  0  0  0  0  0
    6.3949   -0.1090    0.4587 H   0  0  0  0  0  0  0  0  0  0  0  0
   -3.0998    0.4219   -1.0042 H   0  0  0  0  0  0  0  0  0  0  0  0
   -3.9908    1.8242   -0.2973 H   0  0  0  0  0  0  0  0  0  0  0  0
   -6.6596   -2.6166   -2.0215 H   0  0  0  0  0  0  0  0  0  0  0  0
   -8.6307   -1.0903   -2.0358 H   0  0  0  0  0  0  0  0  0  0  0  0
   -8.4551    1.2448   -1.2736 H   0  0  0  0  0  0  0  0  0  0  0  0
   -6.2273    2.0207   -0.4874 H   0  0  0  0  0  0  0  0  0  0  0  0
  1  2  1  0
  1  3  1  0
  3  4  1  0
  4  5  2  0
  4  6  1  0
  6  7  1  0
  7  8  1  0
  8  9  1  0
  9 10  1  0
 10 11  1  0
 11 12  1  0
 12 13  1  0
 13 14  2  0
 13 15  1  0
 15 16  2  0
 16 17  1  0
 17 18  2  0
 18 19  1  0
 19 20  2  0
  1 21  1  0
 21 22  1  0
 22 23  2  0
 23 24  1  0
 23 25  1  0
 25 26  2  0
 26 27  1  0
 27 28  2  0
 10  6  1  0
 20 15  1  0
 28 22  1  0
  1 29  1  1
  2 30  1  0
  2 31  1  0
  3 32  1  0
  3 33  1  0
  7 34  1  0
  7 35  1  0
  8 36  1  0
  8 37  1  0
  9 38  1  0
  9 39  1  0
 10 40  1  6
 11 41  1  0
 11 42  1  0
 12 43  1  0
 16 44  1  0
 17 45  1  0
 18 46  1  0
 19 47  1  0
 20 48  1  0
 21 49  1  0
 21 50  1  0
 25 51  1  0
 26 52  1  0
 27 53  1  0
 28 54  1  0
M  END
$$$$
