
     RDKit          3D

 36 39  0  0  0  0  0  0  0  0999 V2000
   -5.6811    1.1464    2.6319 O   0  0  0  0  0  0  0  0  0  0  0  0
   -4.7519    0.4860    1.8426 C   0  0  0  0  0  0  0  0  0  0  0  0
   -4.8781   -0.6378    1.3047 O   0  0  0  0  0  0  0  0  0  0  0  0
   -3.4658    1.2025    1.6170 C   0  0  0  0  0  0  0  0  0  0  0  0
   -2.5585    0.4389    0.7829 N   0  0  0  0  0  0  0  0  0  0  0  0
   -1.6369   -0.4526    1.2297 C   0  0  0  0  0  0  0  0  0  0  0  0
   -0.9148   -1.0211    0.1795 C   0  0  0  0  0  0  0  0  0  0  0  0
    0.1650   -2.0212    0.3665 C   0  0  0  0  0  0  0  0  0  0  0  0
    1.4631   -1.3957    0.2233 C   0  0  0  0  0  0  0  0  0  0  0  0
    2.2223   -0.7963    1.0014 N   0  0  0  0  0  0  0  0  0  0  0  0
    3.3875   -0.3053    0.6368 C   0  0  0  0  0  0  0  0  0  0  0  0
    3.8604   -0.4414   -0.7303 C   0  0  0  0  0  0  0  0  0  0  0  0
    2.3974   -1.3762   -1.4289 S   0  0  0  0  0  0  0  0  0  0  0  0
    5.0825    0.0463   -1.2173 C   0  0  0  0  0  0  0  0  0  0  0  0
    5.2112   -0.2496   -2.5289 F   0  0  0  0  0  0  0  0  0  0  0  0
    5.8828    0.7026   -0.3140 C   0  0  0  0  0  0  0  0  0  0  0  0
    5.4527    0.8410    0.9825 C   0  0  0  0  0  0  0  0  0  0  0  0
    6.3461    1.5114    1.7624 F   0  0  0  0  0  0  0  0  0  0  0  0
    4.2594    0.3670    1.4663 C   0  0  0  0  0  0  0  0  0  0  0  0
    4.0455    0.6198    2.7782 F   0  0  0  0  0  0  0  0  0  0  0  0
   -1.4578   -0.4176   -0.9334 C   0  0  0  0  0  0  0  0  0  0  0  0
   -1.1279   -0.6005   -2.2600 C   0  0  0  0  0  0  0  0  0  0  0  0
   -1.8260    0.1295   -3.2026 C   0  0  0  0  0  0  0  0  0  0  0  0
   -2.8086    0.9962   -2.7707 C   0  0  0  0  0  0  0  0  0  0  0  0
   -3.1321    1.1750   -1.4660 N   0  0  0  0  0  0  0  0  0  0  0  0
   -2.4521    0.4638   -0.5474 C   0  0  0  0  0  0  0  0  0  0  0  0
   -6.6127    0.7243    2.6550 H   0  0  0  0  0  0  0  0  0  0  0  0
   -3.0167    1.3273    2.6443 H   0  0  0  0  0  0  0  0  0  0  0  0
   -3.6335    2.2245    1.2159 H   0  0  0  0  0  0  0  0  0  0  0  0
   -1.4758   -0.7000    2.2874 H   0  0  0  0  0  0  0  0  0  0  0  0
    0.0819   -2.4770    1.3662 H   0  0  0  0  0  0  0  0  0  0  0  0
    0.0447   -2.7891   -0.4340 H   0  0  0  0  0  0  0  0  0  0  0  0
    6.7823    1.0313   -0.7813 H   0  0  0  0  0  0  0  0  0  0  0  0
   -0.3672   -1.2790   -2.5486 H   0  0  0  0  0  0  0  0  0  0  0  0
   -1.5767   -0.0055   -4.2445 H   0  0  0  0  0  0  0  0  0  0  0  0
   -3.3105    1.5322   -3.5665 H   0  0  0  0  0  0  0  0  0  0  0  0
  1  2  1  0
  2  3  2  0
  2  4  1  0
  4  5  1  0
  5  6  1  0
  6  7  2  0
  7  8  1  0
  8  9  1  0
  9 10  2  0
 10 11  1  0
 11 12  2  0
 12 13  1  0
 12 14  1  0
 14 15  1  0
 14 16  2  0
 16 17  1  0
 17 18  1  0
 17 19  2  0
 19 20  1  0
  7 21  1  0
 21 22  2  0
 22 23  1  0
 23 24  2  0
 24 25  1  0
 25 26  2  0
 26  5  1  0
 13  9  1  0
 26 21  1  0
 19 11  1  0
  1 27  1  0
  4 28  1  0
  4 29  1  0
  6 30  1  0
  8 31  1  0
  8 32  1  0
 16 33  1  0
 22 34  1  0
 23 35  1  0
 24 36  1  0
M  END
$$$$
