@<TRIPOS>MOLECULE
*****
 36 39 0 0 0
SMALL
GASTEIGER

@<TRIPOS>ATOM
      1 O          -5.6811    1.1464    2.6319 O.3     1  UNL1       -0.4794
      2 C          -4.7519    0.4860    1.8426 C.2     1  UNL1        0.3247
      3 O          -4.8781   -0.6378    1.3047 O.2     1  UNL1       -0.2490
      4 C          -3.4658    1.2025    1.6170 C.3     1  UNL1        0.1215
      5 N          -2.5585    0.4389    0.7829 N.ar    1  UNL1       -0.3209
      6 C          -1.6369   -0.4526    1.2297 C.ar    1  UNL1        0.0113
      7 C          -0.9148   -1.0211    0.1795 C.ar    1  UNL1       -0.0143
      8 C           0.1650   -2.0212    0.3665 C.3     1  UNL1        0.0233
      9 C           1.4631   -1.3957    0.2233 C.ar    1  UNL1        0.0841
     10 N           2.2223   -0.7963    1.0014 N.ar    1  UNL1       -0.2406
     11 C           3.3875   -0.3053    0.6368 C.ar    1  UNL1        0.1192
     12 C           3.8604   -0.4414   -0.7303 C.ar    1  UNL1        0.0773
     13 S           2.3974   -1.3762   -1.4289 S.2     1  UNL1       -0.0688
     14 C           5.0825    0.0463   -1.2173 C.ar    1  UNL1        0.1420
     15 F           5.2112   -0.2496   -2.5289 F       1  UNL1       -0.2042
     16 C           5.8828    0.7026   -0.3140 C.ar    1  UNL1        0.0129
     17 C           5.4527    0.8410    0.9825 C.ar    1  UNL1        0.1633
     18 F           6.3461    1.5114    1.7624 F       1  UNL1       -0.2023
     19 C           4.2594    0.3670    1.4663 C.ar    1  UNL1        0.1849
     20 F           4.0455    0.6198    2.7782 F       1  UNL1       -0.2002
     21 C          -1.4578   -0.4176   -0.9334 C.ar    1  UNL1        0.0224
     22 C          -1.1279   -0.6005   -2.2600 C.ar    1  UNL1       -0.0494
     23 C          -1.8260    0.1295   -3.2026 C.ar    1  UNL1       -0.0429
     24 C          -2.8086    0.9962   -2.7707 C.ar    1  UNL1        0.0299
     25 N          -3.1321    1.1750   -1.4660 N.ar    1  UNL1       -0.2373
     26 C          -2.4521    0.4638   -0.5474 C.ar    1  UNL1        0.1414
     27 H          -6.6127    0.7243    2.6550 H       1  UNL1        0.2951
     28 H          -3.0167    1.3273    2.6443 H       1  UNL1        0.0608
     29 H          -3.6335    2.2245    1.2159 H       1  UNL1        0.0608
     30 H          -1.4758   -0.7000    2.2874 H       1  UNL1        0.0813
     31 H           0.0819   -2.4770    1.3662 H       1  UNL1        0.0383
     32 H           0.0447   -2.7891   -0.4340 H       1  UNL1        0.0383
     33 H           6.7823    1.0313   -0.7813 H       1  UNL1        0.0676
     34 H          -0.3672   -1.2790   -2.5486 H       1  UNL1        0.0625
     35 H          -1.5767   -0.0055   -4.2445 H       1  UNL1        0.0633
     36 H          -3.3105    1.5322   -3.5665 H       1  UNL1        0.0830
@<TRIPOS>BOND
     1     1     2    1
     2     2     3    2
     3     2     4    1
     4     4     5    1
     5     5     6   ar
     6     6     7   ar
     7     7     8    1
     8     8     9    1
     9     9    10   ar
    10    10    11   ar
    11    11    12   ar
    12    12    13   ar
    13    12    14   ar
    14    14    15    1
    15    14    16   ar
    16    16    17   ar
    17    17    18    1
    18    17    19   ar
    19    19    20    1
    20     7    21   ar
    21    21    22   ar
    22    22    23   ar
    23    23    24   ar
    24    24    25   ar
    25    25    26   ar
    26    26     5   ar
    27    13     9   ar
    28    26    21   ar
    29    19    11   ar
    30     1    27    1
    31     4    28    1
    32     4    29    1
    33     6    30    1
    34     8    31    1
    35     8    32    1
    36    16    33    1
    37    22    34    1
    38    23    35    1
    39    24    36    1
