@<TRIPOS>MOLECULE
*****
 108 113 0 0 0
SMALL
GASTEIGER

@<TRIPOS>ATOM
      1 C          -4.9382   -5.0999    0.4464 C.3     1  UNL1        0.0372
      2 O          -4.0894   -4.0359    0.2424 O.3     1  UNL1       -0.3753
      3 C          -3.3599   -3.6695    1.3265 C.3     1  UNL1        0.0854
      4 C          -1.8768   -3.6300    1.1114 C.2     1  UNL1       -0.0208
      5 C          -1.0319   -3.4834    0.1127 C.2     1  UNL1        0.0882
      6 O           0.2918   -3.4542   -0.0164 O.2     1  UNL1       -0.4528
      7 C           1.3450   -4.2826   -0.1953 C.3     1  UNL1        0.3143
      8 C           1.2629   -5.5624    0.5484 C.3     1  UNL1        0.0210
      9 O           1.6572   -4.5419   -1.5793 O.3     1  UNL1       -0.4436
     10 C           1.9116   -3.2452   -2.1063 C.ar    1  UNL1        0.1435
     11 C           1.6801   -2.6007   -3.2894 C.ar    1  UNL1        0.0342
     12 C           1.0130   -3.2931   -4.4092 C.3     1  UNL1       -0.0327
     13 C           2.0714   -1.2980   -3.4506 C.ar    1  UNL1        0.1346
     14 O           1.8903   -0.5492   -4.5955 O.3     1  UNL1       -0.5057
     15 C           2.6985   -0.7213   -2.3389 C.ar    1  UNL1        0.0701
     16 C           3.1162    0.6232   -2.3830 C.ar    1  UNL1        0.1513
     17 O           2.8749    1.2686   -3.6030 O.3     1  UNL1       -0.5041
     18 C           3.7313    1.3209   -1.3331 C.ar    1  UNL1        0.1026
     19 N           3.8939    2.6158   -1.8874 N.am    1  UNL1       -0.2771
     20 C           3.0455    3.7207   -2.0599 C.2     1  UNL1        0.2441
     21 O           2.2121    3.0114   -1.5285 O.2     1  UNL1       -0.2702
     22 C           2.2541    4.9006   -2.2791 C.2     1  UNL1        0.0115
     23 C           3.3509    5.6356   -2.9115 C.3     1  UNL1       -0.0348
     24 C           1.0307    5.3481   -2.0785 C.2     1  UNL1       -0.0542
     25 C           0.1174    4.4402   -1.4385 C.2     1  UNL1       -0.0649
     26 C          -0.6305    3.5462   -0.8536 C.2     1  UNL1       -0.0787
     27 C          -2.0513    3.4311   -0.3855 C.3     1  UNL1        0.0009
     28 C          -2.6991    4.8040   -0.6753 C.3     1  UNL1       -0.0566
     29 C          -2.2017    3.2052    1.0589 C.3     1  UNL1        0.0661
     30 O          -1.5749    4.3459    1.6541 O.3     1  UNL1       -0.3909
     31 C          -1.7093    1.9683    1.6857 C.3     1  UNL1        0.0091
     32 C          -1.9438    1.9741    3.2088 C.3     1  UNL1       -0.0577
     33 C          -2.0236    0.6472    1.1591 C.3     1  UNL1        0.0661
     34 O          -1.3433   -0.3139    1.8928 O.3     1  UNL1       -0.3910
     35 C          -3.4138    0.1727    0.9643 C.3     1  UNL1        0.0200
     36 C          -4.3086    0.8429    0.0271 C.3     1  UNL1       -0.0567
     37 C          -3.3676   -1.3206    0.6774 C.3     1  UNL1        0.1131
     38 O          -4.5770   -1.5096   -0.1531 O.3     1  UNL1       -0.4608
     39 C          -4.4313   -1.9121   -1.4715 C.2     1  UNL1        0.3042
     40 C          -5.6236   -2.1144   -2.3461 C.3     1  UNL1        0.0332
     41 O          -3.3611   -2.1517   -2.0938 O.2     1  UNL1       -0.2512
     42 C          -3.6818   -2.2288    1.8172 C.3     1  UNL1        0.0236
     43 C          -3.0368   -2.0672    3.1349 C.3     1  UNL1       -0.0564
     44 C           3.9585    0.6539   -0.1591 C.ar    1  UNL1        0.0989
     45 C           3.5507   -0.6506   -0.1243 C.ar    1  UNL1        0.1006
     46 N           3.9035   -1.0394    1.1084 N.ar    1  UNL1       -0.2271
     47 C           4.4881   -0.0822    1.8151 C.ar    1  UNL1        0.1390
     48 C           5.0143   -0.0324    3.0902 C.ar    1  UNL1       -0.0158
     49 C           5.5924    1.1347    3.5677 C.ar    1  UNL1       -0.0456
     50 C           6.2083    1.3029    4.9187 C.3     1  UNL1       -0.0395
     51 C           5.6036    2.2087    2.7079 C.ar    1  UNL1       -0.0421
     52 C           5.0778    2.1486    1.4422 C.ar    1  UNL1        0.0121
     53 N           4.5198    0.9813    1.0124 N.ar    1  UNL1       -0.2975
     54 C           2.9440   -1.3521   -1.1355 C.ar    1  UNL1        0.0310
     55 C           2.5475   -2.6443   -1.0056 C.ar    1  UNL1        0.0774
     56 C           2.6637   -3.5823    0.1400 C.2     1  UNL1        0.2504
     57 O           3.5585   -3.6836    1.0100 O.2     1  UNL1       -0.2836
     58 H          -4.4115   -6.0329    0.7601 H       1  UNL1        0.0524
     59 H          -5.7350   -4.8864    1.2075 H       1  UNL1        0.0524
     60 H          -5.4398   -5.3263   -0.5332 H       1  UNL1        0.0524
     61 H          -3.5866   -4.3193    2.1906 H       1  UNL1        0.0645
     62 H          -1.2520   -3.7651    2.0020 H       1  UNL1        0.0628
     63 H          -1.1725   -3.3384   -0.9472 H       1  UNL1        0.1022
     64 H           1.1448   -5.3544    1.6390 H       1  UNL1        0.0309
     65 H           2.1733   -6.1841    0.3483 H       1  UNL1        0.0309
     66 H           0.3411   -6.1007    0.1980 H       1  UNL1        0.0309
     67 H           1.6819   -3.2479   -5.3138 H       1  UNL1        0.0280
     68 H           0.1276   -2.6932   -4.6945 H       1  UNL1        0.0280
     69 H           0.7809   -4.3458   -4.1978 H       1  UNL1        0.0280
     70 H           2.5102   -0.7511   -5.3721 H       1  UNL1        0.2922
     71 H           3.6210    1.4934   -4.2589 H       1  UNL1        0.2923
     72 H           4.8350    2.7505   -2.2665 H       1  UNL1        0.1553
     73 H           3.0170    6.7242   -3.0232 H       1  UNL1        0.0279
     74 H           3.5831    5.2792   -3.9458 H       1  UNL1        0.0279
     75 H           4.2977    5.7258   -2.3673 H       1  UNL1        0.0279
     76 H           1.0130    6.3409   -2.4655 H       1  UNL1        0.0622
     77 H          -0.6598    5.2014   -1.5250 H       1  UNL1        0.0615
     78 H          -0.2482    2.5480   -0.5568 H       1  UNL1        0.0576
     79 H          -2.5277    2.7636   -1.0934 H       1  UNL1        0.0365
     80 H          -2.9193    4.9010   -1.7374 H       1  UNL1        0.0236
     81 H          -2.1235    5.6039   -0.2067 H       1  UNL1        0.0236
     82 H          -3.6580    4.7563   -0.0974 H       1  UNL1        0.0236
     83 H          -3.2638    3.3767    1.3955 H       1  UNL1        0.0602
     84 H          -0.6931    3.9948    1.9642 H       1  UNL1        0.2098
     85 H          -0.5751    2.0445    1.6211 H       1  UNL1        0.0348
     86 H          -1.0371    1.7066    3.7847 H       1  UNL1        0.0234
     87 H          -2.7400    1.2694    3.5083 H       1  UNL1        0.0234
     88 H          -2.1698    3.0213    3.5460 H       1  UNL1        0.0234
     89 H          -1.4444    0.5749    0.1517 H       1  UNL1        0.0600
     90 H          -0.8857    0.0495    2.6848 H       1  UNL1        0.2098
     91 H          -3.9623    0.2043    1.9730 H       1  UNL1        0.0359
     92 H          -3.8641    0.7617   -1.0075 H       1  UNL1        0.0234
     93 H          -5.2606    0.2650   -0.0535 H       1  UNL1        0.0234
     94 H          -4.5953    1.8697    0.1608 H       1  UNL1        0.0234
     95 H          -2.5037   -1.5801    0.0546 H       1  UNL1        0.0741
     96 H          -5.5205   -3.0197   -2.9762 H       1  UNL1        0.0342
     97 H          -6.5267   -2.2639   -1.7253 H       1  UNL1        0.0342
     98 H          -5.7896   -1.1877   -2.9491 H       1  UNL1        0.0342
     99 H          -4.8143   -2.1998    1.9948 H       1  UNL1        0.0362
    100 H          -3.6040   -2.7160    3.9229 H       1  UNL1        0.0234
    101 H          -3.2275   -1.0499    3.5879 H       1  UNL1        0.0234
    102 H          -2.0201   -2.4145    3.2710 H       1  UNL1        0.0234
    103 H           5.0046   -0.8721    3.7644 H       1  UNL1        0.0657
    104 H           5.7962    2.2308    5.3613 H       1  UNL1        0.0278
    105 H           6.0177    0.4359    5.5660 H       1  UNL1        0.0278
    106 H           7.3253    1.4866    4.8255 H       1  UNL1        0.0278
    107 H           6.0452    3.1392    3.0398 H       1  UNL1        0.0635
    108 H           5.1118    3.0297    0.7959 H       1  UNL1        0.0813
@<TRIPOS>BOND
     1     1     2    1
     2     2     3    1
     3     3     4    1
     4     4     5    2
     5     5     6    1
     6     6     7    1
     7     7     8    1
     8     7     9    1
     9     9    10    1
    10    10    11   ar
    11    11    12    1
    12    11    13   ar
    13    13    14    1
    14    13    15   ar
    15    15    16   ar
    16    16    17    1
    17    16    18   ar
    18    18    19    1
    19    19    20   am
    20    20    21    2
    21    20    22    1
    22    22    23    1
    23    22    24    2
    24    24    25    1
    25    25    26    2
    26    26    27    1
    27    27    28    1
    28    27    29    1
    29    29    30    1
    30    29    31    1
    31    31    32    1
    32    31    33    1
    33    33    34    1
    34    33    35    1
    35    35    36    1
    36    35    37    1
    37    37    38    1
    38    38    39    1
    39    39    40    1
    40    39    41    2
    41    37    42    1
    42    42    43    1
    43    18    44   ar
    44    44    45   ar
    45    45    46   ar
    46    46    47   ar
    47    47    48   ar
    48    48    49   ar
    49    49    50    1
    50    49    51   ar
    51    51    52   ar
    52    52    53   ar
    53    45    54   ar
    54    54    55   ar
    55    55    56    1
    56    56    57    2
    57    42     3    1
    58    53    44   ar
    59    56     7    1
    60    55    10   ar
    61    54    15   ar
    62    53    47   ar
    63     1    58    1
    64     1    59    1
    65     1    60    1
    66     3    61    1
    67     4    62    1
    68     5    63    1
    69     8    64    1
    70     8    65    1
    71     8    66    1
    72    12    67    1
    73    12    68    1
    74    12    69    1
    75    14    70    1
    76    17    71    1
    77    19    72    1
    78    23    73    1
    79    23    74    1
    80    23    75    1
    81    24    76    1
    82    25    77    1
    83    26    78    1
    84    27    79    1
    85    28    80    1
    86    28    81    1
    87    28    82    1
    88    29    83    1
    89    30    84    1
    90    31    85    1
    91    32    86    1
    92    32    87    1
    93    32    88    1
    94    33    89    1
    95    34    90    1
    96    35    91    1
    97    36    92    1
    98    36    93    1
    99    36    94    1
   100    37    95    1
   101    40    96    1
   102    40    97    1
   103    40    98    1
   104    42    99    1
   105    43   100    1
   106    43   101    1
   107    43   102    1
   108    48   103    1
   109    50   104    1
   110    50   105    1
   111    50   106    1
   112    51   107    1
   113    52   108    1
