@<TRIPOS>MOLECULE
*****
 58 63 0 0 0
SMALL
GASTEIGER

@<TRIPOS>ATOM
      1 C           9.6357    0.8240    3.1759 C.3     1  UNL1        0.0805
      2 O           8.8758   -0.3625    2.9167 O.3     1  UNL1       -0.4786
      3 C           7.7190   -0.2408    2.1574 C.ar    1  UNL1        0.2332
      4 C           6.9521   -1.3533    1.8797 C.ar    1  UNL1        0.0899
      5 N           5.8139   -1.2701    1.1395 N.ar    1  UNL1       -0.2435
      6 C           5.4037   -0.1061    0.6583 C.ar    1  UNL1        0.1439
      7 C           4.1831    0.0445   -0.1471 C.2     1  UNL1        0.2681
      8 O           3.8194    1.1637   -0.5902 O.2     1  UNL1       -0.2681
      9 N           3.3551   -1.0665   -0.4640 N.am    1  UNL1       -0.2802
     10 C           2.1755   -0.9231   -1.2419 C.ar    1  UNL1        0.0343
     11 C           2.1570   -1.0280   -2.6141 C.ar    1  UNL1       -0.0370
     12 C           0.9710   -0.8754   -3.3031 C.ar    1  UNL1       -0.0172
     13 C          -0.2393   -0.6144   -2.6629 C.ar    1  UNL1        0.1346
     14 C          -0.2367   -0.5105   -1.3082 C.ar    1  UNL1        0.0285
     15 C           0.9814   -0.6664   -0.6121 C.ar    1  UNL1       -0.0312
     16 C          -1.4729   -0.2680   -0.5455 C.3     1  UNL1        0.1217
     17 C          -1.8033   -1.5366    0.2080 C.3     1  UNL1       -0.0096
     18 C          -1.1402   -1.7817    1.4943 C.3     1  UNL1        0.0037
     19 S          -1.0983   -0.3182    2.5621 S.3     1  UNL1       -0.0910
     20 C          -1.2670    1.0886    1.4806 C.2     1  UNL1        0.1478
     21 N          -1.2354    2.3978    2.0444 N.pl3   1  UNL1       -0.3380
     22 N          -1.4095    0.9149    0.2539 N.2     1  UNL1       -0.2472
     23 C          -2.6478   -0.0853   -1.4612 C.ar    1  UNL1        0.0333
     24 C          -3.8912    0.1945   -0.8430 C.ar    1  UNL1       -0.0262
     25 C          -5.0345    0.3526   -1.5508 C.ar    1  UNL1        0.0748
     26 C          -6.3205    0.6394   -0.9439 C.ar    1  UNL1        0.0061
     27 C          -7.4604    0.7902   -1.7376 C.ar    1  UNL1       -0.0342
     28 C          -8.6757    1.0623   -1.1486 C.ar    1  UNL1        0.0313
     29 N          -8.8251    1.1927    0.1728 N.ar    1  UNL1       -0.2276
     30 C          -7.7582    1.0551    0.9609 C.ar    1  UNL1        0.2138
     31 F          -7.8822    1.1815    2.2914 F       1  UNL1       -0.1839
     32 C          -6.4983    0.7777    0.4122 C.ar    1  UNL1        0.0019
     33 N          -4.9594    0.2333   -2.9074 N.ar    1  UNL1       -0.2161
     34 C          -3.7924   -0.0310   -3.5171 C.ar    1  UNL1        0.2567
     35 F          -3.8046   -0.1334   -4.8651 F       1  UNL1       -0.1799
     36 C          -2.6128   -0.1957   -2.8140 C.ar    1  UNL1        0.1883
     37 O          -1.4081   -0.4633   -3.4377 O.3     1  UNL1       -0.4508
     38 C           6.1476    1.0252    0.9179 C.ar    1  UNL1        0.0619
     39 N           7.2889    0.9386    1.6607 N.ar    1  UNL1       -0.2178
     40 H           8.9688    1.6426    3.5306 H       1  UNL1        0.0660
     41 H          10.4541    0.6118    3.8921 H       1  UNL1        0.0660
     42 H          10.0841    1.1796    2.2202 H       1  UNL1        0.0660
     43 H           7.2564   -2.3188    2.2560 H       1  UNL1        0.0884
     44 H           3.6716   -1.9990   -0.0862 H       1  UNL1        0.1552
     45 H           3.0727   -1.2299   -3.1518 H       1  UNL1        0.0637
     46 H           0.9436   -0.9561   -4.3916 H       1  UNL1        0.0655
     47 H           0.9820   -0.5667    0.4578 H       1  UNL1        0.0641
     48 H          -1.5072   -2.3759   -0.4907 H       1  UNL1        0.0303
     49 H          -2.9117   -1.6702    0.2987 H       1  UNL1        0.0303
     50 H          -0.1637   -2.3176    1.4602 H       1  UNL1        0.0381
     51 H          -1.8200   -2.5151    2.0623 H       1  UNL1        0.0381
     52 H          -1.8616    3.1093    1.6293 H       1  UNL1        0.1442
     53 H          -0.5926    2.5781    2.8379 H       1  UNL1        0.1442
     54 H          -3.8611    0.2724    0.2302 H       1  UNL1        0.0644
     55 H          -7.3394    0.6855   -2.7956 H       1  UNL1        0.0639
     56 H          -9.5487    1.1754   -1.7879 H       1  UNL1        0.0831
     57 H          -5.6454    0.6693    1.0623 H       1  UNL1        0.0669
     58 H           5.8127    1.9789    0.5244 H       1  UNL1        0.0854
@<TRIPOS>BOND
     1     1     2    1
     2     2     3    1
     3     3     4   ar
     4     4     5   ar
     5     5     6   ar
     6     6     7    1
     7     7     8    2
     8     7     9   am
     9     9    10    1
    10    10    11   ar
    11    11    12   ar
    12    12    13   ar
    13    13    14   ar
    14    14    15   ar
    15    14    16    1
    16    16    17    1
    17    17    18    1
    18    18    19    1
    19    19    20    1
    20    20    21    1
    21    20    22    2
    22    16    23    1
    23    23    24   ar
    24    24    25   ar
    25    25    26    1
    26    26    27   ar
    27    27    28   ar
    28    28    29   ar
    29    29    30   ar
    30    30    31    1
    31    30    32   ar
    32    25    33   ar
    33    33    34   ar
    34    34    35    1
    35    34    36   ar
    36    36    37    1
    37     6    38   ar
    38    38    39   ar
    39    39     3   ar
    40    15    10   ar
    41    22    16    1
    42    36    23   ar
    43    37    13    1
    44    32    26   ar
    45     1    40    1
    46     1    41    1
    47     1    42    1
    48     4    43    1
    49     9    44    1
    50    11    45    1
    51    12    46    1
    52    15    47    1
    53    17    48    1
    54    17    49    1
    55    18    50    1
    56    18    51    1
    57    21    52    1
    58    21    53    1
    59    24    54    1
    60    27    55    1
    61    28    56    1
    62    32    57    1
    63    38    58    1
