
     RDKit          3D

 58 63  0  0  0  0  0  0  0  0999 V2000
    9.6357    0.8240    3.1759 C   0  0  0  0  0  0  0  0  0  0  0  0
    8.8758   -0.3625    2.9167 O   0  0  0  0  0  0  0  0  0  0  0  0
    7.7190   -0.2408    2.1574 C   0  0  0  0  0  0  0  0  0  0  0  0
    6.9521   -1.3533    1.8797 C   0  0  0  0  0  0  0  0  0  0  0  0
    5.8139   -1.2701    1.1395 N   0  0  0  0  0  0  0  0  0  0  0  0
    5.4037   -0.1061    0.6583 C   0  0  0  0  0  0  0  0  0  0  0  0
    4.1831    0.0445   -0.1471 C   0  0  0  0  0  0  0  0  0  0  0  0
    3.8194    1.1637   -0.5902 O   0  0  0  0  0  0  0  0  0  0  0  0
    3.3551   -1.0665   -0.4640 N   0  0  0  0  0  0  0  0  0  0  0  0
    2.1755   -0.9231   -1.2419 C   0  0  0  0  0  0  0  0  0  0  0  0
    2.1570   -1.0280   -2.6141 C   0  0  0  0  0  0  0  0  0  0  0  0
    0.9710   -0.8754   -3.3031 C   0  0  0  0  0  0  0  0  0  0  0  0
   -0.2393   -0.6144   -2.6629 C   0  0  0  0  0  0  0  0  0  0  0  0
   -0.2367   -0.5105   -1.3082 C   0  0  0  0  0  0  0  0  0  0  0  0
    0.9814   -0.6664   -0.6121 C   0  0  0  0  0  0  0  0  0  0  0  0
   -1.4729   -0.2680   -0.5455 C   0  0  0  0  0  0  0  0  0  0  0  0
   -1.8033   -1.5366    0.2080 C   0  0  0  0  0  0  0  0  0  0  0  0
   -1.1402   -1.7817    1.4943 C   0  0  0  0  0  0  0  0  0  0  0  0
   -1.0983   -0.3182    2.5621 S   0  0  0  0  0  0  0  0  0  0  0  0
   -1.2670    1.0886    1.4806 C   0  0  0  0  0  0  0  0  0  0  0  0
   -1.2354    2.3978    2.0444 N   0  0  0  0  0  0  0  0  0  0  0  0
   -1.4095    0.9149    0.2539 N   0  0  0  0  0  0  0  0  0  0  0  0
   -2.6478   -0.0853   -1.4612 C   0  0  0  0  0  0  0  0  0  0  0  0
   -3.8912    0.1945   -0.8430 C   0  0  0  0  0  0  0  0  0  0  0  0
   -5.0345    0.3526   -1.5508 C   0  0  0  0  0  0  0  0  0  0  0  0
   -6.3205    0.6394   -0.9439 C   0  0  0  0  0  0  0  0  0  0  0  0
   -7.4604    0.7902   -1.7376 C   0  0  0  0  0  0  0  0  0  0  0  0
   -8.6757    1.0623   -1.1486 C   0  0  0  0  0  0  0  0  0  0  0  0
   -8.8251    1.1927    0.1728 N   0  0  0  0  0  0  0  0  0  0  0  0
   -7.7582    1.0551    0.9609 C   0  0  0  0  0  0  0  0  0  0  0  0
   -7.8822    1.1815    2.2914 F   0  0  0  0  0  0  0  0  0  0  0  0
   -6.4983    0.7777    0.4122 C   0  0  0  0  0  0  0  0  0  0  0  0
   -4.9594    0.2333   -2.9074 N   0  0  0  0  0  0  0  0  0  0  0  0
   -3.7924   -0.0310   -3.5171 C   0  0  0  0  0  0  0  0  0  0  0  0
   -3.8046   -0.1334   -4.8651 F   0  0  0  0  0  0  0  0  0  0  0  0
   -2.6128   -0.1957   -2.8140 C   0  0  0  0  0  0  0  0  0  0  0  0
   -1.4081   -0.4633   -3.4377 O   0  0  0  0  0  0  0  0  0  0  0  0
    6.1476    1.0252    0.9179 C   0  0  0  0  0  0  0  0  0  0  0  0
    7.2889    0.9386    1.6607 N   0  0  0  0  0  0  0  0  0  0  0  0
    8.9688    1.6426    3.5306 H   0  0  0  0  0  0  0  0  0  0  0  0
   10.4541    0.6118    3.8921 H   0  0  0  0  0  0  0  0  0  0  0  0
   10.0841    1.1796    2.2202 H   0  0  0  0  0  0  0  0  0  0  0  0
    7.2564   -2.3188    2.2560 H   0  0  0  0  0  0  0  0  0  0  0  0
    3.6716   -1.9990   -0.0862 H   0  0  0  0  0  0  0  0  0  0  0  0
    3.0727   -1.2299   -3.1518 H   0  0  0  0  0  0  0  0  0  0  0  0
    0.9436   -0.9561   -4.3916 H   0  0  0  0  0  0  0  0  0  0  0  0
    0.9820   -0.5667    0.4578 H   0  0  0  0  0  0  0  0  0  0  0  0
   -1.5072   -2.3759   -0.4907 H   0  0  0  0  0  0  0  0  0  0  0  0
   -2.9117   -1.6702    0.2987 H   0  0  0  0  0  0  0  0  0  0  0  0
   -0.1637   -2.3176    1.4602 H   0  0  0  0  0  0  0  0  0  0  0  0
   -1.8200   -2.5151    2.0623 H   0  0  0  0  0  0  0  0  0  0  0  0
   -1.8616    3.1093    1.6293 H   0  0  0  0  0  0  0  0  0  0  0  0
   -0.5926    2.5781    2.8379 H   0  0  0  0  0  0  0  0  0  0  0  0
   -3.8611    0.2724    0.2302 H   0  0  0  0  0  0  0  0  0  0  0  0
   -7.3394    0.6855   -2.7956 H   0  0  0  0  0  0  0  0  0  0  0  0
   -9.5487    1.1754   -1.7879 H   0  0  0  0  0  0  0  0  0  0  0  0
   -5.6454    0.6693    1.0623 H   0  0  0  0  0  0  0  0  0  0  0  0
    5.8127    1.9789    0.5244 H   0  0  0  0  0  0  0  0  0  0  0  0
  1  2  1  0
  2  3  1  0
  3  4  2  0
  4  5  1  0
  5  6  2  0
  6  7  1  0
  7  8  2  0
  7  9  1  0
  9 10  1  0
 10 11  2  0
 11 12  1  0
 12 13  2  0
 13 14  1  0
 14 15  2  0
 14 16  1  0
 16 17  1  0
 17 18  1  0
 18 19  1  0
 19 20  1  0
 20 21  1  0
 20 22  2  0
 16 23  1  0
 23 24  2  0
 24 25  1  0
 25 26  1  0
 26 27  2  0
 27 28  1  0
 28 29  2  0
 29 30  1  0
 30 31  1  0
 30 32  2  0
 25 33  2  0
 33 34  1  0
 34 35  1  0
 34 36  2  0
 36 37  1  0
  6 38  1  0
 38 39  2  0
 39  3  1  0
 15 10  1  0
 22 16  1  0
 36 23  1  0
 37 13  1  0
 32 26  1  0
  1 40  1  0
  1 41  1  0
  1 42  1  0
  4 43  1  0
  9 44  1  0
 11 45  1  0
 12 46  1  0
 15 47  1  0
 17 48  1  0
 17 49  1  0
 18 50  1  0
 18 51  1  0
 21 52  1  0
 21 53  1  0
 24 54  1  0
 27 55  1  0
 28 56  1  0
 32 57  1  0
 38 58  1  0
M  END
$$$$
