
     RDKit          3D

 59 63  0  0  0  0  0  0  0  0999 V2000
   -7.2715   -1.2409   -3.0175 C   0  0  0  0  0  0  0  0  0  0  0  0
   -8.0947   -0.6576   -1.9144 C   0  0  0  0  0  0  0  0  0  0  0  0
   -9.4308   -0.3503   -2.0660 C   0  0  0  0  0  0  0  0  0  0  0  0
  -10.1720    0.1870   -1.0352 C   0  0  0  0  0  0  0  0  0  0  0  0
   -9.5342    0.4123    0.1678 C   0  0  0  0  0  0  0  0  0  0  0  0
   -8.1944    0.1038    0.3188 C   0  0  0  0  0  0  0  0  0  0  0  0
   -7.5356    0.3219    1.5169 C   0  0  0  0  0  0  0  0  0  0  0  0
   -8.2018    0.8101    2.4594 O   0  0  0  0  0  0  0  0  0  0  0  0
   -6.2331    0.0193    1.6556 N   0  0  0  0  0  0  0  0  0  0  0  0
   -5.5145   -0.5056    0.6441 C   0  0  0  0  0  0  0  0  0  0  0  0
   -4.0687   -0.8382    0.8074 C   0  0  0  0  0  0  0  0  0  0  0  0
   -3.3008    0.4017    0.4147 C   0  0  0  0  0  0  0  0  0  0  0  0
   -1.8060    0.1472    0.5530 C   0  0  0  0  0  0  0  0  0  0  0  0
   -1.4374   -0.9682    0.9431 O   0  0  0  0  0  0  0  0  0  0  0  0
   -0.8938    1.1614    0.2418 N   0  0  0  0  0  0  0  0  0  0  0  0
    0.5112    1.0387    0.3324 C   0  0  0  0  0  0  0  0  0  0  0  0
    1.2762    2.1732   -0.0249 C   0  0  0  0  0  0  0  0  0  0  0  0
    2.6329    2.0914    0.0501 C   0  0  0  0  0  0  0  0  0  0  0  0
    3.3230    0.9703    0.4536 C   0  0  0  0  0  0  0  0  0  0  0  0
    4.7809    0.9714    0.5042 C   0  0  0  0  0  0  0  0  0  0  0  0
    5.3784    2.0243    0.1687 O   0  0  0  0  0  0  0  0  0  0  0  0
    5.5668   -0.1230    0.9021 N   0  0  0  0  0  0  0  0  0  0  0  0
    6.9862   -0.1186    0.9503 C   0  0  0  0  0  0  0  0  0  0  0  0
    7.6468    0.2637    2.0983 C   0  0  0  0  0  0  0  0  0  0  0  0
    9.0261    0.2819    2.1861 C   0  0  0  0  0  0  0  0  0  0  0  0
    9.7840   -0.0896    1.1050 C   0  0  0  0  0  0  0  0  0  0  0  0
    9.1445   -0.4764   -0.0559 C   0  0  0  0  0  0  0  0  0  0  0  0
    9.8458   -0.8599   -1.1739 C   0  0  0  0  0  0  0  0  0  0  0  0
    9.1373   -1.2340   -2.2989 C   0  0  0  0  0  0  0  0  0  0  0  0
    7.7596   -1.2378   -2.3440 C   0  0  0  0  0  0  0  0  0  0  0  0
    7.1005   -0.8616   -1.2465 N   0  0  0  0  0  0  0  0  0  0  0  0
    7.7465   -0.4916   -0.1350 C   0  0  0  0  0  0  0  0  0  0  0  0
    2.5594   -0.1084    0.7920 C   0  0  0  0  0  0  0  0  0  0  0  0
    1.1613   -0.0955    0.7389 C   0  0  0  0  0  0  0  0  0  0  0  0
   -6.1500   -0.7212   -0.5273 N   0  0  0  0  0  0  0  0  0  0  0  0
   -7.4423   -0.4357   -0.7097 C   0  0  0  0  0  0  0  0  0  0  0  0
   -7.2795   -2.3666   -2.9259 H   0  0  0  0  0  0  0  0  0  0  0  0
   -6.1979   -0.9390   -2.8868 H   0  0  0  0  0  0  0  0  0  0  0  0
   -7.6685   -0.9357   -4.0057 H   0  0  0  0  0  0  0  0  0  0  0  0
   -9.9134   -0.5316   -3.0093 H   0  0  0  0  0  0  0  0  0  0  0  0
  -11.2295    0.4325   -1.1486 H   0  0  0  0  0  0  0  0  0  0  0  0
  -10.1092    0.8340    0.9822 H   0  0  0  0  0  0  0  0  0  0  0  0
   -5.7340    0.1832    2.5592 H   0  0  0  0  0  0  0  0  0  0  0  0
   -3.8743   -1.6873    0.1056 H   0  0  0  0  0  0  0  0  0  0  0  0
   -3.9181   -1.1189    1.8569 H   0  0  0  0  0  0  0  0  0  0  0  0
   -3.5412    0.6748   -0.6156 H   0  0  0  0  0  0  0  0  0  0  0  0
   -3.5689    1.1952    1.1326 H   0  0  0  0  0  0  0  0  0  0  0  0
   -1.2851    2.1101   -0.0926 H   0  0  0  0  0  0  0  0  0  0  0  0
    0.7677    3.0974   -0.3554 H   0  0  0  0  0  0  0  0  0  0  0  0
    3.2038    2.9732   -0.2284 H   0  0  0  0  0  0  0  0  0  0  0  0
    5.0877   -0.9992    1.1820 H   0  0  0  0  0  0  0  0  0  0  0  0
    7.0959    0.5618    2.9672 H   0  0  0  0  0  0  0  0  0  0  0  0
    9.5571    0.5808    3.0841 H   0  0  0  0  0  0  0  0  0  0  0  0
   10.8742   -0.0890    1.1337 H   0  0  0  0  0  0  0  0  0  0  0  0
   10.9274   -0.8555   -1.1345 H   0  0  0  0  0  0  0  0  0  0  0  0
    9.7280   -1.5288   -3.1573 H   0  0  0  0  0  0  0  0  0  0  0  0
    7.2957   -1.5469   -3.2704 H   0  0  0  0  0  0  0  0  0  0  0  0
    3.0554   -1.0238    1.1191 H   0  0  0  0  0  0  0  0  0  0  0  0
    0.6410   -0.9858    1.0221 H   0  0  0  0  0  0  0  0  0  0  0  0
  1  2  1  0
  2  3  2  0
  3  4  1  0
  4  5  2  0
  5  6  1  0
  6  7  1  0
  7  8  2  0
  7  9  1  0
  9 10  1  0
 10 11  1  0
 11 12  1  0
 12 13  1  0
 13 14  2  0
 13 15  1  0
 15 16  1  0
 16 17  2  0
 17 18  1  0
 18 19  2  0
 19 20  1  0
 20 21  2  0
 20 22  1  0
 22 23  1  0
 23 24  2  0
 24 25  1  0
 25 26  2  0
 26 27  1  0
 27 28  2  0
 28 29  1  0
 29 30  2  0
 30 31  1  0
 31 32  2  0
 19 33  1  0
 33 34  2  0
 10 35  2  0
 35 36  1  0
 36  2  1  0
 36  6  2  0
 34 16  1  0
 32 23  1  0
 32 27  1  0
  1 37  1  0
  1 38  1  0
  1 39  1  0
  3 40  1  0
  4 41  1  0
  5 42  1  0
  9 43  1  0
 11 44  1  0
 11 45  1  0
 12 46  1  0
 12 47  1  0
 15 48  1  0
 17 49  1  0
 18 50  1  0
 22 51  1  0
 24 52  1  0
 25 53  1  0
 26 54  1  0
 28 55  1  0
 29 56  1  0
 30 57  1  0
 33 58  1  0
 34 59  1  0
M  END
$$$$
