@<TRIPOS>MOLECULE
*****
 59 63 0 0 0
SMALL
GASTEIGER

@<TRIPOS>ATOM
      1 C          -7.2715   -1.2409   -3.0175 C.3     1  UNL1       -0.0377
      2 C          -8.0947   -0.6576   -1.9144 C.ar    1  UNL1       -0.0243
      3 C          -9.4308   -0.3503   -2.0660 C.ar    1  UNL1       -0.0568
      4 C         -10.1720    0.1870   -1.0352 C.ar    1  UNL1       -0.0607
      5 C          -9.5342    0.4123    0.1678 C.ar    1  UNL1       -0.0473
      6 C          -8.1944    0.1038    0.3188 C.ar    1  UNL1        0.0649
      7 C          -7.5356    0.3219    1.5169 C.ar    1  UNL1        0.2592
      8 O          -8.2018    0.8101    2.4594 O.2     1  UNL1       -0.2672
      9 N          -6.2331    0.0193    1.6556 N.ar    1  UNL1       -0.3103
     10 C          -5.5145   -0.5056    0.6441 C.ar    1  UNL1        0.1108
     11 C          -4.0687   -0.8382    0.8074 C.3     1  UNL1        0.0138
     12 C          -3.3008    0.4017    0.4147 C.3     1  UNL1        0.0311
     13 C          -1.8060    0.1472    0.5530 C.2     1  UNL1        0.2176
     14 O          -1.4374   -0.9682    0.9431 O.2     1  UNL1       -0.2755
     15 N          -0.8938    1.1614    0.2418 N.am    1  UNL1       -0.2855
     16 C           0.5112    1.0387    0.3324 C.ar    1  UNL1        0.0334
     17 C           1.2762    2.1732   -0.0249 C.ar    1  UNL1       -0.0398
     18 C           2.6329    2.0914    0.0501 C.ar    1  UNL1       -0.0479
     19 C           3.3230    0.9703    0.4536 C.ar    1  UNL1        0.0371
     20 C           4.7809    0.9714    0.5042 C.2     1  UNL1        0.2483
     21 O           5.3784    2.0243    0.1687 O.2     1  UNL1       -0.2699
     22 N           5.5668   -0.1230    0.9021 N.am    1  UNL1       -0.2797
     23 C           6.9862   -0.1186    0.9503 C.ar    1  UNL1        0.0598
     24 C           7.6468    0.2637    2.0983 C.ar    1  UNL1       -0.0384
     25 C           9.0261    0.2819    2.1861 C.ar    1  UNL1       -0.0593
     26 C           9.7840   -0.0896    1.1050 C.ar    1  UNL1       -0.0524
     27 C           9.1445   -0.4764   -0.0559 C.ar    1  UNL1        0.0022
     28 C           9.8458   -0.8599   -1.1739 C.ar    1  UNL1       -0.0511
     29 C           9.1373   -1.2340   -2.2989 C.ar    1  UNL1       -0.0430
     30 C           7.7596   -1.2378   -2.3440 C.ar    1  UNL1        0.0283
     31 N           7.1005   -0.8616   -1.2465 N.ar    1  UNL1       -0.2531
     32 C           7.7465   -0.4916   -0.1350 C.ar    1  UNL1        0.0921
     33 C           2.5594   -0.1084    0.7920 C.ar    1  UNL1       -0.0479
     34 C           1.1613   -0.0955    0.7389 C.ar    1  UNL1       -0.0398
     35 N          -6.1500   -0.7212   -0.5273 N.ar    1  UNL1       -0.2334
     36 C          -7.4423   -0.4357   -0.7097 C.ar    1  UNL1        0.0810
     37 H          -7.2795   -2.3666   -2.9259 H       1  UNL1        0.0278
     38 H          -6.1979   -0.9390   -2.8868 H       1  UNL1        0.0278
     39 H          -7.6685   -0.9357   -4.0057 H       1  UNL1        0.0278
     40 H          -9.9134   -0.5316   -3.0093 H       1  UNL1        0.0621
     41 H         -11.2295    0.4325   -1.1486 H       1  UNL1        0.0618
     42 H         -10.1092    0.8340    0.9822 H       1  UNL1        0.0626
     43 H          -5.7340    0.1832    2.5592 H       1  UNL1        0.1700
     44 H          -3.8743   -1.6873    0.1056 H       1  UNL1        0.0348
     45 H          -3.9181   -1.1189    1.8569 H       1  UNL1        0.0348
     46 H          -3.5412    0.6748   -0.6156 H       1  UNL1        0.0363
     47 H          -3.5689    1.1952    1.1326 H       1  UNL1        0.0363
     48 H          -1.2851    2.1101   -0.0926 H       1  UNL1        0.1548
     49 H           0.7677    3.0974   -0.3554 H       1  UNL1        0.0636
     50 H           3.2038    2.9732   -0.2284 H       1  UNL1        0.0626
     51 H           5.0877   -0.9992    1.1820 H       1  UNL1        0.1552
     52 H           7.0959    0.5618    2.9672 H       1  UNL1        0.0637
     53 H           9.5571    0.5808    3.0841 H       1  UNL1        0.0618
     54 H          10.8742   -0.0890    1.1337 H       1  UNL1        0.0624
     55 H          10.9274   -0.8555   -1.1345 H       1  UNL1        0.0625
     56 H           9.7280   -1.5288   -3.1573 H       1  UNL1        0.0633
     57 H           7.2957   -1.5469   -3.2704 H       1  UNL1        0.0830
     58 H           3.0554   -1.0238    1.1191 H       1  UNL1        0.0626
     59 H           0.6410   -0.9858    1.0221 H       1  UNL1        0.0636
@<TRIPOS>BOND
     1     1     2    1
     2     2     3   ar
     3     3     4   ar
     4     4     5   ar
     5     5     6   ar
     6     6     7   ar
     7     7     8    2
     8     7     9   ar
     9     9    10   ar
    10    10    11    1
    11    11    12    1
    12    12    13    1
    13    13    14    2
    14    13    15   am
    15    15    16    1
    16    16    17   ar
    17    17    18   ar
    18    18    19   ar
    19    19    20    1
    20    20    21    2
    21    20    22   am
    22    22    23    1
    23    23    24   ar
    24    24    25   ar
    25    25    26   ar
    26    26    27   ar
    27    27    28   ar
    28    28    29   ar
    29    29    30   ar
    30    30    31   ar
    31    31    32   ar
    32    19    33   ar
    33    33    34   ar
    34    10    35   ar
    35    35    36   ar
    36    36     2   ar
    37    36     6   ar
    38    34    16   ar
    39    32    23   ar
    40    32    27   ar
    41     1    37    1
    42     1    38    1
    43     1    39    1
    44     3    40    1
    45     4    41    1
    46     5    42    1
    47     9    43    1
    48    11    44    1
    49    11    45    1
    50    12    46    1
    51    12    47    1
    52    15    48    1
    53    17    49    1
    54    18    50    1
    55    22    51    1
    56    24    52    1
    57    25    53    1
    58    26    54    1
    59    28    55    1
    60    29    56    1
    61    30    57    1
    62    33    58    1
    63    34    59    1
