
     RDKit          3D

 41 42  0  0  0  0  0  0  0  0999 V2000
    4.2852    2.0206    1.5892 C   0  0  0  0  0  0  0  0  0  0  0  0
    3.3702    1.1520    0.9492 O   0  0  0  0  0  0  0  0  0  0  0  0
    3.4003   -0.2151    1.1556 C   0  0  0  0  0  0  0  0  0  0  0  0
    4.3690   -0.7268    2.0197 C   0  0  0  0  0  0  0  0  0  0  0  0
    4.4041   -2.0815    2.2274 C   0  0  0  0  0  0  0  0  0  0  0  0
    3.5115   -2.9346    1.6060 C   0  0  0  0  0  0  0  0  0  0  0  0
    3.5430   -4.2543    1.8065 F   0  0  0  0  0  0  0  0  0  0  0  0
    2.5557   -2.3979    0.7493 C   0  0  0  0  0  0  0  0  0  0  0  0
    2.5026   -1.0435    0.5270 C   0  0  0  0  0  0  0  0  0  0  0  0
    1.4798   -0.4993   -0.3806 C   0  0  0  0  0  0  0  0  0  0  0  0
    0.3973    0.1287    0.4814 C   0  0  0  0  0  0  0  0  0  0  0  0
   -0.6752    0.7006   -0.4021 C   0  0  2  0  0  0  0  0  0  0  0  0
   -1.7898    1.3441    0.3978 C   0  0  0  0  0  0  0  0  0  0  0  0
   -2.8388    1.4769   -0.6873 C   0  0  0  0  0  0  0  0  0  0  0  0
   -2.5166    0.3068   -1.5752 C   0  0  2  0  0  0  0  0  0  0  0  0
   -3.6364   -0.6934   -1.6478 C   0  0  0  0  0  0  0  0  0  0  0  0
   -4.8984   -0.0582   -2.1953 C   0  0  0  0  0  0  0  0  0  0  0  0
   -4.6809    0.4646   -3.5325 N   0  0  0  0  0  0  0  0  0  0  0  0
   -1.3768   -0.2853   -1.0899 O   0  0  0  0  0  0  0  0  0  0  0  0
    5.3294    1.8324    1.2457 H   0  0  0  0  0  0  0  0  0  0  0  0
    3.9731    3.0733    1.3897 H   0  0  0  0  0  0  0  0  0  0  0  0
    4.2781    1.8255    2.6783 H   0  0  0  0  0  0  0  0  0  0  0  0
    5.0825   -0.1031    2.5238 H   0  0  0  0  0  0  0  0  0  0  0  0
    5.1292   -2.5466    2.8852 H   0  0  0  0  0  0  0  0  0  0  0  0
    1.8777   -3.0861    0.2824 H   0  0  0  0  0  0  0  0  0  0  0  0
    1.9138    0.2627   -1.0822 H   0  0  0  0  0  0  0  0  0  0  0  0
    1.0564   -1.2910   -1.0331 H   0  0  0  0  0  0  0  0  0  0  0  0
    0.0314   -0.6046    1.2005 H   0  0  0  0  0  0  0  0  0  0  0  0
    0.8671    0.9675    1.0315 H   0  0  0  0  0  0  0  0  0  0  0  0
   -0.2936    1.4249   -1.1171 H   0  0  0  0  0  0  0  0  0  0  0  0
   -1.4916    2.3259    0.8150 H   0  0  0  0  0  0  0  0  0  0  0  0
   -2.1528    0.6401    1.2006 H   0  0  0  0  0  0  0  0  0  0  0  0
   -3.8602    1.4751   -0.2908 H   0  0  0  0  0  0  0  0  0  0  0  0
   -2.5909    2.4025   -1.2600 H   0  0  0  0  0  0  0  0  0  0  0  0
   -2.3071    0.6254   -2.6309 H   0  0  0  0  0  0  0  0  0  0  0  0
   -3.8833   -1.1546   -0.6789 H   0  0  0  0  0  0  0  0  0  0  0  0
   -3.3188   -1.5015   -2.3402 H   0  0  0  0  0  0  0  0  0  0  0  0
   -5.2805    0.7401   -1.5553 H   0  0  0  0  0  0  0  0  0  0  0  0
   -5.6748   -0.8508   -2.2976 H   0  0  0  0  0  0  0  0  0  0  0  0
   -5.1836    1.3711   -3.6916 H   0  0  0  0  0  0  0  0  0  0  0  0
   -4.9074   -0.2326   -4.2788 H   0  0  0  0  0  0  0  0  0  0  0  0
  1  2  1  0
  2  3  1  0
  3  4  2  0
  4  5  1  0
  5  6  2  0
  6  7  1  0
  6  8  1  0
  8  9  2  0
  9 10  1  0
 10 11  1  0
 11 12  1  0
 12 13  1  0
 13 14  1  0
 14 15  1  0
 15 16  1  0
 16 17  1  0
 17 18  1  0
 15 19  1  0
  9  3  1  0
 19 12  1  0
  1 20  1  0
  1 21  1  0
  1 22  1  0
  4 23  1  0
  5 24  1  0
  8 25  1  0
 10 26  1  0
 10 27  1  0
 11 28  1  0
 11 29  1  0
 12 30  1  6
 13 31  1  0
 13 32  1  0
 14 33  1  0
 14 34  1  0
 15 35  1  6
 16 36  1  0
 16 37  1  0
 17 38  1  0
 17 39  1  0
 18 40  1  0
 18 41  1  0
M  END
$$$$
