@<TRIPOS>MOLECULE
*****
 41 42 0 0 0
SMALL
GASTEIGER

@<TRIPOS>ATOM
      1 C           4.2852    2.0206    1.5892 C.3     1  UNL1        0.0788
      2 O           3.3702    1.1520    0.9492 O.3     1  UNL1       -0.4948
      3 C           3.4003   -0.2151    1.1556 C.ar    1  UNL1        0.1234
      4 C           4.3690   -0.7268    2.0197 C.ar    1  UNL1       -0.0170
      5 C           4.4041   -2.0815    2.2274 C.ar    1  UNL1       -0.0230
      6 C           3.5115   -2.9346    1.6060 C.ar    1  UNL1        0.1239
      7 F           3.5430   -4.2543    1.8065 F       1  UNL1       -0.2055
      8 C           2.5557   -2.3979    0.7493 C.ar    1  UNL1       -0.0198
      9 C           2.5026   -1.0435    0.5270 C.ar    1  UNL1       -0.0029
     10 C           1.4798   -0.4993   -0.3806 C.3     1  UNL1       -0.0218
     11 C           0.3973    0.1287    0.4814 C.3     1  UNL1       -0.0225
     12 C          -0.6752    0.7006   -0.4021 C.3     1  UNL1        0.0594
     13 C          -1.7898    1.3441    0.3978 C.3     1  UNL1       -0.0242
     14 C          -2.8388    1.4769   -0.6873 C.3     1  UNL1       -0.0242
     15 C          -2.5166    0.3068   -1.5752 C.3     1  UNL1        0.0603
     16 C          -3.6364   -0.6934   -1.6478 C.3     1  UNL1       -0.0142
     17 C          -4.8984   -0.0582   -2.1953 C.3     1  UNL1       -0.0046
     18 N          -4.6809    0.4646   -3.5325 N.3     1  UNL1       -0.3299
     19 O          -1.3768   -0.2853   -1.0899 O.3     1  UNL1       -0.3733
     20 H           5.3294    1.8324    1.2457 H       1  UNL1        0.0660
     21 H           3.9731    3.0733    1.3897 H       1  UNL1        0.0660
     22 H           4.2781    1.8255    2.6783 H       1  UNL1        0.0660
     23 H           5.0825   -0.1031    2.5238 H       1  UNL1        0.0655
     24 H           5.1292   -2.5466    2.8852 H       1  UNL1        0.0647
     25 H           1.8777   -3.0861    0.2824 H       1  UNL1        0.0650
     26 H           1.9138    0.2627   -1.0822 H       1  UNL1        0.0315
     27 H           1.0564   -1.2910   -1.0331 H       1  UNL1        0.0315
     28 H           0.0314   -0.6046    1.2005 H       1  UNL1        0.0293
     29 H           0.8671    0.9675    1.0315 H       1  UNL1        0.0293
     30 H          -0.2936    1.4249   -1.1171 H       1  UNL1        0.0596
     31 H          -1.4916    2.3259    0.8150 H       1  UNL1        0.0291
     32 H          -2.1528    0.6401    1.2006 H       1  UNL1        0.0291
     33 H          -3.8602    1.4751   -0.2908 H       1  UNL1        0.0291
     34 H          -2.5909    2.4025   -1.2600 H       1  UNL1        0.0291
     35 H          -2.3071    0.6254   -2.6309 H       1  UNL1        0.0596
     36 H          -3.8833   -1.1546   -0.6789 H       1  UNL1        0.0302
     37 H          -3.3188   -1.5015   -2.3402 H       1  UNL1        0.0302
     38 H          -5.2805    0.7401   -1.5553 H       1  UNL1        0.0423
     39 H          -5.6748   -0.8508   -2.2976 H       1  UNL1        0.0423
     40 H          -5.1836    1.3711   -3.6916 H       1  UNL1        0.1182
     41 H          -4.9074   -0.2326   -4.2788 H       1  UNL1        0.1182
@<TRIPOS>BOND
     1     1     2    1
     2     2     3    1
     3     3     4   ar
     4     4     5   ar
     5     5     6   ar
     6     6     7    1
     7     6     8   ar
     8     8     9   ar
     9     9    10    1
    10    10    11    1
    11    11    12    1
    12    12    13    1
    13    13    14    1
    14    14    15    1
    15    15    16    1
    16    16    17    1
    17    17    18    1
    18    15    19    1
    19     9     3   ar
    20    19    12    1
    21     1    20    1
    22     1    21    1
    23     1    22    1
    24     4    23    1
    25     5    24    1
    26     8    25    1
    27    10    26    1
    28    10    27    1
    29    11    28    1
    30    11    29    1
    31    12    30    1
    32    13    31    1
    33    13    32    1
    34    14    33    1
    35    14    34    1
    36    15    35    1
    37    16    36    1
    38    16    37    1
    39    17    38    1
    40    17    39    1
    41    18    40    1
    42    18    41    1
