@<TRIPOS>MOLECULE
*****
 62 66 0 0 0
SMALL
GASTEIGER

@<TRIPOS>ATOM
      1 C          -4.6039   -4.3546   -0.6753 C.3     1  UNL1       -0.0653
      2 C          -4.1419   -3.1316    0.1260 C.3     1  UNL1       -0.0556
      3 C          -2.6729   -3.2893    0.3284 C.3     1  UNL1       -0.0478
      4 C          -2.0369   -2.1594    1.1133 C.3     1  UNL1       -0.0084
      5 C          -2.2046   -0.8530    0.4569 C.ar    1  UNL1        0.0677
      6 N          -3.1784    0.0252    0.8474 N.ar    1  UNL1       -0.1703
      7 N          -3.1878    1.0956    0.0907 N.ar    1  UNL1       -0.2252
      8 C          -4.0431    2.2293    0.1789 C.ar    1  UNL1        0.0663
      9 C          -3.7162    3.3377    0.8902 C.ar    1  UNL1       -0.0362
     10 C          -4.5647    4.4116    0.9539 C.ar    1  UNL1       -0.0598
     11 C          -5.7756    4.3955    0.2963 C.ar    1  UNL1       -0.0616
     12 C          -6.1187    3.2791   -0.4270 C.ar    1  UNL1       -0.0598
     13 C          -5.2710    2.1988   -0.4945 C.ar    1  UNL1       -0.0362
     14 C          -2.1973    0.9265   -0.8244 C.ar    1  UNL1        0.1547
     15 C          -1.8623    1.8634   -1.8523 C.2     1  UNL1        0.3557
     16 O          -0.9525    1.7036   -2.6999 O.2     1  UNL1       -0.2434
     17 O          -2.5751    3.0652   -1.9632 O.3     1  UNL1       -0.4761
     18 C          -1.5606   -0.2964   -0.6113 C.ar    1  UNL1        0.0123
     19 C          -0.4030   -0.8169   -1.3345 C.3     1  UNL1        0.0016
     20 C           0.9166   -0.4503   -0.8649 C.ar    1  UNL1       -0.0429
     21 C           1.4376   -0.6975    0.3683 C.ar    1  UNL1       -0.0577
     22 C           2.7545   -0.3187    0.7006 C.ar    1  UNL1       -0.0537
     23 C           3.5531    0.3095   -0.2032 C.ar    1  UNL1       -0.0172
     24 C           4.9097    0.7154    0.1142 C.ar    1  UNL1       -0.0072
     25 C           5.1510    2.1032    0.1641 C.ar    1  UNL1       -0.0534
     26 C           6.4248    2.5128    0.4764 C.ar    1  UNL1       -0.0611
     27 C           7.4503    1.6401    0.7362 C.ar    1  UNL1       -0.0611
     28 C           7.1684    0.2970    0.6759 C.ar    1  UNL1       -0.0504
     29 C           5.8883   -0.1927    0.3625 C.ar    1  UNL1        0.0282
     30 C           5.6438   -1.6121    0.2930 C.ar    1  UNL1        0.1799
     31 N           4.5242   -2.2340   -0.0519 N.ar    1  UNL1       -0.1084
     32 N           4.7505   -3.5567    0.0101 N.ar    1  UNL1       -0.0229
     33 N           5.9913   -3.7694    0.3877 N.ar    1  UNL1       -0.0464
     34 N           6.5448   -2.5697    0.5632 N.ar    1  UNL1       -0.2388
     35 C           3.0578    0.5720   -1.4512 C.ar    1  UNL1       -0.0537
     36 C           1.7799    0.1996   -1.7610 C.ar    1  UNL1       -0.0577
     37 H          -5.6996   -4.3351   -0.8473 H       1  UNL1        0.0230
     38 H          -4.1180   -4.3927   -1.6682 H       1  UNL1        0.0230
     39 H          -4.4055   -5.2948   -0.0975 H       1  UNL1        0.0230
     40 H          -4.7013   -3.1889    1.0827 H       1  UNL1        0.0263
     41 H          -4.4116   -2.2483   -0.4869 H       1  UNL1        0.0263
     42 H          -2.5179   -4.2170    0.9352 H       1  UNL1        0.0269
     43 H          -2.2011   -3.4409   -0.6396 H       1  UNL1        0.0269
     44 H          -0.9987   -2.4039    1.2766 H       1  UNL1        0.0329
     45 H          -2.5234   -2.1786    2.1279 H       1  UNL1        0.0329
     46 H          -2.7823    3.3837    1.4135 H       1  UNL1        0.0639
     47 H          -4.3026    5.3012    1.5260 H       1  UNL1        0.0618
     48 H          -6.4485    5.2670    0.3561 H       1  UNL1        0.0618
     49 H          -7.0747    3.2304   -0.9614 H       1  UNL1        0.0618
     50 H          -5.5318    1.3153   -1.0598 H       1  UNL1        0.0639
     51 H          -2.1778    3.9173   -2.3417 H       1  UNL1        0.2955
     52 H          -0.4718   -1.9442   -1.3295 H       1  UNL1        0.0363
     53 H          -0.5040   -0.5849   -2.4424 H       1  UNL1        0.0363
     54 H           0.8306   -1.1833    1.1040 H       1  UNL1        0.0621
     55 H           3.1151   -0.5364    1.6855 H       1  UNL1        0.0624
     56 H           4.3438    2.7975   -0.0415 H       1  UNL1        0.0624
     57 H           6.6575    3.5852    0.5252 H       1  UNL1        0.0618
     58 H           8.4598    1.9585    0.9830 H       1  UNL1        0.0618
     59 H           7.9380   -0.4426    0.8729 H       1  UNL1        0.0625
     60 H           7.5327   -2.4349    0.8666 H       1  UNL1        0.1923
     61 H           3.6930    1.0779   -2.1885 H       1  UNL1        0.0624
     62 H           1.4201    0.4136   -2.7516 H       1  UNL1        0.0621
@<TRIPOS>BOND
     1     1     2    1
     2     2     3    1
     3     3     4    1
     4     4     5    1
     5     5     6   ar
     6     6     7   ar
     7     7     8    1
     8     8     9   ar
     9     9    10   ar
    10    10    11   ar
    11    11    12   ar
    12    12    13   ar
    13     7    14   ar
    14    14    15    1
    15    15    16    2
    16    15    17    1
    17    14    18   ar
    18    18    19    1
    19    19    20    1
    20    20    21   ar
    21    21    22   ar
    22    22    23   ar
    23    23    24    1
    24    24    25   ar
    25    25    26   ar
    26    26    27   ar
    27    27    28   ar
    28    28    29   ar
    29    29    30    1
    30    30    31   ar
    31    31    32   ar
    32    32    33   ar
    33    33    34   ar
    34    23    35   ar
    35    35    36   ar
    36    18     5   ar
    37    36    20   ar
    38    13     8   ar
    39    29    24   ar
    40    34    30   ar
    41     1    37    1
    42     1    38    1
    43     1    39    1
    44     2    40    1
    45     2    41    1
    46     3    42    1
    47     3    43    1
    48     4    44    1
    49     4    45    1
    50     9    46    1
    51    10    47    1
    52    11    48    1
    53    12    49    1
    54    13    50    1
    55    17    51    1
    56    19    52    1
    57    19    53    1
    58    21    54    1
    59    22    55    1
    60    25    56    1
    61    26    57    1
    62    27    58    1
    63    28    59    1
    64    34    60    1
    65    35    61    1
    66    36    62    1
