@<TRIPOS>MOLECULE
*****
 52 52 0 0 0
SMALL
GASTEIGER

@<TRIPOS>ATOM
      1 C          -4.4239   -1.3526   -0.3337 C.3     1  UNL1       -0.0626
      2 C          -3.5018   -2.3970    0.2221 C.3     1  UNL1       -0.0446
      3 C          -3.8190   -2.5468    1.6882 C.3     1  UNL1       -0.0626
      4 C          -2.0668   -2.2260   -0.0761 C.3     1  UNL1       -0.0236
      5 C          -1.4001   -0.9863    0.4053 C.3     1  UNL1        0.0997
      6 N          -1.9718    0.2287   -0.1323 N.am    1  UNL1       -0.3018
      7 C          -2.3990    1.3217    0.6631 C.2     1  UNL1        0.2457
      8 O          -2.2655    1.2113    1.9067 O.2     1  UNL1       -0.2728
      9 C          -2.9790    2.5542    0.1160 C.3     1  UNL1        0.1717
     10 O          -2.5590    3.0090   -1.1354 O.3     1  UNL1       -0.3467
     11 C          -3.8402    2.5040   -1.1137 C.3     1  UNL1        0.1902
     12 C          -4.9946    3.4309   -1.2051 C.2     1  UNL1        0.3370
     13 O          -6.0148    3.1149   -1.8647 O.2     1  UNL1       -0.2480
     14 O          -4.9889    4.6638   -0.5734 O.3     1  UNL1       -0.4787
     15 C           0.0180   -1.0592   -0.0395 C.2     1  UNL1        0.2334
     16 O           0.4734   -0.1395   -0.7532 O.2     1  UNL1       -0.2738
     17 N           0.8853   -2.1285    0.3086 N.am    1  UNL1       -0.3138
     18 C           2.2532   -2.2194   -0.1080 C.3     1  UNL1        0.0117
     19 C           3.0975   -1.0692    0.3580 C.3     1  UNL1       -0.0344
     20 C           4.5163   -1.3063   -0.1597 C.3     1  UNL1       -0.0172
     21 C           5.4189   -0.1720    0.2816 C.3     1  UNL1        0.1047
     22 N           4.8966    1.0419   -0.2584 N.pl3   1  UNL1       -0.1138
     23 C           5.6621    2.0428   -0.4824 C.cat   1  UNL1        0.3765
     24 N           5.1036    3.2262   -1.0179 N.pl3   1  UNL1       -0.2893
     25 N           7.0424    1.9375   -0.1888 N.pl3   1  UNL1       -0.2893
     26 H          -4.0274   -1.0309   -1.3184 H       1  UNL1        0.0232
     27 H          -5.4608   -1.7887   -0.4833 H       1  UNL1        0.0232
     28 H          -4.6020   -0.4967    0.3487 H       1  UNL1        0.0232
     29 H          -3.8192   -3.3686   -0.2617 H       1  UNL1        0.0296
     30 H          -3.0768   -3.1100    2.2518 H       1  UNL1        0.0232
     31 H          -4.7877   -3.0865    1.7636 H       1  UNL1        0.0232
     32 H          -4.0137   -1.5238    2.0841 H       1  UNL1        0.0232
     33 H          -1.9712   -2.2130   -1.2052 H       1  UNL1        0.0290
     34 H          -1.4469   -3.1157    0.2105 H       1  UNL1        0.0290
     35 H          -1.3685   -0.9143    1.5209 H       1  UNL1        0.0594
     36 H          -2.0685    0.3008   -1.1648 H       1  UNL1        0.1495
     37 H          -3.2750    3.3384    0.8391 H       1  UNL1        0.0726
     38 H          -3.9504    1.5433   -1.6574 H       1  UNL1        0.0745
     39 H          -5.8229    5.1531   -0.2757 H       1  UNL1        0.2951
     40 H           0.4705   -2.8785    0.9055 H       1  UNL1        0.1487
     41 H           2.6984   -3.1648    0.2618 H       1  UNL1        0.0462
     42 H           2.3574   -2.2582   -1.2257 H       1  UNL1        0.0462
     43 H           3.0784   -0.8903    1.4330 H       1  UNL1        0.0281
     44 H           2.7588   -0.1221   -0.1323 H       1  UNL1        0.0281
     45 H           4.9082   -2.2854    0.1718 H       1  UNL1        0.0297
     46 H           4.5149   -1.3106   -1.2671 H       1  UNL1        0.0297
     47 H           5.4038   -0.1775    1.3980 H       1  UNL1        0.0693
     48 H           6.4348   -0.4165   -0.0367 H       1  UNL1        0.0693
     49 H           5.3957    4.1875   -0.6916 H       1  UNL1        0.2546
     50 H           4.3776    3.1759   -1.7605 H       1  UNL1        0.2546
     51 H           7.6304    1.2925   -0.7507 H       1  UNL1        0.2546
     52 H           7.5192    2.4764    0.5711 H       1  UNL1        0.2546
@<TRIPOS>BOND
     1     1     2    1
     2     2     3    1
     3     2     4    1
     4     4     5    1
     5     5     6    1
     6     6     7   am
     7     7     8    2
     8     7     9    1
     9     9    10    1
    10    10    11    1
    11    11    12    1
    12    12    13    2
    13    12    14    1
    14     5    15    1
    15    15    16    2
    16    15    17   am
    17    17    18    1
    18    18    19    1
    19    19    20    1
    20    20    21    1
    21    21    22    1
    22    22    23    2
    23    23    24    1
    24    23    25    1
    25    11     9    1
    26     1    26    1
    27     1    27    1
    28     1    28    1
    29     2    29    1
    30     3    30    1
    31     3    31    1
    32     3    32    1
    33     4    33    1
    34     4    34    1
    35     5    35    1
    36     6    36    1
    37     9    37    1
    38    11    38    1
    39    14    39    1
    40    17    40    1
    41    18    41    1
    42    18    42    1
    43    19    43    1
    44    19    44    1
    45    20    45    1
    46    20    46    1
    47    21    47    1
    48    21    48    1
    49    24    49    1
    50    24    50    1
    51    25    51    1
    52    25    52    1
