
     RDKit          3D

 52 52  0  0  0  0  0  0  0  0999 V2000
   -4.4239   -1.3526   -0.3337 C   0  0  0  0  0  0  0  0  0  0  0  0
   -3.5018   -2.3970    0.2221 C   0  0  0  0  0  0  0  0  0  0  0  0
   -3.8190   -2.5468    1.6882 C   0  0  0  0  0  0  0  0  0  0  0  0
   -2.0668   -2.2260   -0.0761 C   0  0  0  0  0  0  0  0  0  0  0  0
   -1.4001   -0.9863    0.4053 C   0  0  2  0  0  0  0  0  0  0  0  0
   -1.9718    0.2287   -0.1323 N   0  0  0  0  0  0  0  0  0  0  0  0
   -2.3990    1.3217    0.6631 C   0  0  0  0  0  0  0  0  0  0  0  0
   -2.2655    1.2113    1.9067 O   0  0  0  0  0  0  0  0  0  0  0  0
   -2.9790    2.5542    0.1160 C   0  0  1  0  0  0  0  0  0  0  0  0
   -2.5590    3.0090   -1.1354 O   0  0  0  0  0  0  0  0  0  0  0  0
   -3.8402    2.5040   -1.1137 C   0  0  2  0  0  0  0  0  0  0  0  0
   -4.9946    3.4309   -1.2051 C   0  0  0  0  0  0  0  0  0  0  0  0
   -6.0148    3.1149   -1.8647 O   0  0  0  0  0  0  0  0  0  0  0  0
   -4.9889    4.6638   -0.5734 O   0  0  0  0  0  0  0  0  0  0  0  0
    0.0180   -1.0592   -0.0395 C   0  0  0  0  0  0  0  0  0  0  0  0
    0.4734   -0.1395   -0.7532 O   0  0  0  0  0  0  0  0  0  0  0  0
    0.8853   -2.1285    0.3086 N   0  0  0  0  0  0  0  0  0  0  0  0
    2.2532   -2.2194   -0.1080 C   0  0  0  0  0  0  0  0  0  0  0  0
    3.0975   -1.0692    0.3580 C   0  0  0  0  0  0  0  0  0  0  0  0
    4.5163   -1.3063   -0.1597 C   0  0  0  0  0  0  0  0  0  0  0  0
    5.4189   -0.1720    0.2816 C   0  0  0  0  0  0  0  0  0  0  0  0
    4.8966    1.0419   -0.2584 N   0  0  0  0  0  0  0  0  0  0  0  0
    5.6621    2.0428   -0.4824 C   0  0  0  0  0  0  0  0  0  0  0  0
    5.1036    3.2262   -1.0179 N   0  0  0  0  0  0  0  0  0  0  0  0
    7.0424    1.9375   -0.1888 N   0  0  0  0  0  0  0  0  0  0  0  0
   -4.0274   -1.0309   -1.3184 H   0  0  0  0  0  0  0  0  0  0  0  0
   -5.4608   -1.7887   -0.4833 H   0  0  0  0  0  0  0  0  0  0  0  0
   -4.6020   -0.4967    0.3487 H   0  0  0  0  0  0  0  0  0  0  0  0
   -3.8192   -3.3686   -0.2617 H   0  0  0  0  0  0  0  0  0  0  0  0
   -3.0768   -3.1100    2.2518 H   0  0  0  0  0  0  0  0  0  0  0  0
   -4.7877   -3.0865    1.7636 H   0  0  0  0  0  0  0  0  0  0  0  0
   -4.0137   -1.5238    2.0841 H   0  0  0  0  0  0  0  0  0  0  0  0
   -1.9712   -2.2130   -1.2052 H   0  0  0  0  0  0  0  0  0  0  0  0
   -1.4469   -3.1157    0.2105 H   0  0  0  0  0  0  0  0  0  0  0  0
   -1.3685   -0.9143    1.5209 H   0  0  0  0  0  0  0  0  0  0  0  0
   -2.0685    0.3008   -1.1648 H   0  0  0  0  0  0  0  0  0  0  0  0
   -3.2750    3.3384    0.8391 H   0  0  0  0  0  0  0  0  0  0  0  0
   -3.9504    1.5433   -1.6574 H   0  0  0  0  0  0  0  0  0  0  0  0
   -5.8229    5.1531   -0.2757 H   0  0  0  0  0  0  0  0  0  0  0  0
    0.4705   -2.8785    0.9055 H   0  0  0  0  0  0  0  0  0  0  0  0
    2.6984   -3.1648    0.2618 H   0  0  0  0  0  0  0  0  0  0  0  0
    2.3574   -2.2582   -1.2257 H   0  0  0  0  0  0  0  0  0  0  0  0
    3.0784   -0.8903    1.4330 H   0  0  0  0  0  0  0  0  0  0  0  0
    2.7588   -0.1221   -0.1323 H   0  0  0  0  0  0  0  0  0  0  0  0
    4.9082   -2.2854    0.1718 H   0  0  0  0  0  0  0  0  0  0  0  0
    4.5149   -1.3106   -1.2671 H   0  0  0  0  0  0  0  0  0  0  0  0
    5.4038   -0.1775    1.3980 H   0  0  0  0  0  0  0  0  0  0  0  0
    6.4348   -0.4165   -0.0367 H   0  0  0  0  0  0  0  0  0  0  0  0
    5.3957    4.1875   -0.6916 H   0  0  0  0  0  0  0  0  0  0  0  0
    4.3776    3.1759   -1.7605 H   0  0  0  0  0  0  0  0  0  0  0  0
    7.6304    1.2925   -0.7507 H   0  0  0  0  0  0  0  0  0  0  0  0
    7.5192    2.4764    0.5711 H   0  0  0  0  0  0  0  0  0  0  0  0
  1  2  1  0
  2  3  1  0
  2  4  1  0
  4  5  1  0
  5  6  1  0
  6  7  1  0
  7  8  2  0
  7  9  1  0
  9 10  1  0
 10 11  1  0
 11 12  1  0
 12 13  2  0
 12 14  1  0
  5 15  1  0
 15 16  2  0
 15 17  1  0
 17 18  1  0
 18 19  1  0
 19 20  1  0
 20 21  1  0
 21 22  1  0
 22 23  2  3
 23 24  1  0
 23 25  1  0
 11  9  1  0
  1 26  1  0
  1 27  1  0
  1 28  1  0
  2 29  1  0
  3 30  1  0
  3 31  1  0
  3 32  1  0
  4 33  1  0
  4 34  1  0
  5 35  1  1
  6 36  1  0
  9 37  1  1
 11 38  1  6
 14 39  1  0
 17 40  1  0
 18 41  1  0
 18 42  1  0
 19 43  1  0
 19 44  1  0
 20 45  1  0
 20 46  1  0
 21 47  1  0
 21 48  1  0
 24 49  1  0
 24 50  1  0
 25 51  1  0
 25 52  1  0
M  END
$$$$
