@<TRIPOS>MOLECULE
*****
 48 51 0 0 0
SMALL
GASTEIGER

@<TRIPOS>ATOM
      1 C          -3.8545    1.4444    2.2587 C.2     1  UNL1       -0.1023
      2 C          -3.9262    1.9416    1.0455 C.2     1  UNL1       -0.0865
      3 C          -3.7029    1.1190   -0.1337 C.3     1  UNL1       -0.0075
      4 C          -2.5106    1.5960   -0.9633 C.3     1  UNL1        0.0058
      5 N          -1.9794    0.5010   -1.7420 N.3     1  UNL1       -0.2960
      6 C          -3.0912   -0.2634   -2.2961 C.3     1  UNL1       -0.0004
      7 C          -3.6820   -1.0527   -1.1752 C.3     1  UNL1       -0.0367
      8 C          -3.4034   -0.3334    0.1589 C.3     1  UNL1       -0.0310
      9 C          -1.8901   -0.3496    0.4517 C.3     1  UNL1       -0.0312
     10 C          -1.2470   -0.4765   -0.9011 C.3     1  UNL1        0.0408
     11 C           0.2253   -0.1715   -0.9372 C.3     1  UNL1        0.0963
     12 O           0.3395    1.1533   -0.3969 O.3     1  UNL1       -0.3856
     13 C           1.0906   -1.1077   -0.1991 C.ar    1  UNL1       -0.0070
     14 C           0.5756   -2.3271    0.1823 C.ar    1  UNL1       -0.0373
     15 C           1.3756   -3.1833    0.9221 C.ar    1  UNL1        0.0286
     16 N           2.6170   -2.8272    1.2529 N.ar    1  UNL1       -0.2550
     17 C           3.1462   -1.6370    0.8887 C.ar    1  UNL1        0.0715
     18 C           4.4408   -1.3310    1.2444 C.ar    1  UNL1       -0.0323
     19 C           5.0130   -0.1424    0.8759 C.ar    1  UNL1       -0.0179
     20 C           4.2544    0.7329    0.1407 C.ar    1  UNL1        0.1208
     21 O           4.8014    1.9442   -0.2503 O.3     1  UNL1       -0.4951
     22 C           6.1075    2.3311    0.0689 C.3     1  UNL1        0.0788
     23 C           2.9444    0.4731   -0.2436 C.ar    1  UNL1       -0.0104
     24 C           2.3924   -0.7229    0.1392 C.ar    1  UNL1        0.0095
     25 H          -3.6308    0.4138    2.4989 H       1  UNL1        0.0532
     26 H          -4.0251    2.0724    3.1486 H       1  UNL1        0.0532
     27 H          -4.1578    2.9903    0.9318 H       1  UNL1        0.0570
     28 H          -4.6183    1.1860   -0.7790 H       1  UNL1        0.0358
     29 H          -1.7737    2.1271   -0.3641 H       1  UNL1        0.0432
     30 H          -2.9135    2.3293   -1.6939 H       1  UNL1        0.0432
     31 H          -2.6146   -0.9988   -3.0070 H       1  UNL1        0.0427
     32 H          -3.8147    0.3930   -2.8117 H       1  UNL1        0.0427
     33 H          -4.7791   -1.0442   -1.2810 H       1  UNL1        0.0280
     34 H          -3.3611   -2.1039   -1.1359 H       1  UNL1        0.0280
     35 H          -3.9943   -0.7781    0.9600 H       1  UNL1        0.0308
     36 H          -1.7156   -1.1738    1.1467 H       1  UNL1        0.0284
     37 H          -1.6029    0.6004    0.9655 H       1  UNL1        0.0284
     38 H          -1.4171   -1.4922   -1.2695 H       1  UNL1        0.0491
     39 H           0.5406   -0.1062   -1.9912 H       1  UNL1        0.0659
     40 H           0.4479    1.0695    0.5834 H       1  UNL1        0.2103
     41 H          -0.4251   -2.6171   -0.1007 H       1  UNL1        0.0636
     42 H           0.9228   -4.1287    1.1969 H       1  UNL1        0.0830
     43 H           5.0401   -2.0362    1.8315 H       1  UNL1        0.0640
     44 H           6.0446    0.1119    1.1547 H       1  UNL1        0.0655
     45 H           6.3944    2.1224    1.1185 H       1  UNL1        0.0660
     46 H           6.8465    1.8196   -0.6068 H       1  UNL1        0.0660
     47 H           6.1879    3.4438   -0.0509 H       1  UNL1        0.0660
     48 H           2.3828    1.1616   -0.8361 H       1  UNL1        0.0661
@<TRIPOS>BOND
     1     1     2    2
     2     2     3    1
     3     3     4    1
     4     4     5    1
     5     5     6    1
     6     6     7    1
     7     7     8    1
     8     8     9    1
     9     9    10    1
    10    10    11    1
    11    11    12    1
    12    11    13    1
    13    13    14   ar
    14    14    15   ar
    15    15    16   ar
    16    16    17   ar
    17    17    18   ar
    18    18    19   ar
    19    19    20   ar
    20    20    21    1
    21    21    22    1
    22    20    23   ar
    23    23    24   ar
    24     8     3    1
    25    24    13   ar
    26    10     5    1
    27    24    17   ar
    28     1    25    1
    29     1    26    1
    30     2    27    1
    31     3    28    1
    32     4    29    1
    33     4    30    1
    34     6    31    1
    35     6    32    1
    36     7    33    1
    37     7    34    1
    38     8    35    1
    39     9    36    1
    40     9    37    1
    41    10    38    1
    42    11    39    1
    43    12    40    1
    44    14    41    1
    45    15    42    1
    46    18    43    1
    47    19    44    1
    48    22    45    1
    49    22    46    1
    50    22    47    1
    51    23    48    1
