@<TRIPOS>MOLECULE
*****
 50 53 0 0 0
SMALL
GASTEIGER

@<TRIPOS>ATOM
      1 C           1.7141    1.2759   -1.1473 C.3     1  UNL1        0.1518
      2 C           1.1111    1.0470   -2.5214 C.3     1  UNL1        0.0877
      3 O          -0.2474    0.9303   -2.3810 O.3     1  UNL1       -0.3664
      4 C          -0.5413    0.6861   -1.0633 C.3     1  UNL1        0.1273
      5 C          -1.8338    1.3459   -0.6122 C.3     1  UNL1        0.1518
      6 C          -1.4067    2.7965   -0.6173 C.3     1  UNL1        0.0877
      7 O          -0.0275    2.8401   -0.6166 O.3     1  UNL1       -0.3664
      8 C           0.4524    1.5791   -0.3468 C.3     1  UNL1        0.1273
      9 O          -2.8864    1.0716   -1.4683 O.3     1  UNL1       -0.4838
     10 C          -4.0506    0.4287   -1.0833 C.ar    1  UNL1        0.1220
     11 C          -4.8996    0.3141   -2.1923 C.ar    1  UNL1       -0.0199
     12 C          -6.1508   -0.3025   -2.0700 C.ar    1  UNL1       -0.0575
     13 C          -6.5629   -0.8065   -0.8493 C.ar    1  UNL1       -0.0467
     14 C          -5.6899   -0.6684    0.2114 C.ar    1  UNL1        0.0682
     15 C          -4.4615   -0.0699    0.1181 C.ar    1  UNL1       -0.0051
     16 C          -6.0871   -1.1865    1.5147 C.2     1  UNL1        0.3082
     17 N          -6.9375   -2.2900    1.6660 N.pl3   1  UNL1       -0.2466
     18 N          -5.8381   -0.8660    2.7377 N.2     1  UNL1       -0.0994
     19 O           2.1823    0.0355   -0.6975 O.3     1  UNL1       -0.4839
     20 C           3.4799   -0.1598   -0.2491 C.ar    1  UNL1        0.1212
     21 C           3.6442   -1.4927    0.1296 C.ar    1  UNL1       -0.0191
     22 C           4.8709   -1.9508    0.6208 C.ar    1  UNL1       -0.0434
     23 C           5.9319   -1.0834    0.7347 C.ar    1  UNL1        0.0649
     24 C           5.7397    0.2476    0.3478 C.ar    1  UNL1       -0.0434
     25 C           4.5442    0.6861   -0.1290 C.ar    1  UNL1       -0.0191
     26 C           7.2366   -1.4870    1.2365 C.2     1  UNL1        0.3081
     27 N           8.3716   -0.7985    0.7425 N.pl3   1  UNL1       -0.2466
     28 N           7.5166   -2.3958    2.0802 N.2     1  UNL1       -0.0994
     29 H           2.4259    2.0980   -1.1298 H       1  UNL1        0.0784
     30 H           1.5306    0.1395   -2.9880 H       1  UNL1        0.0598
     31 H           1.4044    1.9474   -3.1339 H       1  UNL1        0.0598
     32 H          -0.4813   -0.3696   -0.7606 H       1  UNL1        0.0661
     33 H          -2.0056    1.0026    0.4177 H       1  UNL1        0.0784
     34 H          -1.8459    3.3558   -1.4704 H       1  UNL1        0.0598
     35 H          -1.7255    3.3334    0.3023 H       1  UNL1        0.0598
     36 H           0.5522    1.3457    0.7207 H       1  UNL1        0.0661
     37 H          -4.7286    0.6522   -3.2049 H       1  UNL1        0.0654
     38 H          -6.8486   -0.4232   -2.8777 H       1  UNL1        0.0619
     39 H          -7.5125   -1.2879   -0.7043 H       1  UNL1        0.0626
     40 H          -3.7460    0.0686    0.8883 H       1  UNL1        0.0662
     41 H          -6.9876   -3.3083    1.8260 H       1  UNL1        0.2884
     42 H          -7.9331   -1.9645    1.5870 H       1  UNL1        0.2884
     43 H          -5.2173   -0.0610    2.9655 H       1  UNL1        0.3633
     44 H           2.9084   -2.2945    0.0999 H       1  UNL1        0.0654
     45 H           5.0720   -2.9587    0.9309 H       1  UNL1        0.0627
     46 H           6.5428    0.9689    0.4180 H       1  UNL1        0.0627
     47 H           4.2990    1.6897   -0.4516 H       1  UNL1        0.0654
     48 H           9.3100   -0.6405    0.3211 H       1  UNL1        0.2884
     49 H           8.9698   -0.0001    0.4959 H       1  UNL1        0.2884
     50 H           6.8427   -3.0202    2.5666 H       1  UNL1        0.3633
@<TRIPOS>BOND
     1     1     2    1
     2     2     3    1
     3     3     4    1
     4     4     5    1
     5     5     6    1
     6     6     7    1
     7     7     8    1
     8     5     9    1
     9     9    10    1
    10    10    11   ar
    11    11    12   ar
    12    12    13   ar
    13    13    14   ar
    14    14    15   ar
    15    14    16    1
    16    16    17    1
    17    16    18    2
    18     1    19    1
    19    19    20    1
    20    20    21   ar
    21    21    22   ar
    22    22    23   ar
    23    23    24   ar
    24    24    25   ar
    25    23    26    1
    26    26    27    1
    27    26    28    2
    28     8     1    1
    29    15    10   ar
    30    25    20   ar
    31     8     4    1
    32     1    29    1
    33     2    30    1
    34     2    31    1
    35     4    32    1
    36     5    33    1
    37     6    34    1
    38     6    35    1
    39     8    36    1
    40    11    37    1
    41    12    38    1
    42    13    39    1
    43    15    40    1
    44    17    41    1
    45    17    42    1
    46    18    43    1
    47    21    44    1
    48    22    45    1
    49    24    46    1
    50    25    47    1
    51    27    48    1
    52    27    49    1
    53    28    50    1
