@<TRIPOS>MOLECULE
*****
 43 45 0 0 0
SMALL
GASTEIGER

@<TRIPOS>ATOM
      1 C          -0.8701    4.1956   -0.4916 C.3     1  UNL1        0.0817
      2 O          -1.4256    2.8914   -0.6133 O.3     1  UNL1       -0.4676
      3 C          -0.6798    1.7574   -0.8018 C.2     1  UNL1        0.3150
      4 O           0.5512    1.8470   -0.8736 O.2     1  UNL1       -0.2504
      5 C          -1.3412    0.4476   -0.9171 C.3     1  UNL1        0.1087
      6 C          -0.3769   -0.6886   -1.1193 C.3     1  UNL1        0.1191
      7 O           0.8248   -0.5475   -0.3917 O.3     1  UNL1       -0.4569
      8 C           2.0386   -0.4627   -1.0584 C.2     1  UNL1        0.3395
      9 O           2.0361   -0.5148   -2.3189 O.2     1  UNL1       -0.2450
     10 C           3.3097   -0.3168   -0.3719 C.ar    1  UNL1        0.0590
     11 C           3.3936   -0.2526    1.0001 C.ar    1  UNL1       -0.0478
     12 C           4.6213   -0.1126    1.6425 C.ar    1  UNL1       -0.0610
     13 C           5.7777   -0.0360    0.9064 C.ar    1  UNL1       -0.0617
     14 C           5.7185   -0.0972   -0.4482 C.ar    1  UNL1       -0.0610
     15 C           4.4829   -0.2377   -1.0848 C.ar    1  UNL1       -0.0478
     16 C          -1.0257   -2.0311   -0.8505 C.3     1  UNL1        0.0008
     17 C          -2.1359   -1.9704    0.1417 C.3     1  UNL1        0.0138
     18 C          -3.4614   -1.5749   -0.5116 C.3     1  UNL1       -0.0358
     19 C          -3.6500   -0.1104   -0.1684 C.3     1  UNL1       -0.0350
     20 C          -2.2392    0.2689    0.2721 C.3     1  UNL1        0.0268
     21 N          -1.8826   -0.9009    1.0699 N.3     1  UNL1       -0.2984
     22 C          -2.8188   -0.9647    2.1750 C.3     1  UNL1       -0.0122
     23 H          -0.0197    4.2213    0.2103 H       1  UNL1        0.0661
     24 H          -1.6999    4.8597   -0.1607 H       1  UNL1        0.0661
     25 H          -0.5758    4.5811   -1.5058 H       1  UNL1        0.0661
     26 H          -1.9963    0.4851   -1.8354 H       1  UNL1        0.0466
     27 H          -0.1119   -0.7032   -2.1953 H       1  UNL1        0.0743
     28 H           2.5194   -0.3079    1.6212 H       1  UNL1        0.0626
     29 H           4.6701   -0.0629    2.7396 H       1  UNL1        0.0618
     30 H           6.7276    0.0722    1.3999 H       1  UNL1        0.0618
     31 H           6.6030   -0.0419   -1.0915 H       1  UNL1        0.0618
     32 H           4.4724   -0.2834   -2.1712 H       1  UNL1        0.0626
     33 H          -1.4001   -2.5085   -1.7768 H       1  UNL1        0.0316
     34 H          -0.2429   -2.7173   -0.4363 H       1  UNL1        0.0316
     35 H          -2.2997   -2.9393    0.6167 H       1  UNL1        0.0464
     36 H          -3.4334   -1.7358   -1.6109 H       1  UNL1        0.0281
     37 H          -4.3092   -2.1225   -0.0562 H       1  UNL1        0.0281
     38 H          -4.3855    0.0507    0.6262 H       1  UNL1        0.0281
     39 H          -3.8679    0.4431   -1.0962 H       1  UNL1        0.0281
     40 H          -2.2722    1.1777    0.9201 H       1  UNL1        0.0472
     41 H          -2.3277   -1.4723    3.0482 H       1  UNL1        0.0391
     42 H          -3.7019   -1.5981    1.9139 H       1  UNL1        0.0391
     43 H          -3.1952    0.0132    2.4850 H       1  UNL1        0.0391
@<TRIPOS>BOND
     1     1     2    1
     2     2     3    1
     3     3     4    2
     4     3     5    1
     5     5     6    1
     6     6     7    1
     7     7     8    1
     8     8     9    2
     9     8    10    1
    10    10    11   ar
    11    11    12   ar
    12    12    13   ar
    13    13    14   ar
    14    14    15   ar
    15     6    16    1
    16    16    17    1
    17    17    18    1
    18    18    19    1
    19    19    20    1
    20    20    21    1
    21    21    22    1
    22    20     5    1
    23    15    10   ar
    24    21    17    1
    25     1    23    1
    26     1    24    1
    27     1    25    1
    28     5    26    1
    29     6    27    1
    30    11    28    1
    31    12    29    1
    32    13    30    1
    33    14    31    1
    34    15    32    1
    35    16    33    1
    36    16    34    1
    37    17    35    1
    38    18    36    1
    39    18    37    1
    40    19    38    1
    41    19    39    1
    42    20    40    1
    43    22    41    1
    44    22    42    1
    45    22    43    1
