
     RDKit          3D

 43 45  0  0  0  0  0  0  0  0999 V2000
   -0.8701    4.1956   -0.4916 C   0  0  0  0  0  0  0  0  0  0  0  0
   -1.4256    2.8914   -0.6133 O   0  0  0  0  0  0  0  0  0  0  0  0
   -0.6798    1.7574   -0.8018 C   0  0  0  0  0  0  0  0  0  0  0  0
    0.5512    1.8470   -0.8736 O   0  0  0  0  0  0  0  0  0  0  0  0
   -1.3412    0.4476   -0.9171 C   0  0  1  0  0  0  0  0  0  0  0  0
   -0.3769   -0.6886   -1.1193 C   0  0  1  0  0  0  0  0  0  0  0  0
    0.8248   -0.5475   -0.3917 O   0  0  0  0  0  0  0  0  0  0  0  0
    2.0386   -0.4627   -1.0584 C   0  0  0  0  0  0  0  0  0  0  0  0
    2.0361   -0.5148   -2.3189 O   0  0  0  0  0  0  0  0  0  0  0  0
    3.3097   -0.3168   -0.3719 C   0  0  0  0  0  0  0  0  0  0  0  0
    3.3936   -0.2526    1.0001 C   0  0  0  0  0  0  0  0  0  0  0  0
    4.6213   -0.1126    1.6425 C   0  0  0  0  0  0  0  0  0  0  0  0
    5.7777   -0.0360    0.9064 C   0  0  0  0  0  0  0  0  0  0  0  0
    5.7185   -0.0972   -0.4482 C   0  0  0  0  0  0  0  0  0  0  0  0
    4.4829   -0.2377   -1.0848 C   0  0  0  0  0  0  0  0  0  0  0  0
   -1.0257   -2.0311   -0.8505 C   0  0  0  0  0  0  0  0  0  0  0  0
   -2.1359   -1.9704    0.1417 C   0  0  2  0  0  0  0  0  0  0  0  0
   -3.4614   -1.5749   -0.5116 C   0  0  0  0  0  0  0  0  0  0  0  0
   -3.6500   -0.1104   -0.1684 C   0  0  0  0  0  0  0  0  0  0  0  0
   -2.2392    0.2689    0.2721 C   0  0  1  0  0  0  0  0  0  0  0  0
   -1.8826   -0.9009    1.0699 N   0  0  0  0  0  0  0  0  0  0  0  0
   -2.8188   -0.9647    2.1750 C   0  0  0  0  0  0  0  0  0  0  0  0
   -0.0197    4.2213    0.2103 H   0  0  0  0  0  0  0  0  0  0  0  0
   -1.6999    4.8597   -0.1607 H   0  0  0  0  0  0  0  0  0  0  0  0
   -0.5758    4.5811   -1.5058 H   0  0  0  0  0  0  0  0  0  0  0  0
   -1.9963    0.4851   -1.8354 H   0  0  0  0  0  0  0  0  0  0  0  0
   -0.1119   -0.7032   -2.1953 H   0  0  0  0  0  0  0  0  0  0  0  0
    2.5194   -0.3079    1.6212 H   0  0  0  0  0  0  0  0  0  0  0  0
    4.6701   -0.0629    2.7396 H   0  0  0  0  0  0  0  0  0  0  0  0
    6.7276    0.0722    1.3999 H   0  0  0  0  0  0  0  0  0  0  0  0
    6.6030   -0.0419   -1.0915 H   0  0  0  0  0  0  0  0  0  0  0  0
    4.4724   -0.2834   -2.1712 H   0  0  0  0  0  0  0  0  0  0  0  0
   -1.4001   -2.5085   -1.7768 H   0  0  0  0  0  0  0  0  0  0  0  0
   -0.2429   -2.7173   -0.4363 H   0  0  0  0  0  0  0  0  0  0  0  0
   -2.2997   -2.9393    0.6167 H   0  0  0  0  0  0  0  0  0  0  0  0
   -3.4334   -1.7358   -1.6109 H   0  0  0  0  0  0  0  0  0  0  0  0
   -4.3092   -2.1225   -0.0562 H   0  0  0  0  0  0  0  0  0  0  0  0
   -4.3855    0.0507    0.6262 H   0  0  0  0  0  0  0  0  0  0  0  0
   -3.8679    0.4431   -1.0962 H   0  0  0  0  0  0  0  0  0  0  0  0
   -2.2722    1.1777    0.9201 H   0  0  0  0  0  0  0  0  0  0  0  0
   -2.3277   -1.4723    3.0482 H   0  0  0  0  0  0  0  0  0  0  0  0
   -3.7019   -1.5981    1.9139 H   0  0  0  0  0  0  0  0  0  0  0  0
   -3.1952    0.0132    2.4850 H   0  0  0  0  0  0  0  0  0  0  0  0
  1  2  1  0
  2  3  1  0
  3  4  2  0
  3  5  1  0
  5  6  1  0
  6  7  1  0
  7  8  1  0
  8  9  2  0
  8 10  1  0
 10 11  2  0
 11 12  1  0
 12 13  2  0
 13 14  1  0
 14 15  2  0
  6 16  1  0
 16 17  1  0
 17 18  1  0
 18 19  1  0
 19 20  1  0
 20 21  1  0
 21 22  1  0
 20  5  1  0
 15 10  1  0
 21 17  1  0
  1 23  1  0
  1 24  1  0
  1 25  1  0
  5 26  1  6
  6 27  1  6
 11 28  1  0
 12 29  1  0
 13 30  1  0
 14 31  1  0
 15 32  1  0
 16 33  1  0
 16 34  1  0
 17 35  1  1
 18 36  1  0
 18 37  1  0
 19 38  1  0
 19 39  1  0
 20 40  1  1
 22 41  1  0
 22 42  1  0
 22 43  1  0
M  END
$$$$
