@<TRIPOS>MOLECULE
*****
 44 48 0 0 0
SMALL
GASTEIGER

@<TRIPOS>ATOM
      1 C          -8.0838    0.1474    0.6310 C.3     1  UNL1       -0.0397
      2 C          -6.6026    0.1173    0.4944 C.ar    1  UNL1       -0.0504
      3 C          -5.9469   -1.0234    0.0887 C.ar    1  UNL1       -0.0583
      4 C          -4.5687   -1.0347   -0.0332 C.ar    1  UNL1       -0.0538
      5 C          -3.7969    0.0719    0.2394 C.ar    1  UNL1       -0.0178
      6 C          -2.3443    0.0078    0.0950 C.ar    1  UNL1       -0.0159
      7 C          -1.4944    0.7572    0.8867 C.ar    1  UNL1       -0.0533
      8 C          -0.1252    0.6841    0.7364 C.ar    1  UNL1       -0.0499
      9 C           0.4063   -0.1373   -0.2049 C.ar    1  UNL1        0.0260
     10 C          -0.4108   -0.8972   -1.0101 C.ar    1  UNL1        0.0519
     11 C          -1.7634   -0.8134   -0.8486 C.ar    1  UNL1       -0.0299
     12 N           0.0796   -1.7321   -1.9645 N.ar    1  UNL1       -0.3203
     13 C           1.3994   -1.8535   -2.1661 C.ar    1  UNL1        0.2748
     14 O           1.8695   -2.6177   -3.0407 O.2     1  UNL1       -0.2656
     15 C           2.2525   -1.1007   -1.3707 C.ar    1  UNL1        0.1322
     16 N           3.6082   -0.9736   -1.2973 N.ar    1  UNL1       -0.3335
     17 C           3.9575   -0.0991   -0.3408 C.ar    1  UNL1        0.1436
     18 C           5.2975    0.3270    0.0664 C.ar    1  UNL1        0.0707
     19 C           6.4554   -0.1346   -0.5065 C.ar    1  UNL1        0.1354
     20 F           6.3986   -1.0290   -1.5006 F       1  UNL1       -0.2047
     21 C           7.6871    0.3316   -0.0488 C.ar    1  UNL1       -0.0257
     22 C           7.7727    1.2538    0.9749 C.ar    1  UNL1       -0.0576
     23 C           6.6172    1.7112    1.5429 C.ar    1  UNL1       -0.0425
     24 C           5.3975    1.2631    1.1049 C.ar    1  UNL1        0.0544
     25 CL          3.9647    1.9033    1.8906 Cl      1  UNL1       -0.0827
     26 N           2.7994    0.3442    0.2110 N.ar    1  UNL1       -0.2268
     27 C           1.7638   -0.2532   -0.4023 C.ar    1  UNL1        0.1039
     28 C          -4.4521    1.2143    0.6457 C.ar    1  UNL1       -0.0538
     29 C          -5.8297    1.2334    0.7699 C.ar    1  UNL1       -0.0583
     30 H          -8.3783    0.3179    1.6825 H       1  UNL1        0.0278
     31 H          -8.4844   -0.8107    0.2506 H       1  UNL1        0.0278
     32 H          -8.5328    0.9571    0.0075 H       1  UNL1        0.0278
     33 H          -6.5483   -1.8936   -0.1261 H       1  UNL1        0.0620
     34 H          -4.0867   -1.9473   -0.3541 H       1  UNL1        0.0624
     35 H          -1.9010    1.4112    1.6355 H       1  UNL1        0.0624
     36 H           0.5679    1.2655    1.3491 H       1  UNL1        0.0625
     37 H          -2.4259   -1.4002   -1.4689 H       1  UNL1        0.0644
     38 H          -0.5887   -2.2847   -2.5463 H       1  UNL1        0.1690
     39 H           4.2385   -1.5135   -1.9302 H       1  UNL1        0.1675
     40 H           8.6205   -0.0174   -0.4849 H       1  UNL1        0.0646
     41 H           8.7588    1.5863    1.2958 H       1  UNL1        0.0619
     42 H           6.6719    2.4299    2.3413 H       1  UNL1        0.0632
     43 H          -3.8608    2.1072    0.8683 H       1  UNL1        0.0624
     44 H          -6.3589    2.1241    1.0881 H       1  UNL1        0.0620
@<TRIPOS>BOND
     1     1     2    1
     2     2     3   ar
     3     3     4   ar
     4     4     5   ar
     5     5     6    1
     6     6     7   ar
     7     7     8   ar
     8     8     9   ar
     9     9    10   ar
    10    10    11   ar
    11    10    12   ar
    12    12    13   ar
    13    13    14    2
    14    13    15   ar
    15    15    16   ar
    16    16    17   ar
    17    17    18    1
    18    18    19   ar
    19    19    20    1
    20    19    21   ar
    21    21    22   ar
    22    22    23   ar
    23    23    24   ar
    24    24    25    1
    25    17    26   ar
    26    26    27   ar
    27     5    28   ar
    28    28    29   ar
    29    29     2   ar
    30    11     6   ar
    31    27    15   ar
    32    27     9   ar
    33    24    18   ar
    34     1    30    1
    35     1    31    1
    36     1    32    1
    37     3    33    1
    38     4    34    1
    39     7    35    1
    40     8    36    1
    41    11    37    1
    42    12    38    1
    43    16    39    1
    44    21    40    1
    45    22    41    1
    46    23    42    1
    47    28    43    1
    48    29    44    1
