@<TRIPOS>MOLECULE
*****
 76 75 0 0 0
SMALL
GASTEIGER

@<TRIPOS>ATOM
      1 C          -0.4401    0.8046   -0.2086 C.3     1  UNL1        0.1149
      2 C           0.7611    0.7575    0.6971 C.3     1  UNL1        0.0765
      3 O           1.9032    0.5307   -0.0315 O.3     1  UNL1       -0.3771
      4 C           1.8347   -0.6806   -0.6910 C.3     1  UNL1        0.0478
      5 C           3.0964   -0.9793   -1.4528 C.3     1  UNL1       -0.0295
      6 C           4.2682   -0.9921   -0.4446 C.3     1  UNL1       -0.0510
      7 C           4.0865   -2.0321    0.5764 C.3     1  UNL1       -0.0530
      8 C           5.0359   -2.1987    1.6957 C.3     1  UNL1       -0.0531
      9 C           6.4431   -2.5302    1.5310 C.3     1  UNL1       -0.0533
     10 C           7.2844   -1.5432    0.8331 C.3     1  UNL1       -0.0559
     11 C           8.7203   -2.1197    0.8573 C.3     1  UNL1       -0.0653
     12 C          -0.2463    1.9386   -1.1893 C.3     1  UNL1        0.0879
     13 O          -0.0293    3.0819   -0.4158 O.3     1  UNL1       -0.2840
     14 P           0.1636    4.4701   -1.3728 P.3     1  UNL1        0.4750
     15 O           1.6649    5.1301   -1.0279 O.3     1  UNL1       -0.3025
     16 O           0.0575    4.1513   -2.8352 O.2     1  UNL1       -0.2273
     17 O          -1.1058    5.5176   -0.9128 O.3     1  UNL1       -0.2854
     18 C          -0.8748    6.8219   -1.2971 C.3     1  UNL1        0.0713
     19 C          -2.0814    7.6208   -0.7899 C.3     1  UNL1        0.0172
     20 N          -1.8980    8.9897   -1.1606 N.3     1  UNL1       -0.3279
     21 O          -1.5486    1.0745    0.6220 O.3     1  UNL1       -0.3000
     22 P          -2.6986   -0.1727    0.5330 P.3     1  UNL1        0.3307
     23 O          -2.2749   -1.3437    1.6765 O.3     1  UNL1       -0.3239
     24 O          -4.0780    0.3436    0.8713 O.2     1  UNL1       -0.2586
     25 C          -2.7126   -0.9394   -1.0937 C.3     1  UNL1        0.0496
     26 C          -4.0999   -1.4988   -1.3493 C.3     1  UNL1       -0.0421
     27 C          -4.3854   -2.5450   -0.2410 C.3     1  UNL1       -0.0525
     28 C          -5.7455   -3.1039   -0.4785 C.3     1  UNL1       -0.0531
     29 C          -6.1944   -4.1786    0.4427 C.3     1  UNL1       -0.0533
     30 C          -6.2875   -3.8945    1.8837 C.3     1  UNL1       -0.0559
     31 C          -5.0230   -3.5663    2.5926 C.3     1  UNL1       -0.0653
     32 H          -0.6423   -0.1697   -0.6889 H       1  UNL1        0.0647
     33 H           0.8330    1.7062    1.3008 H       1  UNL1        0.0586
     34 H           0.6621   -0.0445    1.4698 H       1  UNL1        0.0586
     35 H           1.0403   -0.6315   -1.5193 H       1  UNL1        0.0560
     36 H           1.4696   -1.4473   -0.0245 H       1  UNL1        0.0560
     37 H           3.3021   -0.2559   -2.2421 H       1  UNL1        0.0287
     38 H           3.0869   -1.9907   -1.9032 H       1  UNL1        0.0287
     39 H           5.1368   -1.1731   -1.1573 H       1  UNL1        0.0266
     40 H           4.3401    0.0350   -0.0872 H       1  UNL1        0.0266
     41 H           4.0979   -3.0339    0.0015 H       1  UNL1        0.0265
     42 H           3.0112   -2.0591    0.9705 H       1  UNL1        0.0265
     43 H           4.9278   -1.2281    2.3270 H       1  UNL1        0.0265
     44 H           4.6179   -3.0010    2.4286 H       1  UNL1        0.0265
     45 H           6.8660   -2.6869    2.5830 H       1  UNL1        0.0265
     46 H           6.5033   -3.5461    1.0246 H       1  UNL1        0.0265
     47 H           7.2520   -0.5756    1.3648 H       1  UNL1        0.0263
     48 H           6.9887   -1.3803   -0.1988 H       1  UNL1        0.0263
     49 H           9.3359   -1.5334    0.1745 H       1  UNL1        0.0230
     50 H           8.6077   -3.1872    0.5949 H       1  UNL1        0.0230
     51 H           9.1183   -1.9982    1.8857 H       1  UNL1        0.0230
     52 H          -1.0646    2.0475   -1.9152 H       1  UNL1        0.0592
     53 H           0.7082    1.7303   -1.7376 H       1  UNL1        0.0592
     54 H           1.6266    5.7922   -0.2734 H       1  UNL1        0.2220
     55 H           0.0702    7.1760   -0.8632 H       1  UNL1        0.0578
     56 H          -0.8594    6.8374   -2.4009 H       1  UNL1        0.0578
     57 H          -2.9732    7.1523   -1.2539 H       1  UNL1        0.0444
     58 H          -2.1564    7.5544    0.2968 H       1  UNL1        0.0444
     59 H          -2.7214    9.5221   -0.7992 H       1  UNL1        0.1183
     60 H          -1.0037    9.3084   -0.6949 H       1  UNL1        0.1183
     61 H          -1.5761   -1.9268    1.2957 H       1  UNL1        0.2198
     62 H          -2.4479   -0.2320   -1.9039 H       1  UNL1        0.0387
     63 H          -1.9653   -1.7591   -1.1196 H       1  UNL1        0.0387
     64 H          -4.8651   -0.7046   -1.2482 H       1  UNL1        0.0271
     65 H          -4.1385   -2.0086   -2.3153 H       1  UNL1        0.0271
     66 H          -4.3012   -1.9813    0.7217 H       1  UNL1        0.0265
     67 H          -3.6268   -3.3396   -0.2895 H       1  UNL1        0.0265
     68 H          -5.7457   -3.5181   -1.5276 H       1  UNL1        0.0265
     69 H          -6.5061   -2.2758   -0.5403 H       1  UNL1        0.0265
     70 H          -5.5219   -5.0925    0.3431 H       1  UNL1        0.0265
     71 H          -7.2013   -4.5913    0.1113 H       1  UNL1        0.0265
     72 H          -6.7194   -4.8275    2.3676 H       1  UNL1        0.0263
     73 H          -7.0341   -3.0642    2.1119 H       1  UNL1        0.0263
     74 H          -5.0215   -4.1331    3.5786 H       1  UNL1        0.0230
     75 H          -4.9596   -2.5022    2.8534 H       1  UNL1        0.0230
     76 H          -4.1472   -3.8766    2.0125 H       1  UNL1        0.0230
@<TRIPOS>BOND
     1     1     2    1
     2     2     3    1
     3     3     4    1
     4     4     5    1
     5     5     6    1
     6     6     7    1
     7     7     8    1
     8     8     9    1
     9     9    10    1
    10    10    11    1
    11     1    12    1
    12    12    13    1
    13    13    14    1
    14    14    15    1
    15    14    16    2
    16    14    17    1
    17    17    18    1
    18    18    19    1
    19    19    20    1
    20     1    21    1
    21    21    22    1
    22    22    23    1
    23    22    24    2
    24    22    25    1
    25    25    26    1
    26    26    27    1
    27    27    28    1
    28    28    29    1
    29    29    30    1
    30    30    31    1
    31     1    32    1
    32     2    33    1
    33     2    34    1
    34     4    35    1
    35     4    36    1
    36     5    37    1
    37     5    38    1
    38     6    39    1
    39     6    40    1
    40     7    41    1
    41     7    42    1
    42     8    43    1
    43     8    44    1
    44     9    45    1
    45     9    46    1
    46    10    47    1
    47    10    48    1
    48    11    49    1
    49    11    50    1
    50    11    51    1
    51    12    52    1
    52    12    53    1
    53    15    54    1
    54    18    55    1
    55    18    56    1
    56    19    57    1
    57    19    58    1
    58    20    59    1
    59    20    60    1
    60    23    61    1
    61    25    62    1
    62    25    63    1
    63    26    64    1
    64    26    65    1
    65    27    66    1
    66    27    67    1
    67    28    68    1
    68    28    69    1
    69    29    70    1
    70    29    71    1
    71    30    72    1
    72    30    73    1
    73    31    74    1
    74    31    75    1
    75    31    76    1
