
     RDKit          3D

 46 48  0  0  0  0  0  0  0  0999 V2000
   -3.3129   -0.6661    1.6716 C   0  0  0  0  0  0  0  0  0  0  0  0
   -2.8248   -0.2324    0.3006 C   0  0  1  0  0  0  0  0  0  0  0  0
   -1.6103   -1.0678    0.0097 C   0  0  0  0  0  0  0  0  0  0  0  0
   -0.3674   -0.5175   -0.1598 C   0  0  0  0  0  0  0  0  0  0  0  0
    0.7201   -1.3226   -0.4260 C   0  0  0  0  0  0  0  0  0  0  0  0
    2.0109   -0.7519   -0.6021 N   0  0  0  0  0  0  0  0  0  0  0  0
    2.8738   -0.5732    0.5047 C   0  0  0  0  0  0  0  0  0  0  0  0
    2.5074   -0.9168    1.6503 O   0  0  0  0  0  0  0  0  0  0  0  0
    4.1928    0.0082    0.3360 C   0  0  0  0  0  0  0  0  0  0  0  0
    5.0429    0.1887    1.3995 C   0  0  0  0  0  0  0  0  0  0  0  0
    6.2550    0.7287    1.2097 N   0  0  0  0  0  0  0  0  0  0  0  0
    6.6807    1.1070    0.0047 C   0  0  0  0  0  0  0  0  0  0  0  0
    8.0239    1.7039   -0.1958 C   0  0  0  0  0  0  0  0  0  0  0  0
    8.1841    2.8235    0.6001 F   0  0  0  0  0  0  0  0  0  0  0  0
    8.9598    0.7756    0.2235 F   0  0  0  0  0  0  0  0  0  0  0  0
    5.8147    0.9208   -1.0644 C   0  0  0  0  0  0  0  0  0  0  0  0
    4.6002    0.3844   -0.9028 N   0  0  0  0  0  0  0  0  0  0  0  0
    0.5610   -2.7089   -0.5248 C   0  0  0  0  0  0  0  0  0  0  0  0
   -0.6810   -3.2768   -0.3571 C   0  0  0  0  0  0  0  0  0  0  0  0
   -0.8732   -5.0111   -0.4820 Cl  0  0  0  0  0  0  0  0  0  0  0  0
   -1.7437   -2.4400   -0.0924 C   0  0  0  0  0  0  0  0  0  0  0  0
   -2.9521   -3.0334    0.0676 F   0  0  0  0  0  0  0  0  0  0  0  0
   -3.8288   -0.5009   -0.7701 C   0  0  0  0  0  0  0  0  0  0  0  0
   -4.6776    0.6844   -1.1406 C   0  0  1  0  0  0  0  0  0  0  0  0
   -6.1522    0.2830   -1.1139 C   0  0  0  0  0  0  0  0  0  0  0  0
   -6.9316    1.3609   -1.4512 F   0  0  0  0  0  0  0  0  0  0  0  0
   -6.3131   -0.6809   -2.0896 F   0  0  0  0  0  0  0  0  0  0  0  0
   -6.5323   -0.1555    0.1340 F   0  0  0  0  0  0  0  0  0  0  0  0
   -4.4492    1.8150   -0.3241 O   0  0  0  0  0  0  0  0  0  0  0  0
   -3.1572    2.1318    0.0501 C   0  0  0  0  0  0  0  0  0  0  0  0
   -2.6778    3.4908    0.1107 N   0  0  0  0  0  0  0  0  0  0  0  0
   -2.3810    1.1453    0.3491 N   0  0  0  0  0  0  0  0  0  0  0  0
   -2.5807   -1.3123    2.1975 H   0  0  0  0  0  0  0  0  0  0  0  0
   -3.4475    0.2383    2.3071 H   0  0  0  0  0  0  0  0  0  0  0  0
   -4.2506   -1.2525    1.5743 H   0  0  0  0  0  0  0  0  0  0  0  0
   -0.2766    0.5661   -0.0766 H   0  0  0  0  0  0  0  0  0  0  0  0
    2.3172   -0.4650   -1.5581 H   0  0  0  0  0  0  0  0  0  0  0  0
    4.7000   -0.1207    2.3983 H   0  0  0  0  0  0  0  0  0  0  0  0
    8.1853    1.9476   -1.2540 H   0  0  0  0  0  0  0  0  0  0  0  0
    6.1594    1.2257   -2.0320 H   0  0  0  0  0  0  0  0  0  0  0  0
    1.4528   -3.2795   -0.7349 H   0  0  0  0  0  0  0  0  0  0  0  0
   -3.2910   -0.8189   -1.6886 H   0  0  0  0  0  0  0  0  0  0  0  0
   -4.4456   -1.3808   -0.4682 H   0  0  0  0  0  0  0  0  0  0  0  0
   -4.4900    1.0238   -2.1929 H   0  0  0  0  0  0  0  0  0  0  0  0
   -2.7317    4.0713    0.9538 H   0  0  0  0  0  0  0  0  0  0  0  0
   -2.2620    3.8607   -0.7743 H   0  0  0  0  0  0  0  0  0  0  0  0
  2  1  1  1
  2  3  1  0
  3  4  2  0
  4  5  1  0
  5  6  1  0
  6  7  1  0
  7  8  2  0
  7  9  1  0
  9 10  2  0
 10 11  1  0
 11 12  2  0
 12 13  1  0
 13 14  1  0
 13 15  1  0
 12 16  1  0
 16 17  2  0
  5 18  2  0
 18 19  1  0
 19 20  1  0
 19 21  2  0
 21 22  1  0
  2 23  1  0
 23 24  1  0
 24 25  1  0
 25 26  1  0
 25 27  1  0
 25 28  1  0
 24 29  1  0
 29 30  1  0
 30 31  1  0
 30 32  2  0
 32  2  1  0
 21  3  1  0
 17  9  1  0
  1 33  1  0
  1 34  1  0
  1 35  1  0
  4 36  1  0
  6 37  1  0
 10 38  1  0
 13 39  1  0
 16 40  1  0
 18 41  1  0
 23 42  1  0
 23 43  1  0
 24 44  1  6
 31 45  1  0
 31 46  1  0
M  END
$$$$
