@<TRIPOS>MOLECULE
*****
 46 48 0 0 0
SMALL
GASTEIGER

@<TRIPOS>ATOM
      1 C          -3.3129   -0.6661    1.6716 C.3     1  UNL1       -0.0352
      2 C          -2.8248   -0.2324    0.3006 C.3     1  UNL1        0.0951
      3 C          -1.6103   -1.0678    0.0097 C.ar    1  UNL1        0.0183
      4 C          -0.3674   -0.5175   -0.1598 C.ar    1  UNL1       -0.0322
      5 C           0.7201   -1.3226   -0.4260 C.ar    1  UNL1        0.0356
      6 N           2.0109   -0.7519   -0.6021 N.am    1  UNL1       -0.2802
      7 C           2.8738   -0.5732    0.5047 C.2     1  UNL1        0.2681
      8 O           2.5074   -0.9168    1.6503 O.2     1  UNL1       -0.2681
      9 C           4.1928    0.0082    0.3360 C.ar    1  UNL1        0.1437
     10 C           5.0429    0.1887    1.3995 C.ar    1  UNL1        0.0586
     11 N           6.2550    0.7287    1.2097 N.ar    1  UNL1       -0.2505
     12 C           6.6807    1.1070    0.0047 C.ar    1  UNL1        0.1243
     13 C           8.0239    1.7039   -0.1958 C.3     1  UNL1        0.2822
     14 F           8.1841    2.8235    0.6001 F       1  UNL1       -0.2022
     15 F           8.9598    0.7756    0.2235 F       1  UNL1       -0.2022
     16 C           5.8147    0.9208   -1.0644 C.ar    1  UNL1        0.0552
     17 N           4.6002    0.3844   -0.9028 N.ar    1  UNL1       -0.2469
     18 C           0.5610   -2.7089   -0.5248 C.ar    1  UNL1       -0.0193
     19 C          -0.6810   -3.2768   -0.3571 C.ar    1  UNL1        0.0782
     20 CL         -0.8732   -5.0111   -0.4820 Cl      1  UNL1       -0.0805
     21 C          -1.7437   -2.4400   -0.0924 C.ar    1  UNL1        0.1472
     22 F          -2.9521   -3.0334    0.0676 F       1  UNL1       -0.2036
     23 C          -3.8288   -0.5009   -0.7701 C.3     1  UNL1        0.0223
     24 C          -4.6776    0.6844   -1.1406 C.3     1  UNL1        0.1997
     25 C          -6.1522    0.2830   -1.1139 C.3     1  UNL1        0.4266
     26 F          -6.9316    1.3609   -1.4512 F       1  UNL1       -0.1669
     27 F          -6.3131   -0.6809   -2.0896 F       1  UNL1       -0.1669
     28 F          -6.5323   -0.1555    0.1340 F       1  UNL1       -0.1669
     29 O          -4.4492    1.8150   -0.3241 O.2     1  UNL1       -0.4534
     30 C          -3.1572    2.1318    0.0501 C.2     1  UNL1        0.2765
     31 N          -2.6778    3.4908    0.1107 N.pl3   1  UNL1       -0.3134
     32 N          -2.3810    1.1453    0.3491 N.2     1  UNL1       -0.2257
     33 H          -2.5807   -1.3123    2.1975 H       1  UNL1        0.0256
     34 H          -3.4475    0.2383    2.3071 H       1  UNL1        0.0256
     35 H          -4.2506   -1.2525    1.5743 H       1  UNL1        0.0256
     36 H          -0.2766    0.5661   -0.0766 H       1  UNL1        0.0640
     37 H           2.3172   -0.4650   -1.5581 H       1  UNL1        0.1552
     38 H           4.7000   -0.1207    2.3983 H       1  UNL1        0.0853
     39 H           8.1853    1.9476   -1.2540 H       1  UNL1        0.1088
     40 H           6.1594    1.2257   -2.0320 H       1  UNL1        0.0850
     41 H           1.4528   -3.2795   -0.7349 H       1  UNL1        0.0652
     42 H          -3.2910   -0.8189   -1.6886 H       1  UNL1        0.0330
     43 H          -4.4456   -1.3808   -0.4682 H       1  UNL1        0.0330
     44 H          -4.4900    1.0238   -2.1929 H       1  UNL1        0.0826
     45 H          -2.7317    4.0713    0.9538 H       1  UNL1        0.1466
     46 H          -2.2620    3.8607   -0.7743 H       1  UNL1        0.1466
@<TRIPOS>BOND
     1     2     1    1
     2     2     3    1
     3     3     4   ar
     4     4     5   ar
     5     5     6    1
     6     6     7   am
     7     7     8    2
     8     7     9    1
     9     9    10   ar
    10    10    11   ar
    11    11    12   ar
    12    12    13    1
    13    13    14    1
    14    13    15    1
    15    12    16   ar
    16    16    17   ar
    17     5    18   ar
    18    18    19   ar
    19    19    20    1
    20    19    21   ar
    21    21    22    1
    22     2    23    1
    23    23    24    1
    24    24    25    1
    25    25    26    1
    26    25    27    1
    27    25    28    1
    28    24    29    1
    29    29    30    1
    30    30    31    1
    31    30    32    2
    32    32     2    1
    33    21     3   ar
    34    17     9   ar
    35     1    33    1
    36     1    34    1
    37     1    35    1
    38     4    36    1
    39     6    37    1
    40    10    38    1
    41    13    39    1
    42    16    40    1
    43    18    41    1
    44    23    42    1
    45    23    43    1
    46    24    44    1
    47    31    45    1
    48    31    46    1
