
     RDKit          3D

 45 49  0  0  0  0  0  0  0  0999 V2000
   -1.7633   -2.4519    1.8221 C   0  0  0  0  0  0  0  0  0  0  0  0
   -2.0070   -0.9483    1.7048 C   0  0  2  0  0  0  0  0  0  0  0  0
   -3.4564   -0.7098    2.1256 C   0  0  0  0  0  0  0  0  0  0  0  0
   -4.1911   -0.1484    1.0969 O   0  0  0  0  0  0  0  0  0  0  0  0
   -4.2536   -0.9496   -0.0327 C   0  0  0  0  0  0  0  0  0  0  0  0
   -2.8607   -1.2458   -0.5948 C   0  0  0  0  0  0  0  0  0  0  0  0
   -1.8604   -0.6426    0.2775 N   0  0  0  0  0  0  0  0  0  0  0  0
   -0.8127    0.1854   -0.2133 C   0  0  0  0  0  0  0  0  0  0  0  0
    0.4875   -0.1117   -0.0479 N   0  0  0  0  0  0  0  0  0  0  0  0
    1.5032    0.6281   -0.4870 C   0  0  0  0  0  0  0  0  0  0  0  0
    2.9093    0.3026   -0.3058 C   0  0  0  0  0  0  0  0  0  0  0  0
    3.8782    1.0985   -0.7773 N   0  0  0  0  0  0  0  0  0  0  0  0
    5.1682    0.8694   -0.6517 N   0  0  0  0  0  0  0  0  0  0  0  0
    5.5193   -0.2517    0.0015 C   0  0  0  0  0  0  0  0  0  0  0  0
    4.6018   -1.1363    0.5245 C   0  0  0  0  0  0  0  0  0  0  0  0
    4.7121   -2.3066    1.2079 N   0  0  0  0  0  0  0  0  0  0  0  0
    3.4889   -2.7784    1.4916 C   0  0  0  0  0  0  0  0  0  0  0  0
    2.5849   -1.8771    0.9705 C   0  0  0  0  0  0  0  0  0  0  0  0
    3.2553   -0.8382    0.3589 C   0  0  0  0  0  0  0  0  0  0  0  0
    1.2014    1.8094   -1.1756 C   0  0  0  0  0  0  0  0  0  0  0  0
   -0.1105    2.1833   -1.3858 C   0  0  0  0  0  0  0  0  0  0  0  0
   -1.1034    1.3507   -0.8927 C   0  0  0  0  0  0  0  0  0  0  0  0
   -2.2622    1.9462   -1.2333 N   0  0  0  0  0  0  0  0  0  0  0  0
   -1.9872    3.0838   -1.9001 C   0  0  0  0  0  0  0  0  0  0  0  0
   -0.6566    3.2473   -2.0043 N   0  0  0  0  0  0  0  0  0  0  0  0
    0.0339    4.3487   -2.6526 C   0  0  0  0  0  0  0  0  0  0  0  0
   -0.8105   -2.7575    1.3678 H   0  0  0  0  0  0  0  0  0  0  0  0
   -1.8422   -2.6940    2.9021 H   0  0  0  0  0  0  0  0  0  0  0  0
   -2.6299   -2.9898    1.3399 H   0  0  0  0  0  0  0  0  0  0  0  0
   -1.2924   -0.4019    2.3248 H   0  0  0  0  0  0  0  0  0  0  0  0
   -3.9243   -1.6258    2.5316 H   0  0  0  0  0  0  0  0  0  0  0  0
   -3.4145    0.0452    2.9415 H   0  0  0  0  0  0  0  0  0  0  0  0
   -4.8387   -0.3790   -0.7932 H   0  0  0  0  0  0  0  0  0  0  0  0
   -4.8194   -1.8924    0.1420 H   0  0  0  0  0  0  0  0  0  0  0  0
   -2.7741   -0.7994   -1.5957 H   0  0  0  0  0  0  0  0  0  0  0  0
   -2.7221   -2.3444   -0.6865 H   0  0  0  0  0  0  0  0  0  0  0  0
    6.5777   -0.5120    0.1468 H   0  0  0  0  0  0  0  0  0  0  0  0
    5.6329   -2.7453    1.4584 H   0  0  0  0  0  0  0  0  0  0  0  0
    3.3105   -3.6955    2.0289 H   0  0  0  0  0  0  0  0  0  0  0  0
    1.5035   -1.9487    1.0193 H   0  0  0  0  0  0  0  0  0  0  0  0
    2.0204    2.4183   -1.5369 H   0  0  0  0  0  0  0  0  0  0  0  0
   -2.7186    3.7892   -2.3079 H   0  0  0  0  0  0  0  0  0  0  0  0
    1.1160    4.1409   -2.6544 H   0  0  0  0  0  0  0  0  0  0  0  0
   -0.1265    5.2949   -2.1211 H   0  0  0  0  0  0  0  0  0  0  0  0
   -0.2668    4.4404   -3.7342 H   0  0  0  0  0  0  0  0  0  0  0  0
  1  2  1  0
  2  3  1  0
  3  4  1  0
  4  5  1  0
  5  6  1  0
  6  7  1  0
  7  8  1  0
  8  9  2  0
  9 10  1  0
 10 11  1  0
 11 12  2  0
 12 13  1  0
 13 14  2  0
 14 15  1  0
 15 16  1  0
 16 17  1  0
 17 18  2  0
 18 19  1  0
 10 20  2  0
 20 21  1  0
 21 22  2  0
 22 23  1  0
 23 24  2  0
 24 25  1  0
 25 26  1  0
  7  2  1  0
 22  8  1  0
 19 11  1  0
 25 21  1  0
 19 15  2  0
  1 27  1  0
  1 28  1  0
  1 29  1  0
  2 30  1  1
  3 31  1  0
  3 32  1  0
  5 33  1  0
  5 34  1  0
  6 35  1  0
  6 36  1  0
 14 37  1  0
 16 38  1  0
 17 39  1  0
 18 40  1  0
 20 41  1  0
 24 42  1  0
 26 43  1  0
 26 44  1  0
 26 45  1  0
M  END
$$$$
