@<TRIPOS>MOLECULE
*****
 45 49 0 0 0
SMALL
GASTEIGER

@<TRIPOS>ATOM
      1 C          -1.7633   -2.4519    1.8221 C.3     1  UNL1       -0.0443
      2 C          -2.0070   -0.9483    1.7048 C.3     1  UNL1        0.0455
      3 C          -3.4564   -0.7098    2.1256 C.3     1  UNL1        0.0660
      4 O          -4.1911   -0.1484    1.0969 O.3     1  UNL1       -0.3764
      5 C          -4.2536   -0.9496   -0.0327 C.3     1  UNL1        0.0634
      6 C          -2.8607   -1.2458   -0.5948 C.3     1  UNL1        0.0374
      7 N          -1.8604   -0.6426    0.2775 N.pl3   1  UNL1       -0.3063
      8 C          -0.8127    0.1854   -0.2133 C.ar    1  UNL1        0.1500
      9 N           0.4875   -0.1117   -0.0479 N.ar    1  UNL1       -0.2281
     10 C           1.5032    0.6281   -0.4870 C.ar    1  UNL1        0.0958
     11 C           2.9093    0.3026   -0.3058 C.ar    1  UNL1        0.1207
     12 N           3.8782    1.0985   -0.7773 N.ar    1  UNL1       -0.1470
     13 N           5.1682    0.8694   -0.6517 N.ar    1  UNL1       -0.1550
     14 C           5.5193   -0.2517    0.0015 C.ar    1  UNL1        0.0738
     15 C           4.6018   -1.1363    0.5245 C.ar    1  UNL1        0.0687
     16 N           4.7121   -2.3066    1.2079 N.ar    1  UNL1       -0.3594
     17 C           3.4889   -2.7784    1.4916 C.ar    1  UNL1        0.0028
     18 C           2.5849   -1.8771    0.9705 C.ar    1  UNL1       -0.0344
     19 C           3.2553   -0.8382    0.3589 C.ar    1  UNL1        0.0304
     20 C           1.2014    1.8094   -1.1756 C.ar    1  UNL1       -0.0083
     21 C          -0.1105    2.1833   -1.3858 C.ar    1  UNL1        0.0739
     22 C          -1.1034    1.3507   -0.8927 C.ar    1  UNL1        0.1287
     23 N          -2.2622    1.9462   -1.2333 N.ar    1  UNL1       -0.2323
     24 C          -1.9872    3.0838   -1.9001 C.ar    1  UNL1        0.0969
     25 N          -0.6566    3.2473   -2.0043 N.ar    1  UNL1       -0.3331
     26 C           0.0339    4.3487   -2.6526 C.3     1  UNL1        0.0133
     27 H          -0.8105   -2.7575    1.3678 H       1  UNL1        0.0248
     28 H          -1.8422   -2.6940    2.9021 H       1  UNL1        0.0248
     29 H          -2.6299   -2.9898    1.3399 H       1  UNL1        0.0248
     30 H          -1.2924   -0.4019    2.3248 H       1  UNL1        0.0520
     31 H          -3.9243   -1.6258    2.5316 H       1  UNL1        0.0578
     32 H          -3.4145    0.0452    2.9415 H       1  UNL1        0.0578
     33 H          -4.8387   -0.3790   -0.7932 H       1  UNL1        0.0575
     34 H          -4.8194   -1.8924    0.1420 H       1  UNL1        0.0575
     35 H          -2.7741   -0.7994   -1.5957 H       1  UNL1        0.0487
     36 H          -2.7221   -2.3444   -0.6865 H       1  UNL1        0.0487
     37 H           6.5777   -0.5120    0.1468 H       1  UNL1        0.0869
     38 H           5.6329   -2.7453    1.4584 H       1  UNL1        0.1654
     39 H           3.3105   -3.6955    2.0289 H       1  UNL1        0.0807
     40 H           1.5035   -1.9487    1.0193 H       1  UNL1        0.0639
     41 H           2.0204    2.4183   -1.5369 H       1  UNL1        0.0661
     42 H          -2.7186    3.7892   -2.3079 H       1  UNL1        0.1029
     43 H           1.1160    4.1409   -2.6544 H       1  UNL1        0.0456
     44 H          -0.1265    5.2949   -2.1211 H       1  UNL1        0.0456
     45 H          -0.2668    4.4404   -3.7342 H       1  UNL1        0.0456
@<TRIPOS>BOND
     1     1     2    1
     2     2     3    1
     3     3     4    1
     4     4     5    1
     5     5     6    1
     6     6     7    1
     7     7     8    1
     8     8     9   ar
     9     9    10   ar
    10    10    11    1
    11    11    12   ar
    12    12    13   ar
    13    13    14   ar
    14    14    15   ar
    15    15    16   ar
    16    16    17   ar
    17    17    18   ar
    18    18    19   ar
    19    10    20   ar
    20    20    21   ar
    21    21    22   ar
    22    22    23   ar
    23    23    24   ar
    24    24    25   ar
    25    25    26    1
    26     7     2    1
    27    22     8   ar
    28    19    11   ar
    29    25    21   ar
    30    19    15   ar
    31     1    27    1
    32     1    28    1
    33     1    29    1
    34     2    30    1
    35     3    31    1
    36     3    32    1
    37     5    33    1
    38     5    34    1
    39     6    35    1
    40     6    36    1
    41    14    37    1
    42    16    38    1
    43    17    39    1
    44    18    40    1
    45    20    41    1
    46    24    42    1
    47    26    43    1
    48    26    44    1
    49    26    45    1
