@<TRIPOS>MOLECULE
*****
 62 67 0 0 0
SMALL
GASTEIGER

@<TRIPOS>ATOM
      1 C          10.3056    0.3299    2.0741 C.3     1  UNL1        0.0805
      2 O           9.8132    0.1876    0.7572 O.3     1  UNL1       -0.4786
      3 C           8.4423    0.1670    0.5085 C.ar    1  UNL1        0.2332
      4 C           7.9841    0.0276   -0.7798 C.ar    1  UNL1        0.0899
      5 N           6.6309    0.0111   -0.9910 N.ar    1  UNL1       -0.2435
      6 C           5.7742    0.1266    0.0208 C.ar    1  UNL1        0.1439
      7 C           4.3268    0.1097   -0.1935 C.2     1  UNL1        0.2681
      8 O           3.5315    0.2184    0.7647 O.2     1  UNL1       -0.2681
      9 N           3.8244   -0.0318   -1.5032 N.am    1  UNL1       -0.2802
     10 C           2.4637   -0.0652   -1.8569 C.ar    1  UNL1        0.0343
     11 C           2.1897   -0.2083   -3.2246 C.ar    1  UNL1       -0.0370
     12 C           0.8978   -0.2555   -3.6908 C.ar    1  UNL1       -0.0172
     13 C          -0.1850   -0.1610   -2.8048 C.ar    1  UNL1        0.1345
     14 C           0.0697   -0.0227   -1.4868 C.ar    1  UNL1        0.0285
     15 C           1.3953    0.0234   -1.0279 C.ar    1  UNL1       -0.0312
     16 C          -0.9833    0.0955   -0.4199 C.3     1  UNL1        0.1216
     17 C          -0.7689    1.3849    0.2803 C.3     1  UNL1       -0.0096
     18 C          -0.4018    1.4284    1.6954 C.3     1  UNL1        0.0037
     19 S          -0.8806   -0.0050    2.6841 S.3     1  UNL1       -0.0910
     20 C          -0.7718   -1.3912    1.5270 C.2     1  UNL1        0.1478
     21 N          -0.6218   -2.6824    2.0993 N.pl3   1  UNL1       -0.3380
     22 N          -0.8365   -1.1095    0.3232 N.2     1  UNL1       -0.2472
     23 C          -2.3250    0.0233   -1.0512 C.ar    1  UNL1        0.0302
     24 C          -3.4375    0.1142   -0.1778 C.ar    1  UNL1       -0.0448
     25 C          -4.7312    0.0671   -0.6188 C.ar    1  UNL1       -0.0187
     26 C          -5.8706    0.1671    0.2966 C.2     1  UNL1       -0.0397
     27 C          -5.7155    0.3259    1.6000 C.2     1  UNL1       -0.0549
     28 C          -6.9784    0.4106    2.3933 C.3     1  UNL1        0.0664
     29 O          -7.8757   -0.5795    2.1043 O.3     1  UNL1       -0.3754
     30 C          -7.9748   -0.9039    0.7784 C.3     1  UNL1        0.0520
     31 C          -7.2893    0.0954   -0.1498 C.3     1  UNL1       -0.0038
     32 C          -4.9116   -0.0754   -1.9780 C.ar    1  UNL1       -0.0154
     33 C          -3.8428   -0.1640   -2.8291 C.ar    1  UNL1        0.1663
     34 F          -4.0060   -0.3062   -4.1845 F       1  UNL1       -0.2016
     35 C          -2.5040   -0.1163   -2.3808 C.ar    1  UNL1        0.1693
     36 O          -1.4851   -0.2149   -3.3212 O.3     1  UNL1       -0.4524
     37 C           6.2490    0.2646    1.2967 C.ar    1  UNL1        0.0619
     38 N           7.5943    0.2841    1.5348 N.ar    1  UNL1       -0.2178
     39 H           9.4384    0.3887    2.7879 H       1  UNL1        0.0660
     40 H          10.8882    1.2705    2.1964 H       1  UNL1        0.0660
     41 H          10.8948   -0.5757    2.3279 H       1  UNL1        0.0660
     42 H           8.6934   -0.0650   -1.5887 H       1  UNL1        0.0884
     43 H           4.5868   -0.1181   -2.2610 H       1  UNL1        0.1552
     44 H           3.0400   -0.2813   -3.9098 H       1  UNL1        0.0637
     45 H           0.6738   -0.3677   -4.7628 H       1  UNL1        0.0655
     46 H           1.5495    0.1349    0.0661 H       1  UNL1        0.0641
     47 H          -1.6798    2.0105    0.0843 H       1  UNL1        0.0303
     48 H           0.0328    1.9552   -0.2825 H       1  UNL1        0.0303
     49 H           0.7208    1.5154    1.8126 H       1  UNL1        0.0381
     50 H          -0.7767    2.3192    2.2517 H       1  UNL1        0.0381
     51 H          -0.9619   -2.9220    3.0560 H       1  UNL1        0.1442
     52 H          -0.1526   -3.4410    1.5545 H       1  UNL1        0.1442
     53 H          -3.2403    0.2251    0.8784 H       1  UNL1        0.0628
     54 H          -4.7481    0.3906    2.0606 H       1  UNL1        0.0598
     55 H          -7.3961    1.4299    2.2044 H       1  UNL1        0.0604
     56 H          -6.6885    0.3166    3.4587 H       1  UNL1        0.0604
     57 H          -7.4475   -1.8724    0.6105 H       1  UNL1        0.0563
     58 H          -9.0472   -0.9913    0.4995 H       1  UNL1        0.0563
     59 H          -7.4480   -0.2565   -1.1602 H       1  UNL1        0.0336
     60 H          -7.7156    1.1168    0.0388 H       1  UNL1        0.0336
     61 H          -5.9078   -0.1151   -2.3709 H       1  UNL1        0.0653
     62 H           5.5964    0.3625    2.1567 H       1  UNL1        0.0854
@<TRIPOS>BOND
     1     1     2    1
     2     2     3    1
     3     3     4   ar
     4     4     5   ar
     5     5     6   ar
     6     6     7    1
     7     7     8    2
     8     7     9   am
     9     9    10    1
    10    10    11   ar
    11    11    12   ar
    12    12    13   ar
    13    13    14   ar
    14    14    15   ar
    15    14    16    1
    16    16    17    1
    17    17    18    1
    18    18    19    1
    19    19    20    1
    20    20    21    1
    21    20    22    2
    22    16    23    1
    23    23    24   ar
    24    24    25   ar
    25    25    26    1
    26    26    27    2
    27    27    28    1
    28    28    29    1
    29    29    30    1
    30    30    31    1
    31    25    32   ar
    32    32    33   ar
    33    33    34    1
    34    33    35   ar
    35    35    36    1
    36     6    37   ar
    37    37    38   ar
    38    38     3   ar
    39    15    10   ar
    40    22    16    1
    41    35    23   ar
    42    36    13    1
    43    31    26    1
    44     1    39    1
    45     1    40    1
    46     1    41    1
    47     4    42    1
    48     9    43    1
    49    11    44    1
    50    12    45    1
    51    15    46    1
    52    17    47    1
    53    17    48    1
    54    18    49    1
    55    18    50    1
    56    21    51    1
    57    21    52    1
    58    24    53    1
    59    27    54    1
    60    28    55    1
    61    28    56    1
    62    30    57    1
    63    30    58    1
    64    31    59    1
    65    31    60    1
    66    32    61    1
    67    37    62    1
