@<TRIPOS>MOLECULE
*****
 123 125 0 0 0
SMALL
GASTEIGER

@<TRIPOS>ATOM
      1 C          -1.3588   -6.2390   -2.5447 C.3     0  UNK0       -0.0650
      2 C          -0.1683   -5.6987   -3.3031 C.3     0  UNK0       -0.0512
      3 C           0.6593   -4.7298   -2.5719 C.3     0  UNK0       -0.0171
      4 C           1.2009   -5.3084   -1.2867 C.3     0  UNK0       -0.0603
      5 C           0.1119   -3.3503   -2.4741 C.3     0  UNK0        0.1020
      6 N           1.0643   -2.4860   -1.6835 N.am    0  UNK0       -0.3022
      7 C           1.2953   -1.2028   -2.0549 C.2     0  UNK0        0.2340
      8 O           0.5577   -0.9660   -3.1359 O.2     0  UNK0       -0.2738
      9 C           2.0336    0.0453   -1.7399 C.3     0  UNK0        0.1008
     10 N           2.9744   -0.1480   -0.6822 N.am    0  UNK0       -0.2881
     11 C           4.3930   -0.0910   -0.9191 C.2     0  UNK0        0.3009
     12 O           4.7944    0.1469   -2.0933 O.2     0  UNK0       -0.2528
     13 N           5.3629   -0.2867    0.0763 N.am    1  ARG1       -0.2862
     14 CA          6.7957   -0.2181   -0.2788 C.3     1  ARG1        0.1215
     15 CB          7.4369    0.6751    0.7258 C.3     1  ARG1       -0.0212
     16 CG          8.9100    0.8946    0.5458 C.3     1  ARG1       -0.0200
     17 CD          9.4096    1.8187    1.6245 C.3     1  ARG1        0.0647
     18 NE          8.7421    3.0922    1.5590 N.pl3   1  ARG1       -0.2761
     19 CZ          9.1156    4.0996    2.5099 C.cat   1  ARG1        0.3762
     20 NH1        10.1249    3.9815    3.2858 N.pl3   1  ARG1       -0.1298
     21 NH2         8.3274    5.2828    2.5899 N.pl3   1  ARG1       -0.2893
     22 C           7.3838   -1.5852   -0.1703 C.2     1  ARG1        0.3253
     23 O           6.6537   -2.5349    0.2223 O.2     1  ARG1       -0.2489
     24 OXT         8.6987   -1.8936   -0.4767 O.3     1  ARG1       -0.4793
     25 C           1.0334    1.1369   -1.4303 C.3     0  UNK0       -0.0259
     26 C           1.6652    2.4453   -1.1547 C.3     0  UNK0       -0.0495
     27 C           0.4890    3.3812   -0.7672 C.3     0  UNK0       -0.0373
     28 C          -0.3954    3.5387   -1.9546 C.3     0  UNK0        0.0116
     29 N          -1.8251    3.4533   -1.5494 N.am    0  UNK0       -0.3138
     30 C          -2.4503    4.2994   -0.6331 C.2     0  UNK0        0.2337
     31 O          -1.5031    5.1602   -0.3014 O.2     0  UNK0       -0.2738
     32 C          -3.7072    4.5280    0.0226 C.3     0  UNK0        0.1033
     33 C          -3.5863    5.3313    1.2724 C.3     0  UNK0       -0.0007
     34 C          -3.0460    6.6731    1.1949 C.ar    0  UNK0       -0.0451
     35 C          -1.7793    6.9830    1.5920 C.ar    0  UNK0       -0.0585
     36 C          -1.2731    8.2776    1.4762 C.ar    0  UNK0       -0.0615
     37 C          -2.0924    9.2424    0.9472 C.ar    0  UNK0       -0.0617
     38 C          -3.3751    8.9678    0.5369 C.ar    0  UNK0       -0.0615
     39 C          -3.8407    7.6771    0.6662 C.ar    0  UNK0       -0.0585
     40 N          -4.6943    3.4482    0.1639 N.am    0  UNK0       -0.3022
     41 C          -4.3402    2.1048    0.2277 C.2     0  UNK0        0.2339
     42 O          -3.0616    2.0642    0.2185 O.2     0  UNK0       -0.2738
     43 C          -5.0273    0.8035    0.3053 C.3     0  UNK0        0.0991
     44 C          -5.6749    0.5824    1.6845 C.3     0  UNK0       -0.0379
     45 N          -3.9945   -0.3160    0.2897 N.am    0  UNK0       -0.2917
     46 C          -3.0548   -0.0761    1.3054 C.3     0  UNK0        0.0040
     47 C          -4.1063   -1.4025   -0.5487 C.2     0  UNK0        0.2363
     48 O          -5.3552   -1.2328   -1.0078 O.2     0  UNK0       -0.2736
     49 C          -3.5342   -2.6161   -1.1400 C.3     0  UNK0        0.0999
     50 C          -4.2020   -3.8645   -0.5235 C.3     0  UNK0       -0.0220
     51 C          -4.0133   -3.9319    0.9586 C.3     0  UNK0       -0.0255
     52 C          -4.7061   -5.1807    1.4390 C.ar    0  UNK0       -0.0471
     53 C          -4.0601   -6.3874    1.5527 C.ar    0  UNK0       -0.0551
     54 C          -4.7681   -7.4855    1.9900 C.ar    0  UNK0       -0.0199
     55 C          -6.1099   -7.4313    2.3229 C.ar    0  UNK0        0.1169
     56 O          -6.7356   -8.5955    2.7539 O.3     0  UNK0       -0.5068
     57 C          -6.7611   -6.2304    2.2118 C.ar    0  UNK0       -0.0199
     58 C          -6.0564   -5.1392    1.7773 C.ar    0  UNK0       -0.0551
     59 N          -2.0694   -2.7538   -1.0259 N.am    0  UNK0       -0.3024
     60 C          -1.2758   -3.1855   -2.0627 C.2     0  UNK0        0.2342
     61 O          -2.1028   -3.6052   -3.0051 O.2     0  UNK0       -0.2738
     62 H          -2.2828   -6.2848   -3.1331 H       0  UNK0        0.0230
     63 H          -1.4848   -5.7609   -1.5312 H       0  UNK0        0.0230
     64 H          -1.1751   -7.3296   -2.2561 H       0  UNK0        0.0230
     65 H          -0.4581   -5.3539   -4.3266 H       0  UNK0        0.0266
     66 H           0.4939   -6.5922   -3.5261 H       0  UNK0        0.0266
     67 H           1.6081   -4.5975   -3.2398 H       0  UNK0        0.0321
     68 H           2.2118   -4.8840   -1.0997 H       0  UNK0        0.0233
     69 H           1.3166   -6.4111   -1.4489 H       0  UNK0        0.0233
     70 H           0.5590   -5.0701   -0.4261 H       0  UNK0        0.0233
     71 H           0.1279   -2.9489   -3.5463 H       0  UNK0        0.0597
     72 H           1.4310   -3.0140   -0.9183 H       0  UNK0        0.1495
     73 H           2.5808    0.3421   -2.6525 H       0  UNK0        0.0595
     74 H           2.7134   -0.3386    0.3140 H       0  UNK0        0.1510
     75 H           5.1050   -0.4779    1.0578 H       1  ARG1        0.1511
     76 HA          6.9290    0.0904   -1.3233 H       1  ARG1        0.0615
     77 HB1         6.8932    1.6484    0.7267 H       1  ARG1        0.0289
     78 HB2         7.2956    0.2703    1.7526 H       1  ARG1        0.0289
     79 HG1         9.4294   -0.0951    0.6888 H       1  ARG1        0.0296
     80 HG2         9.1425    1.2733   -0.4728 H       1  ARG1        0.0296
     81 HD1         9.2005    1.3226    2.6065 H       1  ARG1        0.0655
     82 HD2        10.5183    1.9350    1.5905 H       1  ARG1        0.0655
     83 HE          8.0100    3.3364    0.8711 H       1  ARG1        0.2579
     84 HH1        10.7062    3.1257    3.2355 H       1  ARG1        0.3062
     85 HH21        8.3439    5.9604    1.7904 H       1  ARG1        0.2546
     86 HH22        7.7483    5.4459    3.4525 H       1  ARG1        0.2546
     87 HXT         8.9282   -2.8589   -0.6895 H       1  ARG1        0.2951
     88 H           0.2657    1.0852   -2.1975 H       0  UNK0        0.0288
     89 H           0.5215    0.7969   -0.4710 H       0  UNK0        0.0288
     90 H           2.1532    2.8202   -2.0663 H       0  UNK0        0.0266
     91 H           2.3388    2.3548   -0.3011 H       0  UNK0        0.0266
     92 H          -0.0743    2.9408    0.0691 H       0  UNK0        0.0280
     93 H           0.9124    4.3457   -0.4107 H       0  UNK0        0.0280
     94 H          -0.2330    2.8457   -2.7659 H       0  UNK0        0.0462
     95 H          -0.1829    4.5524   -2.3704 H       0  UNK0        0.0462
     96 H          -2.2638    2.7234   -2.0718 H       0  UNK0        0.1487
     97 H          -4.3085    5.2518   -0.6982 H       0  UNK0        0.0598
     98 H          -3.0652    4.7595    2.0902 H       0  UNK0        0.0336
     99 H          -4.6621    5.4375    1.6562 H       0  UNK0        0.0336
    100 H          -1.0845    6.2742    2.0406 H       0  UNK0        0.0620
    101 H          -0.2694    8.5062    1.7935 H       0  UNK0        0.0618
    102 H          -1.7018   10.2464    0.8563 H       0  UNK0        0.0618
    103 H          -3.9524    9.7804    0.1330 H       0  UNK0        0.0618
    104 H          -4.8615    7.4952    0.3319 H       0  UNK0        0.0620
    105 H          -5.6317    3.8766    0.2257 H       0  UNK0        0.1495
    106 H          -5.8165    0.6271   -0.4030 H       0  UNK0        0.0594
    107 H          -5.4852    1.5193    2.2873 H       0  UNK0        0.0252
    108 H          -6.7860    0.5143    1.6088 H       0  UNK0        0.0252
    109 H          -5.3468   -0.3146    2.1929 H       0  UNK0        0.0252
    110 H          -3.3472    0.7722    2.0142 H       0  UNK0        0.0429
    111 H          -2.9692   -0.8932    2.1115 H       0  UNK0        0.0429
    112 H          -2.0400    0.1995    0.9633 H       0  UNK0        0.0429
    113 H          -3.8653   -2.6711   -2.1947 H       0  UNK0        0.0595
    114 H          -3.9332   -4.7646   -1.0602 H       0  UNK0        0.0291
    115 H          -5.2893   -3.6904   -0.7000 H       0  UNK0        0.0291
    116 H          -2.9903   -3.9769    1.3157 H       0  UNK0        0.0314
    117 H          -4.5248   -3.1009    1.4864 H       0  UNK0        0.0314
    118 H          -3.0150   -6.4355    1.2962 H       0  UNK0        0.0621
    119 H          -4.2489   -8.4392    2.0783 H       0  UNK0        0.0654
    120 H          -7.0689   -9.2546    2.0614 H       0  UNK0        0.2921
    121 H          -7.8086   -6.1987    2.4738 H       0  UNK0        0.0654
    122 H          -6.5796   -4.1732    1.6875 H       0  UNK0        0.0621
    123 H          -1.8059   -2.5074   -0.0886 H       0  UNK0        0.1495
@<TRIPOS>BOND
     1     1     2    1
     2     2     3    1
     3     3     4    1
     4     3     5    1
     5     5     6    1
     6     6     7   am
     7     7     8    2
     8     7     9    1
     9     9    10    1
    10    10    11   am
    11    11    12    2
    12    11    13   am
    13    13    14    1
    14    14    15    1
    15    15    16    1
    16    16    17    1
    17    17    18    1
    18    18    19    1
    19    19    20    2
    20    19    21    1
    21    14    22    1
    22    22    23    2
    23    22    24    1
    24     9    25    1
    25    25    26    1
    26    26    27    1
    27    27    28    1
    28    28    29    1
    29    29    30   am
    30    30    31    2
    31    30    32    1
    32    32    33    1
    33    33    34    1
    34    34    35   ar
    35    35    36   ar
    36    36    37   ar
    37    37    38   ar
    38    38    39   ar
    39    32    40    1
    40    40    41   am
    41    41    42    2
    42    41    43    1
    43    43    44    1
    44    43    45    1
    45    45    46    1
    46    45    47   am
    47    47    48    2
    48    47    49    1
    49    49    50    1
    50    50    51    1
    51    51    52    1
    52    52    53   ar
    53    53    54   ar
    54    54    55   ar
    55    55    56    1
    56    55    57   ar
    57    57    58   ar
    58    49    59    1
    59    59    60   am
    60    60    61    2
    61    60     5    1
    62    39    34   ar
    63    58    52   ar
    64     1    62    1
    65     1    63    1
    66     1    64    1
    67     2    65    1
    68     2    66    1
    69     3    67    1
    70     4    68    1
    71     4    69    1
    72     4    70    1
    73     5    71    1
    74     6    72    1
    75     9    73    1
    76    10    74    1
    77    13    75    1
    78    14    76    1
    79    15    77    1
    80    15    78    1
    81    16    79    1
    82    16    80    1
    83    17    81    1
    84    17    82    1
    85    18    83    1
    86    20    84    1
    87    21    85    1
    88    21    86    1
    89    24    87    1
    90    25    88    1
    91    25    89    1
    92    26    90    1
    93    26    91    1
    94    27    92    1
    95    27    93    1
    96    28    94    1
    97    28    95    1
    98    29    96    1
    99    32    97    1
   100    33    98    1
   101    33    99    1
   102    35   100    1
   103    36   101    1
   104    37   102    1
   105    38   103    1
   106    39   104    1
   107    40   105    1
   108    43   106    1
   109    44   107    1
   110    44   108    1
   111    44   109    1
   112    46   110    1
   113    46   111    1
   114    46   112    1
   115    49   113    1
   116    50   114    1
   117    50   115    1
   118    51   116    1
   119    51   117    1
   120    53   118    1
   121    54   119    1
   122    56   120    1
   123    57   121    1
   124    58   122    1
   125    59   123    1
