
     RDKit          3D

 38 41  0  0  0  0  0  0  0  0999 V2000
   -2.2727   -1.1516   -0.6297 C   0  0  1  0  0  0  0  0  0  0  0  0
   -2.1732   -2.5056   -0.1722 N   0  0  0  0  0  0  0  0  0  0  0  0
   -3.3974   -0.3842   -0.0626 C   0  0  0  0  0  0  0  0  0  0  0  0
   -4.2027    0.4153   -0.8822 C   0  0  0  0  0  0  0  0  0  0  0  0
   -5.2800    1.1803   -0.4860 C   0  0  0  0  0  0  0  0  0  0  0  0
   -5.5952    1.1528    0.8625 C   0  0  0  0  0  0  0  0  0  0  0  0
   -4.8347    0.3781    1.7332 C   0  0  0  0  0  0  0  0  0  0  0  0
   -3.7568   -0.3733    1.2677 C   0  0  0  0  0  0  0  0  0  0  0  0
   -0.9504   -0.4995   -0.4517 C   0  0  0  0  0  0  0  0  0  0  0  0
   -0.6820    0.7402    0.0625 C   0  0  0  0  0  0  0  0  0  0  0  0
    0.6264    1.1929    0.1554 C   0  0  0  0  0  0  0  0  0  0  0  0
    1.6871    0.4014   -0.2696 C   0  0  0  0  0  0  0  0  0  0  0  0
    1.4045   -0.8633   -0.7935 C   0  0  0  0  0  0  0  0  0  0  0  0
    0.0997   -1.3079   -0.8832 C   0  0  0  0  0  0  0  0  0  0  0  0
    3.0695    0.8592   -0.1803 C   0  0  0  0  0  0  0  0  0  0  0  0
    4.1201    0.0947    0.2839 C   0  0  0  0  0  0  0  0  0  0  0  0
    4.1187   -1.1884    0.7409 N   0  0  0  0  0  0  0  0  0  0  0  0
    5.3961   -1.5184    1.0917 C   0  0  0  0  0  0  0  0  0  0  0  0
    6.1841   -0.4397    0.8512 N   0  0  0  0  0  0  0  0  0  0  0  0
    5.4156    0.5629    0.3536 C   0  0  0  0  0  0  0  0  0  0  0  0
    5.6454    1.8281   -0.0552 N   0  0  0  0  0  0  0  0  0  0  0  0
    4.6288    2.5933   -0.5135 C   0  0  0  0  0  0  0  0  0  0  0  0
    3.3700    2.1187   -0.5742 N   0  0  0  0  0  0  0  0  0  0  0  0
   -2.4252   -1.2002   -1.7394 H   0  0  0  0  0  0  0  0  0  0  0  0
   -2.8352   -2.7466    0.5846 H   0  0  0  0  0  0  0  0  0  0  0  0
   -2.1464   -3.2155   -0.9394 H   0  0  0  0  0  0  0  0  0  0  0  0
   -3.9258    0.4142   -1.9428 H   0  0  0  0  0  0  0  0  0  0  0  0
   -5.8025    1.7480   -1.2578 H   0  0  0  0  0  0  0  0  0  0  0  0
   -6.4347    1.7502    1.1651 H   0  0  0  0  0  0  0  0  0  0  0  0
   -5.1142    0.3856    2.7724 H   0  0  0  0  0  0  0  0  0  0  0  0
   -3.1721   -0.9716    1.9504 H   0  0  0  0  0  0  0  0  0  0  0  0
   -1.5450    1.2985    0.3713 H   0  0  0  0  0  0  0  0  0  0  0  0
    0.8113    2.1636    0.5601 H   0  0  0  0  0  0  0  0  0  0  0  0
    2.2496   -1.4548   -1.1152 H   0  0  0  0  0  0  0  0  0  0  0  0
    0.0143   -2.3179   -1.3126 H   0  0  0  0  0  0  0  0  0  0  0  0
    5.7554   -2.4466    1.4881 H   0  0  0  0  0  0  0  0  0  0  0  0
    7.2237   -0.2988    0.9908 H   0  0  0  0  0  0  0  0  0  0  0  0
    4.7259    3.6058   -0.8566 H   0  0  0  0  0  0  0  0  0  0  0  0
  1  2  1  0
  1  3  1  0
  3  4  2  0
  4  5  1  0
  5  6  2  0
  6  7  1  0
  7  8  2  0
  1  9  1  0
  9 10  2  0
 10 11  1  0
 11 12  2  0
 12 13  1  0
 13 14  2  0
 12 15  1  0
 15 16  2  0
 16 17  1  0
 17 18  2  0
 18 19  1  0
 19 20  1  0
 20 21  2  0
 21 22  1  0
 22 23  2  0
  8  3  1  0
 14  9  1  0
 23 15  1  0
 20 16  1  0
  1 24  1  6
  2 25  1  0
  2 26  1  0
  4 27  1  0
  5 28  1  0
  6 29  1  0
  7 30  1  0
  8 31  1  0
 10 32  1  0
 11 33  1  0
 13 34  1  0
 14 35  1  0
 18 36  1  0
 19 37  1  0
 22 38  1  0
M  END
$$$$
