@<TRIPOS>MOLECULE
*****
 57 61 0 0 0
SMALL
GASTEIGER

@<TRIPOS>ATOM
      1 C          -4.1965    1.3553    2.4844 C.3     1  UNL1       -0.0274
      2 C          -3.6448    0.9063    1.1535 C.3     1  UNL1        0.1037
      3 O          -3.4844   -0.4901    1.1459 O.3     1  UNL1       -0.4725
      4 C          -2.2234   -1.0160    0.9193 C.ar    1  UNL1        0.2265
      5 N          -1.1460   -0.2162    0.7057 N.ar    1  UNL1       -0.2121
      6 C           0.0810   -0.6877    0.4846 C.ar    1  UNL1        0.0798
      7 C           1.2359    0.1685    0.2556 C.ar    1  UNL1        0.0380
      8 C           1.1861    1.5437    0.2428 C.ar    1  UNL1        0.0586
      9 N           2.4460    1.9900    0.0008 N.ar    1  UNL1       -0.1787
     10 N           3.2839    0.9718   -0.1390 N.ar    1  UNL1       -0.2677
     11 C           4.7110    1.0482   -0.4062 C.3     1  UNL1        0.0550
     12 C           5.1905   -0.3327   -0.7987 C.3     1  UNL1       -0.0179
     13 C           6.5606   -0.3193   -1.4005 C.3     1  UNL1       -0.0022
     14 N           7.1522    0.9768   -1.1393 N.3     1  UNL1       -0.3158
     15 C           6.4300    2.0002   -1.8607 C.3     1  UNL1       -0.0022
     16 C           4.9516    1.9674   -1.5820 C.3     1  UNL1       -0.0179
     17 C           2.5493   -0.1564    0.0160 C.ar    1  UNL1        0.0350
     18 C           0.2206   -2.0807    0.4809 C.ar    1  UNL1       -0.0076
     19 C          -0.8274   -2.9209    0.6897 C.ar    1  UNL1        0.0999
     20 N          -0.8837   -4.2640    0.7217 N.ar    1  UNL1       -0.1712
     21 N          -2.1503   -4.5834    0.9629 N.ar    1  UNL1       -0.2732
     22 C          -2.5972   -5.9709    1.0684 C.3     1  UNL1        0.0302
     23 C          -2.9067   -3.4790    1.0862 C.ar    1  UNL1        0.0380
     24 C          -2.0808   -2.3859    0.9147 C.ar    1  UNL1        0.0812
     25 C          -4.5477    1.3634    0.0077 C.3     1  UNL1        0.0196
     26 C          -4.6601    2.8718   -0.0128 C.3     1  UNL1        0.0182
     27 N          -5.1758    3.0968   -1.3604 N.am    1  UNL1       -0.3149
     28 C          -4.5017    2.1584   -2.1979 C.2     1  UNL1        0.2135
     29 O          -4.4189    2.2612   -3.4541 O.2     1  UNL1       -0.2758
     30 C          -3.9346    1.0708   -1.3258 C.3     1  UNL1        0.0315
     31 H          -4.3421    0.5098    3.1942 H       1  UNL1        0.0265
     32 H          -5.2064    1.8285    2.3811 H       1  UNL1        0.0265
     33 H          -3.4811    2.0607    2.9526 H       1  UNL1        0.0265
     34 H          -2.6676    1.3910    0.9640 H       1  UNL1        0.0734
     35 H           0.3091    2.1512    0.3965 H       1  UNL1        0.0854
     36 H           5.2485    1.4160    0.4887 H       1  UNL1        0.0545
     37 H           5.1088   -0.9721    0.1022 H       1  UNL1        0.0298
     38 H           4.4724   -0.7291   -1.5491 H       1  UNL1        0.0298
     39 H           7.1694   -1.0880   -0.8811 H       1  UNL1        0.0425
     40 H           6.5496   -0.5097   -2.4767 H       1  UNL1        0.0425
     41 H           7.2030    1.1743   -0.1269 H       1  UNL1        0.1219
     42 H           6.8110    2.9805   -1.5066 H       1  UNL1        0.0425
     43 H           6.6431    1.8778   -2.9591 H       1  UNL1        0.0425
     44 H           4.4670    1.4948   -2.4692 H       1  UNL1        0.0298
     45 H           4.5091    2.9688   -1.4261 H       1  UNL1        0.0298
     46 H           2.9107   -1.1647   -0.0352 H       1  UNL1        0.0833
     47 H           1.2236   -2.4463    0.2999 H       1  UNL1        0.0661
     48 H          -3.6890   -6.0634    0.9699 H       1  UNL1        0.0473
     49 H          -2.1031   -6.5499    0.2414 H       1  UNL1        0.0473
     50 H          -2.2418   -6.4055    2.0237 H       1  UNL1        0.0473
     51 H          -3.9697   -3.4292    1.2835 H       1  UNL1        0.0834
     52 H          -5.5668    0.9604    0.1081 H       1  UNL1        0.0356
     53 H          -3.6594    3.3493    0.0097 H       1  UNL1        0.0466
     54 H          -5.3572    3.2721    0.7230 H       1  UNL1        0.0466
     55 H          -5.8927    3.8045   -1.6407 H       1  UNL1        0.1487
     56 H          -4.2218    0.0875   -1.7363 H       1  UNL1        0.0363
     57 H          -2.8453    1.1831   -1.2750 H       1  UNL1        0.0363
@<TRIPOS>BOND
     1     1     2    1
     2     2     3    1
     3     3     4    1
     4     4     5   ar
     5     5     6   ar
     6     6     7    1
     7     7     8   ar
     8     8     9   ar
     9     9    10   ar
    10    10    11    1
    11    11    12    1
    12    12    13    1
    13    13    14    1
    14    14    15    1
    15    15    16    1
    16    10    17   ar
    17     6    18   ar
    18    18    19   ar
    19    19    20   ar
    20    20    21   ar
    21    21    22    1
    22    21    23   ar
    23    23    24   ar
    24     2    25    1
    25    25    26    1
    26    26    27    1
    27    27    28   am
    28    28    29    2
    29    28    30    1
    30    24     4   ar
    31    30    25    1
    32    17     7   ar
    33    24    19   ar
    34    16    11    1
    35     1    31    1
    36     1    32    1
    37     1    33    1
    38     2    34    1
    39     8    35    1
    40    11    36    1
    41    12    37    1
    42    12    38    1
    43    13    39    1
    44    13    40    1
    45    14    41    1
    46    15    42    1
    47    15    43    1
    48    16    44    1
    49    16    45    1
    50    17    46    1
    51    18    47    1
    52    22    48    1
    53    22    49    1
    54    22    50    1
    55    23    51    1
    56    25    52    1
    57    26    53    1
    58    26    54    1
    59    27    55    1
    60    30    56    1
    61    30    57    1
