
     RDKit          3D

 40 43  0  0  0  0  0  0  0  0999 V2000
    7.6773   -0.5924   -0.4460 C   0  0  0  0  0  0  0  0  0  0  0  0
    6.2809   -0.0706   -0.2506 C   0  0  0  0  0  0  0  0  0  0  0  0
    6.0891    1.2805   -0.4047 N   0  0  0  0  0  0  0  0  0  0  0  0
    4.2911    1.4985   -0.0830 S   0  0  0  0  0  0  0  0  0  0  0  0
    4.1165   -0.3741    0.2148 C   0  0  0  0  0  0  0  0  0  0  0  0
    2.7072   -0.8231    0.5600 C   0  0  0  0  0  0  0  0  0  0  0  0
    2.3709   -1.7857    1.4224 N   0  0  0  0  0  0  0  0  0  0  0  0
    1.0599   -1.8767    1.4685 N   0  0  0  0  0  0  0  0  0  0  0  0
    0.5266   -0.9650    0.6275 C   0  0  0  0  0  0  0  0  0  0  0  0
    1.5702   -0.3274    0.0785 N   0  0  0  0  0  0  0  0  0  0  0  0
    1.2478    0.7134   -0.8687 C   0  0  0  0  0  0  0  0  0  0  0  0
    0.2289    1.5928   -0.1121 C   0  0  0  0  0  0  0  0  0  0  0  0
   -0.9854    0.7692    0.0126 N   0  0  0  0  0  0  0  0  0  0  0  0
   -2.2101    1.4240   -0.1704 C   0  0  0  0  0  0  0  0  0  0  0  0
   -2.2453    2.6835   -0.4338 O   0  0  0  0  0  0  0  0  0  0  0  0
   -3.5048    0.7849   -0.0920 C   0  0  0  0  0  0  0  0  0  0  0  0
   -3.9429   -0.0713   -1.0970 C   0  0  0  0  0  0  0  0  0  0  0  0
   -5.1809   -0.6743   -1.0422 C   0  0  0  0  0  0  0  0  0  0  0  0
   -6.0438   -0.4568    0.0144 C   0  0  0  0  0  0  0  0  0  0  0  0
   -7.6113   -1.2429    0.0486 Cl  0  0  0  0  0  0  0  0  0  0  0  0
   -5.6287    0.3831    1.0133 C   0  0  0  0  0  0  0  0  0  0  0  0
   -6.4411    0.6312    2.0680 F   0  0  0  0  0  0  0  0  0  0  0  0
   -4.3929    0.9808    0.9508 C   0  0  0  0  0  0  0  0  0  0  0  0
   -0.8799   -0.6420    0.3025 C   0  0  2  0  0  0  0  0  0  0  0  0
   -1.7944   -1.0536    1.4474 C   0  0  0  0  0  0  0  0  0  0  0  0
    5.1771   -0.7075    0.0553 N   0  0  0  0  0  0  0  0  0  0  0  0
    8.3141   -0.1282    0.3467 H   0  0  0  0  0  0  0  0  0  0  0  0
    7.7273   -1.6698   -0.3170 H   0  0  0  0  0  0  0  0  0  0  0  0
    8.0234   -0.3213   -1.4594 H   0  0  0  0  0  0  0  0  0  0  0  0
    0.6381    0.2459   -1.6925 H   0  0  0  0  0  0  0  0  0  0  0  0
    2.0760    1.2924   -1.2468 H   0  0  0  0  0  0  0  0  0  0  0  0
    0.0695    2.5215   -0.6438 H   0  0  0  0  0  0  0  0  0  0  0  0
    0.6685    1.7528    0.8935 H   0  0  0  0  0  0  0  0  0  0  0  0
   -3.2661   -0.2467   -1.9273 H   0  0  0  0  0  0  0  0  0  0  0  0
   -5.4757   -1.3298   -1.8435 H   0  0  0  0  0  0  0  0  0  0  0  0
   -4.0735    1.6483    1.7548 H   0  0  0  0  0  0  0  0  0  0  0  0
   -1.1870   -1.2158   -0.6206 H   0  0  0  0  0  0  0  0  0  0  0  0
   -2.6914   -1.5309    1.0348 H   0  0  0  0  0  0  0  0  0  0  0  0
   -1.2668   -1.8713    2.0226 H   0  0  0  0  0  0  0  0  0  0  0  0
   -2.0382   -0.2259    2.1160 H   0  0  0  0  0  0  0  0  0  0  0  0
  1  2  1  0
  2  3  2  0
  3  4  1  0
  4  5  1  0
  5  6  1  0
  6  7  2  0
  7  8  1  0
  8  9  2  0
  9 10  1  0
 10 11  1  0
 11 12  1  0
 12 13  1  0
 13 14  1  0
 14 15  2  0
 14 16  1  0
 16 17  2  0
 17 18  1  0
 18 19  2  0
 19 20  1  0
 19 21  1  0
 21 22  1  0
 21 23  2  0
 13 24  1  0
 24 25  1  0
  5 26  2  0
 26  2  1  0
 10  6  1  0
 23 16  1  0
 24  9  1  0
  1 27  1  0
  1 28  1  0
  1 29  1  0
 11 30  1  0
 11 31  1  0
 12 32  1  0
 12 33  1  0
 17 34  1  0
 18 35  1  0
 23 36  1  0
 24 37  1  6
 25 38  1  0
 25 39  1  0
 25 40  1  0
M  END
$$$$
