@<TRIPOS>MOLECULE
*****
 40 43 0 0 0
SMALL
GASTEIGER

@<TRIPOS>ATOM
      1 C           7.6773   -0.5924   -0.4460 C.3     1  UNL1       -0.0039
      2 C           6.2809   -0.0706   -0.2506 C.ar    1  UNL1        0.1359
      3 N           6.0891    1.2805   -0.4047 N.ar    1  UNL1       -0.1939
      4 S           4.2911    1.4985   -0.0830 S.2     1  UNL1        0.0369
      5 C           4.1165   -0.3741    0.2148 C.ar    1  UNL1        0.1652
      6 C           2.7072   -0.8231    0.5600 C.ar    1  UNL1        0.1910
      7 N           2.3709   -1.7857    1.4224 N.ar    1  UNL1       -0.1269
      8 N           1.0599   -1.8767    1.4685 N.ar    1  UNL1       -0.1320
      9 C           0.5266   -0.9650    0.6275 C.ar    1  UNL1        0.1542
     10 N           1.5702   -0.3274    0.0785 N.ar    1  UNL1       -0.3062
     11 C           1.2478    0.7134   -0.8687 C.3     1  UNL1        0.0423
     12 C           0.2289    1.5928   -0.1121 C.3     1  UNL1        0.0338
     13 N          -0.9854    0.7692    0.0126 N.am    1  UNL1       -0.2860
     14 C          -2.2101    1.4240   -0.1704 C.2     1  UNL1        0.2473
     15 O          -2.2453    2.6835   -0.4338 O.2     1  UNL1       -0.2700
     16 C          -3.5048    0.7849   -0.0920 C.ar    1  UNL1        0.0397
     17 C          -3.9429   -0.0713   -1.0970 C.ar    1  UNL1       -0.0481
     18 C          -5.1809   -0.6743   -1.0422 C.ar    1  UNL1       -0.0399
     19 C          -6.0438   -0.4568    0.0144 C.ar    1  UNL1        0.0761
     20 CL         -7.6113   -1.2429    0.0486 Cl      1  UNL1       -0.0806
     21 C          -5.6287    0.3831    1.0133 C.ar    1  UNL1        0.1423
     22 F          -6.4411    0.6312    2.0680 F       1  UNL1       -0.2039
     23 C          -4.3929    0.9808    0.9508 C.ar    1  UNL1       -0.0129
     24 C          -0.8799   -0.6420    0.3025 C.3     1  UNL1        0.0834
     25 C          -1.7944   -1.0536    1.4474 C.3     1  UNL1       -0.0393
     26 N           5.1771   -0.7075    0.0553 N.ar    1  UNL1       -0.2199
     27 H           8.3141   -0.1282    0.3467 H       1  UNL1        0.0308
     28 H           7.7273   -1.6698   -0.3170 H       1  UNL1        0.0308
     29 H           8.0234   -0.3213   -1.4594 H       1  UNL1        0.0308
     30 H           0.6381    0.2459   -1.6925 H       1  UNL1        0.0508
     31 H           2.0760    1.2924   -1.2468 H       1  UNL1        0.0508
     32 H           0.0695    2.5215   -0.6438 H       1  UNL1        0.0482
     33 H           0.6685    1.7528    0.8935 H       1  UNL1        0.0482
     34 H          -3.2661   -0.2467   -1.9273 H       1  UNL1        0.0625
     35 H          -5.4757   -1.3298   -1.8435 H       1  UNL1        0.0633
     36 H          -4.0735    1.6483    1.7548 H       1  UNL1        0.0654
     37 H          -1.1870   -1.2158   -0.6206 H       1  UNL1        0.0579
     38 H          -2.6914   -1.5309    1.0348 H       1  UNL1        0.0252
     39 H          -1.2668   -1.8713    2.0226 H       1  UNL1        0.0252
     40 H          -2.0382   -0.2259    2.1160 H       1  UNL1        0.0252
@<TRIPOS>BOND
     1     1     2    1
     2     2     3   ar
     3     3     4   ar
     4     4     5   ar
     5     5     6    1
     6     6     7   ar
     7     7     8   ar
     8     8     9   ar
     9     9    10   ar
    10    10    11    1
    11    11    12    1
    12    12    13    1
    13    13    14   am
    14    14    15    2
    15    14    16    1
    16    16    17   ar
    17    17    18   ar
    18    18    19   ar
    19    19    20    1
    20    19    21   ar
    21    21    22    1
    22    21    23   ar
    23    13    24    1
    24    24    25    1
    25     5    26   ar
    26    26     2   ar
    27    10     6   ar
    28    23    16   ar
    29    24     9    1
    30     1    27    1
    31     1    28    1
    32     1    29    1
    33    11    30    1
    34    11    31    1
    35    12    32    1
    36    12    33    1
    37    17    34    1
    38    18    35    1
    39    23    36    1
    40    24    37    1
    41    25    38    1
    42    25    39    1
    43    25    40    1
