@<TRIPOS>MOLECULE
*****
 65 70 0 0 0
SMALL
GASTEIGER

@<TRIPOS>ATOM
      1 O          -6.7366   -1.3314    3.4844 O.2     1  UNL1       -0.2510
      2 C          -5.7069   -0.8410    2.9887 C.2     1  UNL1        0.3053
      3 O          -5.3588    0.4432    3.4148 O.3     1  UNL1       -0.4806
      4 C          -4.8536   -1.5467    1.9928 C.3     1  UNL1        0.0516
      5 C          -4.0511   -0.4952    1.2427 C.3     1  UNL1       -0.0047
      6 C          -3.1307   -1.1877    0.2650 C.3     1  UNL1       -0.0359
      7 C          -2.9035   -0.0504   -0.7467 C.3     1  UNL1        0.0005
      8 C          -2.2100   -0.5350   -1.9489 C.3     1  UNL1       -0.0273
      9 C          -1.0389    0.3287   -2.3162 C.3     1  UNL1        0.0169
     10 N          -0.0959    0.2754   -1.2328 N.am    1  UNL1       -0.2856
     11 C           1.2489   -0.0061   -1.4708 C.2     1  UNL1        0.3024
     12 O           1.6891   -0.2345   -2.6274 O.2     1  UNL1       -0.2526
     13 N           2.2198   -0.0503   -0.4010 N.am    1  UNL1       -0.2959
     14 C           3.6022   -0.3314   -0.6189 C.3     1  UNL1        0.0302
     15 C           4.3532    0.9771   -0.3675 C.3     1  UNL1       -0.0218
     16 C           4.3544    1.3081    1.0899 C.3     1  UNL1       -0.0456
     17 C           4.9815    0.1561    1.8497 C.3     1  UNL1       -0.0402
     18 C           6.4109    0.0156    1.3550 C.3     1  UNL1       -0.0473
     19 C           6.3863   -0.3343   -0.1229 C.3     1  UNL1       -0.0402
     20 C           5.7751    0.8297   -0.8651 C.3     1  UNL1       -0.0456
     21 C           5.6289   -1.6173   -0.3306 C.3     1  UNL1       -0.0456
     22 C           4.1886   -1.4420    0.1753 C.3     1  UNL1       -0.0218
     23 C           4.2184   -1.1267    1.6413 C.3     1  UNL1       -0.0456
     24 C          -0.6118    0.5329    0.0836 C.3     1  UNL1        0.0169
     25 C          -2.0812    0.9971   -0.0383 C.3     1  UNL1       -0.0273
     26 C          -4.2699    0.4597   -0.9202 C.ar    1  UNL1       -0.0237
     27 C          -4.9543    1.0864   -1.9328 C.ar    1  UNL1        0.0218
     28 BR         -4.0584    1.4185   -3.5812 Br      1  UNL1       -0.0500
     29 C          -6.2665    1.4922   -1.8502 C.ar    1  UNL1       -0.0475
     30 C          -6.9387    1.2556   -0.6786 C.ar    1  UNL1       -0.0604
     31 C          -6.2860    0.6237    0.3729 C.ar    1  UNL1       -0.0580
     32 C          -4.9578    0.2255    0.2574 C.ar    1  UNL1       -0.0390
     33 H          -5.7226    0.8603    4.2775 H       1  UNL1        0.2951
     34 H          -4.1424   -2.1935    2.5136 H       1  UNL1        0.0383
     35 H          -5.4693   -2.1464    1.2904 H       1  UNL1        0.0383
     36 H          -3.6051    0.1417    1.9753 H       1  UNL1        0.0354
     37 H          -3.7415   -1.9647   -0.2770 H       1  UNL1        0.0280
     38 H          -2.2076   -1.5705    0.6842 H       1  UNL1        0.0280
     39 H          -1.8102   -1.5734   -1.6869 H       1  UNL1        0.0289
     40 H          -2.8659   -0.7644   -2.8154 H       1  UNL1        0.0289
     41 H          -1.2890    1.4230   -2.4084 H       1  UNL1        0.0465
     42 H          -0.5734   -0.0190   -3.2813 H       1  UNL1        0.0465
     43 H           1.8157    0.1401    0.5432 H       1  UNL1        0.1505
     44 H           3.8235   -0.5452   -1.7071 H       1  UNL1        0.0504
     45 H           3.8221    1.7756   -0.9422 H       1  UNL1        0.0319
     46 H           3.3731    1.6070    1.4790 H       1  UNL1        0.0271
     47 H           5.0695    2.1747    1.2191 H       1  UNL1        0.0271
     48 H           4.9731    0.4034    2.9193 H       1  UNL1        0.0301
     49 H           6.9587   -0.7262    1.9570 H       1  UNL1        0.0271
     50 H           6.8679    1.0336    1.4139 H       1  UNL1        0.0271
     51 H           7.4173   -0.4479   -0.5030 H       1  UNL1        0.0301
     52 H           5.7607    0.7032   -1.9538 H       1  UNL1        0.0271
     53 H           6.3171    1.7490   -0.5948 H       1  UNL1        0.0271
     54 H           6.1561   -2.4091    0.2116 H       1  UNL1        0.0271
     55 H           5.5774   -1.8500   -1.4061 H       1  UNL1        0.0271
     56 H           3.6725   -2.3852   -0.0325 H       1  UNL1        0.0319
     57 H           3.1738   -0.9804    1.9726 H       1  UNL1        0.0271
     58 H           4.7402   -1.9112    2.2140 H       1  UNL1        0.0271
     59 H          -0.5448   -0.3545    0.7469 H       1  UNL1        0.0465
     60 H          -0.0784    1.3553    0.5761 H       1  UNL1        0.0465
     61 H          -2.0448    1.9244   -0.6584 H       1  UNL1        0.0289
     62 H          -2.3787    1.2326    0.9784 H       1  UNL1        0.0289
     63 H          -6.7475    1.9863   -2.6953 H       1  UNL1        0.0629
     64 H          -7.9663    1.5679   -0.5983 H       1  UNL1        0.0618
     65 H          -6.8777    0.4678    1.2460 H       1  UNL1        0.0620
@<TRIPOS>BOND
     1     1     2    2
     2     2     3    1
     3     2     4    1
     4     4     5    1
     5     5     6    1
     6     6     7    1
     7     7     8    1
     8     8     9    1
     9     9    10    1
    10    10    11   am
    11    11    12    2
    12    11    13   am
    13    13    14    1
    14    14    15    1
    15    15    16    1
    16    16    17    1
    17    17    18    1
    18    18    19    1
    19    19    20    1
    20    19    21    1
    21    21    22    1
    22    22    23    1
    23    10    24    1
    24    24    25    1
    25     7    26    1
    26    26    27   ar
    27    27    28    1
    28    27    29   ar
    29    29    30   ar
    30    30    31   ar
    31    31    32   ar
    32    32     5    1
    33    25     7    1
    34    32    26   ar
    35    22    14    1
    36    20    15    1
    37    23    17    1
    38     3    33    1
    39     4    34    1
    40     4    35    1
    41     5    36    1
    42     6    37    1
    43     6    38    1
    44     8    39    1
    45     8    40    1
    46     9    41    1
    47     9    42    1
    48    13    43    1
    49    14    44    1
    50    15    45    1
    51    16    46    1
    52    16    47    1
    53    17    48    1
    54    18    49    1
    55    18    50    1
    56    19    51    1
    57    20    52    1
    58    20    53    1
    59    21    54    1
    60    21    55    1
    61    22    56    1
    62    23    57    1
    63    23    58    1
    64    24    59    1
    65    24    60    1
    66    25    61    1
    67    25    62    1
    68    29    63    1
    69    30    64    1
    70    31    65    1
