
     RDKit          3D

 65 70  0  0  0  0  0  0  0  0999 V2000
   -6.7366   -1.3314    3.4844 O   0  0  0  0  0  0  0  0  0  0  0  0
   -5.7069   -0.8410    2.9887 C   0  0  0  0  0  0  0  0  0  0  0  0
   -5.3588    0.4432    3.4148 O   0  0  0  0  0  0  0  0  0  0  0  0
   -4.8536   -1.5467    1.9928 C   0  0  0  0  0  0  0  0  0  0  0  0
   -4.0511   -0.4952    1.2427 C   0  0  0  0  0  0  0  0  0  0  0  0
   -3.1307   -1.1877    0.2650 C   0  0  0  0  0  0  0  0  0  0  0  0
   -2.9035   -0.0504   -0.7467 C   0  0  0  0  0  0  0  0  0  0  0  0
   -2.2100   -0.5350   -1.9489 C   0  0  0  0  0  0  0  0  0  0  0  0
   -1.0389    0.3287   -2.3162 C   0  0  0  0  0  0  0  0  0  0  0  0
   -0.0959    0.2754   -1.2328 N   0  0  0  0  0  0  0  0  0  0  0  0
    1.2489   -0.0061   -1.4708 C   0  0  0  0  0  0  0  0  0  0  0  0
    1.6891   -0.2345   -2.6274 O   0  0  0  0  0  0  0  0  0  0  0  0
    2.2198   -0.0503   -0.4010 N   0  0  0  0  0  0  0  0  0  0  0  0
    3.6022   -0.3314   -0.6189 C   0  0  0  0  0  0  0  0  0  0  0  0
    4.3532    0.9771   -0.3675 C   0  0  0  0  0  0  0  0  0  0  0  0
    4.3544    1.3081    1.0899 C   0  0  0  0  0  0  0  0  0  0  0  0
    4.9815    0.1561    1.8497 C   0  0  0  0  0  0  0  0  0  0  0  0
    6.4109    0.0156    1.3550 C   0  0  0  0  0  0  0  0  0  0  0  0
    6.3863   -0.3343   -0.1229 C   0  0  0  0  0  0  0  0  0  0  0  0
    5.7751    0.8297   -0.8651 C   0  0  0  0  0  0  0  0  0  0  0  0
    5.6289   -1.6173   -0.3306 C   0  0  0  0  0  0  0  0  0  0  0  0
    4.1886   -1.4420    0.1753 C   0  0  0  0  0  0  0  0  0  0  0  0
    4.2184   -1.1267    1.6413 C   0  0  0  0  0  0  0  0  0  0  0  0
   -0.6118    0.5329    0.0836 C   0  0  0  0  0  0  0  0  0  0  0  0
   -2.0812    0.9971   -0.0383 C   0  0  0  0  0  0  0  0  0  0  0  0
   -4.2699    0.4597   -0.9202 C   0  0  0  0  0  0  0  0  0  0  0  0
   -4.9543    1.0864   -1.9328 C   0  0  0  0  0  0  0  0  0  0  0  0
   -4.0584    1.4185   -3.5812 Br  0  0  0  0  0  0  0  0  0  0  0  0
   -6.2665    1.4922   -1.8502 C   0  0  0  0  0  0  0  0  0  0  0  0
   -6.9387    1.2556   -0.6786 C   0  0  0  0  0  0  0  0  0  0  0  0
   -6.2860    0.6237    0.3729 C   0  0  0  0  0  0  0  0  0  0  0  0
   -4.9578    0.2255    0.2574 C   0  0  0  0  0  0  0  0  0  0  0  0
   -5.7226    0.8603    4.2775 H   0  0  0  0  0  0  0  0  0  0  0  0
   -4.1424   -2.1935    2.5136 H   0  0  0  0  0  0  0  0  0  0  0  0
   -5.4693   -2.1464    1.2904 H   0  0  0  0  0  0  0  0  0  0  0  0
   -3.6051    0.1417    1.9753 H   0  0  0  0  0  0  0  0  0  0  0  0
   -3.7415   -1.9647   -0.2770 H   0  0  0  0  0  0  0  0  0  0  0  0
   -2.2076   -1.5705    0.6842 H   0  0  0  0  0  0  0  0  0  0  0  0
   -1.8102   -1.5734   -1.6869 H   0  0  0  0  0  0  0  0  0  0  0  0
   -2.8659   -0.7644   -2.8154 H   0  0  0  0  0  0  0  0  0  0  0  0
   -1.2890    1.4230   -2.4084 H   0  0  0  0  0  0  0  0  0  0  0  0
   -0.5734   -0.0190   -3.2813 H   0  0  0  0  0  0  0  0  0  0  0  0
    1.8157    0.1401    0.5432 H   0  0  0  0  0  0  0  0  0  0  0  0
    3.8235   -0.5452   -1.7071 H   0  0  0  0  0  0  0  0  0  0  0  0
    3.8221    1.7756   -0.9422 H   0  0  0  0  0  0  0  0  0  0  0  0
    3.3731    1.6070    1.4790 H   0  0  0  0  0  0  0  0  0  0  0  0
    5.0695    2.1747    1.2191 H   0  0  0  0  0  0  0  0  0  0  0  0
    4.9731    0.4034    2.9193 H   0  0  0  0  0  0  0  0  0  0  0  0
    6.9587   -0.7262    1.9570 H   0  0  0  0  0  0  0  0  0  0  0  0
    6.8679    1.0336    1.4139 H   0  0  0  0  0  0  0  0  0  0  0  0
    7.4173   -0.4479   -0.5030 H   0  0  0  0  0  0  0  0  0  0  0  0
    5.7607    0.7032   -1.9538 H   0  0  0  0  0  0  0  0  0  0  0  0
    6.3171    1.7490   -0.5948 H   0  0  0  0  0  0  0  0  0  0  0  0
    6.1561   -2.4091    0.2116 H   0  0  0  0  0  0  0  0  0  0  0  0
    5.5774   -1.8500   -1.4061 H   0  0  0  0  0  0  0  0  0  0  0  0
    3.6725   -2.3852   -0.0325 H   0  0  0  0  0  0  0  0  0  0  0  0
    3.1738   -0.9804    1.9726 H   0  0  0  0  0  0  0  0  0  0  0  0
    4.7402   -1.9112    2.2140 H   0  0  0  0  0  0  0  0  0  0  0  0
   -0.5448   -0.3545    0.7469 H   0  0  0  0  0  0  0  0  0  0  0  0
   -0.0784    1.3553    0.5761 H   0  0  0  0  0  0  0  0  0  0  0  0
   -2.0448    1.9244   -0.6584 H   0  0  0  0  0  0  0  0  0  0  0  0
   -2.3787    1.2326    0.9784 H   0  0  0  0  0  0  0  0  0  0  0  0
   -6.7475    1.9863   -2.6953 H   0  0  0  0  0  0  0  0  0  0  0  0
   -7.9663    1.5679   -0.5983 H   0  0  0  0  0  0  0  0  0  0  0  0
   -6.8777    0.4678    1.2460 H   0  0  0  0  0  0  0  0  0  0  0  0
  1  2  2  0
  2  3  1  0
  2  4  1  0
  4  5  1  0
  5  6  1  0
  6  7  1  0
  7  8  1  0
  8  9  1  0
  9 10  1  0
 10 11  1  0
 11 12  2  0
 11 13  1  0
 13 14  1  0
 14 15  1  0
 15 16  1  0
 16 17  1  0
 17 18  1  0
 18 19  1  0
 19 20  1  0
 19 21  1  0
 21 22  1  0
 22 23  1  0
 10 24  1  0
 24 25  1  0
  7 26  1  0
 26 27  2  0
 27 28  1  0
 27 29  1  0
 29 30  2  0
 30 31  1  0
 31 32  2  0
 32  5  1  0
 25  7  1  0
 32 26  1  0
 22 14  1  0
 20 15  1  0
 23 17  1  0
  3 33  1  0
  4 34  1  0
  4 35  1  0
  5 36  1  0
  6 37  1  0
  6 38  1  0
  8 39  1  0
  8 40  1  0
  9 41  1  0
  9 42  1  0
 13 43  1  0
 14 44  1  0
 15 45  1  0
 16 46  1  0
 16 47  1  0
 17 48  1  0
 18 49  1  0
 18 50  1  0
 19 51  1  0
 20 52  1  0
 20 53  1  0
 21 54  1  0
 21 55  1  0
 22 56  1  0
 23 57  1  0
 23 58  1  0
 24 59  1  0
 24 60  1  0
 25 61  1  0
 25 62  1  0
 29 63  1  0
 30 64  1  0
 31 65  1  0
M  END
$$$$
