
     RDKit          3D

 49 53  0  0  0  0  0  0  0  0999 V2000
   -6.9494   -2.2628   -1.0473 C   0  0  0  0  0  0  0  0  0  0  0  0
   -6.2928   -1.1441   -0.5428 O   0  0  0  0  0  0  0  0  0  0  0  0
   -4.9490   -0.8671   -0.7401 C   0  0  0  0  0  0  0  0  0  0  0  0
   -4.0944   -1.6430   -1.4459 C   0  0  0  0  0  0  0  0  0  0  0  0
   -2.7644   -1.3353   -1.6214 C   0  0  0  0  0  0  0  0  0  0  0  0
   -2.2602   -0.1884   -1.0604 C   0  0  0  0  0  0  0  0  0  0  0  0
   -0.8727    0.2321   -1.2310 C   0  0  0  0  0  0  0  0  0  0  0  0
   -0.4804    1.0307   -2.2944 N   0  0  0  0  0  0  0  0  0  0  0  0
    0.7893    1.2775   -2.2431 N   0  0  0  0  0  0  0  0  0  0  0  0
    1.2784    0.6479   -1.1410 C   0  0  0  0  0  0  0  0  0  0  0  0
    2.5778    0.6098   -0.6538 C   0  0  0  0  0  0  0  0  0  0  0  0
    3.6377    1.3028   -1.3739 C   0  0  0  0  0  0  0  0  0  0  0  0
    3.3847    1.8919   -2.4834 O   0  0  0  0  0  0  0  0  0  0  0  0
    4.9875    1.3669   -0.9054 C   0  0  0  0  0  0  0  0  0  0  0  0
    5.3035    1.2208    0.4172 C   0  0  0  0  0  0  0  0  0  0  0  0
    6.6154    1.2596    0.8787 C   0  0  0  0  0  0  0  0  0  0  0  0
    7.6343    1.4484    0.0044 C   0  0  0  0  0  0  0  0  0  0  0  0
    7.3285    1.5991   -1.3419 C   0  0  0  0  0  0  0  0  0  0  0  0
    6.0434    1.5625   -1.8051 C   0  0  0  0  0  0  0  0  0  0  0  0
    2.7598   -0.0942    0.4582 N   0  0  0  0  0  0  0  0  0  0  0  0
    1.7438   -0.7321    1.0752 C   0  0  0  0  0  0  0  0  0  0  0  0
    2.0034   -1.4568    2.2465 C   0  0  0  0  0  0  0  0  0  0  0  0
    0.9932   -2.1056    2.8833 C   0  0  0  0  0  0  0  0  0  0  0  0
   -0.2790   -2.0571    2.3889 C   0  0  0  0  0  0  0  0  0  0  0  0
   -0.5878   -1.3453    1.2207 C   0  0  0  0  0  0  0  0  0  0  0  0
    0.4500   -0.6962    0.5935 C   0  0  0  0  0  0  0  0  0  0  0  0
    0.2467    0.0218   -0.5468 N   0  0  0  0  0  0  0  0  0  0  0  0
   -3.1182    0.6158   -0.3363 C   0  0  0  0  0  0  0  0  0  0  0  0
   -4.4506    0.3098   -0.1588 C   0  0  0  0  0  0  0  0  0  0  0  0
   -5.3311    1.0845    0.5543 O   0  0  0  0  0  0  0  0  0  0  0  0
   -5.0880    2.2655    1.2081 C   0  0  0  0  0  0  0  0  0  0  0  0
   -8.0579   -2.0745   -1.0547 H   0  0  0  0  0  0  0  0  0  0  0  0
   -6.5644   -2.5168   -2.0598 H   0  0  0  0  0  0  0  0  0  0  0  0
   -6.8109   -3.1387   -0.3565 H   0  0  0  0  0  0  0  0  0  0  0  0
   -4.5039   -2.5504   -1.8875 H   0  0  0  0  0  0  0  0  0  0  0  0
   -2.1133   -1.9899   -2.1983 H   0  0  0  0  0  0  0  0  0  0  0  0
    4.5671    1.0758    1.2002 H   0  0  0  0  0  0  0  0  0  0  0  0
    6.8375    1.1420    1.9343 H   0  0  0  0  0  0  0  0  0  0  0  0
    8.6558    1.4782    0.3605 H   0  0  0  0  0  0  0  0  0  0  0  0
    8.1356    1.7518   -2.0543 H   0  0  0  0  0  0  0  0  0  0  0  0
    5.7556    1.6747   -2.8491 H   0  0  0  0  0  0  0  0  0  0  0  0
    3.0168   -1.4631    2.5922 H   0  0  0  0  0  0  0  0  0  0  0  0
    1.2554   -2.6495    3.7863 H   0  0  0  0  0  0  0  0  0  0  0  0
   -1.0523   -2.5718    2.9032 H   0  0  0  0  0  0  0  0  0  0  0  0
   -1.6057   -1.3443    0.8812 H   0  0  0  0  0  0  0  0  0  0  0  0
   -2.7515    1.5428    0.1253 H   0  0  0  0  0  0  0  0  0  0  0  0
   -5.4554    2.1563    2.2600 H   0  0  0  0  0  0  0  0  0  0  0  0
   -4.0126    2.4940    1.2951 H   0  0  0  0  0  0  0  0  0  0  0  0
   -5.5553    3.1639    0.7267 H   0  0  0  0  0  0  0  0  0  0  0  0
  1  2  1  0
  2  3  1  0
  3  4  2  0
  4  5  1  0
  5  6  2  0
  6  7  1  0
  7  8  2  0
  8  9  1  0
  9 10  2  0
 10 11  1  0
 11 12  1  0
 12 13  2  0
 12 14  1  0
 14 15  2  0
 15 16  1  0
 16 17  2  0
 17 18  1  0
 18 19  2  0
 11 20  2  0
 20 21  1  0
 21 22  2  0
 22 23  1  0
 23 24  2  0
 24 25  1  0
 25 26  2  0
 26 27  1  0
  6 28  1  0
 28 29  2  0
 29 30  1  0
 30 31  1  0
 29  3  1  0
 27  7  1  0
 27 10  1  0
 19 14  1  0
 26 21  1  0
  1 32  1  0
  1 33  1  0
  1 34  1  0
  4 35  1  0
  5 36  1  0
 15 37  1  0
 16 38  1  0
 17 39  1  0
 18 40  1  0
 19 41  1  0
 22 42  1  0
 23 43  1  0
 24 44  1  0
 25 45  1  0
 28 46  1  0
 31 47  1  0
 31 48  1  0
 31 49  1  0
M  END
$$$$
