@<TRIPOS>MOLECULE
*****
 49 53 0 0 0
SMALL
GASTEIGER

@<TRIPOS>ATOM
      1 C          -6.9494   -2.2628   -1.0473 C.3     1  UNL1        0.0790
      2 O          -6.2928   -1.1441   -0.5428 O.3     1  UNL1       -0.4915
      3 C          -4.9490   -0.8671   -0.7401 C.ar    1  UNL1        0.1615
      4 C          -4.0944   -1.6430   -1.4459 C.ar    1  UNL1       -0.0156
      5 C          -2.7644   -1.3353   -1.6214 C.ar    1  UNL1       -0.0473
      6 C          -2.2602   -0.1884   -1.0604 C.ar    1  UNL1        0.0233
      7 C          -0.8727    0.2321   -1.2310 C.ar    1  UNL1        0.1692
      8 N          -0.4804    1.0307   -2.2944 N.ar    1  UNL1       -0.1284
      9 N           0.7893    1.2775   -2.2431 N.ar    1  UNL1       -0.1267
     10 C           1.2784    0.6479   -1.1410 C.ar    1  UNL1        0.1913
     11 C           2.5778    0.6098   -0.6538 C.ar    1  UNL1        0.1561
     12 C           3.6377    1.3028   -1.3739 C.2     1  UNL1        0.2149
     13 O           3.3847    1.8919   -2.4834 O.2     1  UNL1       -0.2849
     14 C           4.9875    1.3669   -0.9054 C.ar    1  UNL1        0.0239
     15 C           5.3035    1.2208    0.4172 C.ar    1  UNL1       -0.0509
     16 C           6.6154    1.2596    0.8787 C.ar    1  UNL1       -0.0611
     17 C           7.6343    1.4484    0.0044 C.ar    1  UNL1       -0.0617
     18 C           7.3285    1.5991   -1.3419 C.ar    1  UNL1       -0.0611
     19 C           6.0434    1.5625   -1.8051 C.ar    1  UNL1       -0.0509
     20 N           2.7598   -0.0942    0.4582 N.ar    1  UNL1       -0.2382
     21 C           1.7438   -0.7321    1.0752 C.ar    1  UNL1        0.0886
     22 C           2.0034   -1.4568    2.2465 C.ar    1  UNL1       -0.0343
     23 C           0.9932   -2.1056    2.8833 C.ar    1  UNL1       -0.0596
     24 C          -0.2790   -2.0571    2.3889 C.ar    1  UNL1       -0.0597
     25 C          -0.5878   -1.3453    1.2207 C.ar    1  UNL1       -0.0357
     26 C           0.4500   -0.6962    0.5935 C.ar    1  UNL1        0.0754
     27 N           0.2467    0.0218   -0.5468 N.ar    1  UNL1       -0.2718
     28 C          -3.1182    0.6158   -0.3363 C.ar    1  UNL1       -0.0056
     29 C          -4.4506    0.3098   -0.1588 C.ar    1  UNL1        0.1622
     30 O          -5.3311    1.0845    0.5543 O.3     1  UNL1       -0.4914
     31 C          -5.0880    2.2655    1.2081 C.3     1  UNL1        0.0790
     32 H          -8.0579   -2.0745   -1.0547 H       1  UNL1        0.0660
     33 H          -6.5644   -2.5168   -2.0598 H       1  UNL1        0.0660
     34 H          -6.8109   -3.1387   -0.3565 H       1  UNL1        0.0660
     35 H          -4.5039   -2.5504   -1.8875 H       1  UNL1        0.0655
     36 H          -2.1133   -1.9899   -2.1983 H       1  UNL1        0.0626
     37 H           4.5671    1.0758    1.2002 H       1  UNL1        0.0625
     38 H           6.8375    1.1420    1.9343 H       1  UNL1        0.0618
     39 H           8.6558    1.4782    0.3605 H       1  UNL1        0.0618
     40 H           8.1356    1.7518   -2.0543 H       1  UNL1        0.0618
     41 H           5.7556    1.6747   -2.8491 H       1  UNL1        0.0625
     42 H           3.0168   -1.4631    2.5922 H       1  UNL1        0.0639
     43 H           1.2554   -2.6495    3.7863 H       1  UNL1        0.0618
     44 H          -1.0523   -2.5718    2.9032 H       1  UNL1        0.0618
     45 H          -1.6057   -1.3443    0.8812 H       1  UNL1        0.0639
     46 H          -2.7515    1.5428    0.1253 H       1  UNL1        0.0662
     47 H          -5.4554    2.1563    2.2600 H       1  UNL1        0.0660
     48 H          -4.0126    2.4940    1.2951 H       1  UNL1        0.0660
     49 H          -5.5553    3.1639    0.7267 H       1  UNL1        0.0660
@<TRIPOS>BOND
     1     1     2    1
     2     2     3    1
     3     3     4   ar
     4     4     5   ar
     5     5     6   ar
     6     6     7    1
     7     7     8   ar
     8     8     9   ar
     9     9    10   ar
    10    10    11   ar
    11    11    12    1
    12    12    13    2
    13    12    14    1
    14    14    15   ar
    15    15    16   ar
    16    16    17   ar
    17    17    18   ar
    18    18    19   ar
    19    11    20   ar
    20    20    21   ar
    21    21    22   ar
    22    22    23   ar
    23    23    24   ar
    24    24    25   ar
    25    25    26   ar
    26    26    27   ar
    27     6    28   ar
    28    28    29   ar
    29    29    30    1
    30    30    31    1
    31    29     3   ar
    32    27     7   ar
    33    27    10   ar
    34    19    14   ar
    35    26    21   ar
    36     1    32    1
    37     1    33    1
    38     1    34    1
    39     4    35    1
    40     5    36    1
    41    15    37    1
    42    16    38    1
    43    17    39    1
    44    18    40    1
    45    19    41    1
    46    22    42    1
    47    23    43    1
    48    24    44    1
    49    25    45    1
    50    28    46    1
    51    31    47    1
    52    31    48    1
    53    31    49    1
