@<TRIPOS>MOLECULE
*****
 55 58 0 0 0
SMALL
GASTEIGER

@<TRIPOS>ATOM
      1 C          -5.1992    1.9464    4.2324 C.3     1  UNL1        0.0790
      2 O          -3.9007    1.8713    3.6794 O.3     1  UNL1       -0.4914
      3 C          -3.7285    1.0233    2.5708 C.ar    1  UNL1        0.1635
      4 C          -4.7814    0.3093    2.0530 C.ar    1  UNL1        0.0098
      5 C          -4.5790   -0.5171    0.9623 C.ar    1  UNL1        0.0797
      6 N          -5.5660   -1.2405    0.4195 N.ar    1  UNL1       -0.2352
      7 C          -5.3637   -2.0471   -0.6368 C.ar    1  UNL1        0.1187
      8 N          -4.1284   -2.1169   -1.1520 N.ar    1  UNL1       -0.2201
      9 C          -3.0664   -1.4119   -0.6580 C.ar    1  UNL1        0.1324
     10 N          -1.7925   -1.5161   -1.2540 N.pl3   1  UNL1       -0.3116
     11 C          -1.2134   -0.4761   -2.0310 C.3     1  UNL1        0.0293
     12 C           0.2995   -0.3279   -1.8143 C.3     1  UNL1        0.0296
     13 N           0.9154   -1.6106   -1.7202 N.am    1  UNL1       -0.3097
     14 C           2.2327   -1.8708   -1.3274 C.2     1  UNL1        0.1332
     15 S           2.6503   -3.5112   -1.3306 S.2     1  UNL1       -0.0187
     16 N           3.2170   -0.9846   -0.9434 N.am    1  UNL1       -0.3223
     17 C           3.1462    0.4302   -0.8364 C.3     1  UNL1        0.0359
     18 C           4.4908    1.0151   -0.4655 C.ar    1  UNL1       -0.0304
     19 C           4.7771    1.2289    0.8639 C.ar    1  UNL1       -0.0571
     20 C           5.9889    1.7418    1.2609 C.ar    1  UNL1       -0.0615
     21 C           6.9299    2.0446    0.2992 C.ar    1  UNL1       -0.0617
     22 C           6.6573    1.8382   -1.0148 C.ar    1  UNL1       -0.0615
     23 C           5.4246    1.3173   -1.4053 C.ar    1  UNL1       -0.0571
     24 C           0.0550   -2.7699   -2.0762 C.3     1  UNL1        0.0296
     25 C          -1.0780   -2.7576   -1.0522 C.3     1  UNL1        0.0293
     26 C          -3.2952   -0.5961    0.4206 C.ar    1  UNL1        0.0440
     27 C          -2.2644    0.1250    0.9567 C.ar    1  UNL1       -0.0038
     28 C          -2.4576    0.9578    2.0514 C.ar    1  UNL1        0.1623
     29 O          -1.3949    1.6740    2.5699 O.3     1  UNL1       -0.4914
     30 C          -0.1236    1.5348    1.9676 C.3     1  UNL1        0.0790
     31 H          -5.8740    2.4201    3.4927 H       1  UNL1        0.0660
     32 H          -5.5866    0.9227    4.4720 H       1  UNL1        0.0660
     33 H          -5.1981    2.4962    5.2074 H       1  UNL1        0.0660
     34 H          -5.7681    0.3844    2.4885 H       1  UNL1        0.0677
     35 H          -6.1949   -2.6119   -1.0385 H       1  UNL1        0.1048
     36 H          -1.3717   -0.6254   -3.1340 H       1  UNL1        0.0480
     37 H          -1.6508    0.5119   -1.7505 H       1  UNL1        0.0480
     38 H           0.4956    0.2573   -0.9092 H       1  UNL1        0.0480
     39 H           0.7079    0.2490   -2.6822 H       1  UNL1        0.0480
     40 H           4.1716   -1.4047   -0.6897 H       1  UNL1        0.1481
     41 H           2.7795    0.9030   -1.7596 H       1  UNL1        0.0511
     42 H           2.4306    0.7300   -0.0061 H       1  UNL1        0.0511
     43 H           4.0113    0.9802    1.6057 H       1  UNL1        0.0621
     44 H           6.2239    1.9165    2.2860 H       1  UNL1        0.0618
     45 H           7.9062    2.4549    0.5824 H       1  UNL1        0.0618
     46 H           7.3632    2.0658   -1.7872 H       1  UNL1        0.0618
     47 H           5.2268    1.1587   -2.4501 H       1  UNL1        0.0621
     48 H           0.6212   -3.7054   -2.0885 H       1  UNL1        0.0480
     49 H          -0.3310   -2.5533   -3.0927 H       1  UNL1        0.0480
     50 H          -1.7299   -3.6293   -1.1356 H       1  UNL1        0.0480
     51 H          -0.5448   -2.7364   -0.0575 H       1  UNL1        0.0480
     52 H          -1.2906    0.0467    0.5411 H       1  UNL1        0.0663
     53 H           0.6559    2.1306    2.4782 H       1  UNL1        0.0660
     54 H           0.2359    0.4709    1.9730 H       1  UNL1        0.0660
     55 H          -0.1411    1.8635    0.8891 H       1  UNL1        0.0660
@<TRIPOS>BOND
     1     1     2    1
     2     2     3    1
     3     3     4   ar
     4     4     5   ar
     5     5     6   ar
     6     6     7   ar
     7     7     8   ar
     8     8     9   ar
     9     9    10    1
    10    10    11    1
    11    11    12    1
    12    12    13    1
    13    13    14    1
    14    14    15    2
    15    14    16    1
    16    16    17    1
    17    17    18    1
    18    18    19   ar
    19    19    20   ar
    20    20    21   ar
    21    21    22   ar
    22    22    23   ar
    23    13    24    1
    24    24    25    1
    25     9    26   ar
    26    26    27   ar
    27    27    28   ar
    28    28    29    1
    29    29    30    1
    30    28     3   ar
    31    26     5   ar
    32    25    10    1
    33    23    18   ar
    34     1    31    1
    35     1    32    1
    36     1    33    1
    37     4    34    1
    38     7    35    1
    39    11    36    1
    40    11    37    1
    41    12    38    1
    42    12    39    1
    43    16    40    1
    44    17    41    1
    45    17    42    1
    46    19    43    1
    47    20    44    1
    48    21    45    1
    49    22    46    1
    50    23    47    1
    51    24    48    1
    52    24    49    1
    53    25    50    1
    54    25    51    1
    55    27    52    1
    56    30    53    1
    57    30    54    1
    58    30    55    1
