
     RDKit          3D

 55 58  0  0  0  0  0  0  0  0999 V2000
   -5.1992    1.9464    4.2324 C   0  0  0  0  0  0  0  0  0  0  0  0
   -3.9007    1.8713    3.6794 O   0  0  0  0  0  0  0  0  0  0  0  0
   -3.7285    1.0233    2.5708 C   0  0  0  0  0  0  0  0  0  0  0  0
   -4.7814    0.3093    2.0530 C   0  0  0  0  0  0  0  0  0  0  0  0
   -4.5790   -0.5171    0.9623 C   0  0  0  0  0  0  0  0  0  0  0  0
   -5.5660   -1.2405    0.4195 N   0  0  0  0  0  0  0  0  0  0  0  0
   -5.3637   -2.0471   -0.6368 C   0  0  0  0  0  0  0  0  0  0  0  0
   -4.1284   -2.1169   -1.1520 N   0  0  0  0  0  0  0  0  0  0  0  0
   -3.0664   -1.4119   -0.6580 C   0  0  0  0  0  0  0  0  0  0  0  0
   -1.7925   -1.5161   -1.2540 N   0  0  0  0  0  0  0  0  0  0  0  0
   -1.2134   -0.4761   -2.0310 C   0  0  0  0  0  0  0  0  0  0  0  0
    0.2995   -0.3279   -1.8143 C   0  0  0  0  0  0  0  0  0  0  0  0
    0.9154   -1.6106   -1.7202 N   0  0  0  0  0  0  0  0  0  0  0  0
    2.2327   -1.8708   -1.3274 C   0  0  0  0  0  0  0  0  0  0  0  0
    2.6503   -3.5112   -1.3306 S   0  0  0  0  0  0  0  0  0  0  0  0
    3.2170   -0.9846   -0.9434 N   0  0  0  0  0  0  0  0  0  0  0  0
    3.1462    0.4302   -0.8364 C   0  0  0  0  0  0  0  0  0  0  0  0
    4.4908    1.0151   -0.4655 C   0  0  0  0  0  0  0  0  0  0  0  0
    4.7771    1.2289    0.8639 C   0  0  0  0  0  0  0  0  0  0  0  0
    5.9889    1.7418    1.2609 C   0  0  0  0  0  0  0  0  0  0  0  0
    6.9299    2.0446    0.2992 C   0  0  0  0  0  0  0  0  0  0  0  0
    6.6573    1.8382   -1.0148 C   0  0  0  0  0  0  0  0  0  0  0  0
    5.4246    1.3173   -1.4053 C   0  0  0  0  0  0  0  0  0  0  0  0
    0.0550   -2.7699   -2.0762 C   0  0  0  0  0  0  0  0  0  0  0  0
   -1.0780   -2.7576   -1.0522 C   0  0  0  0  0  0  0  0  0  0  0  0
   -3.2952   -0.5961    0.4206 C   0  0  0  0  0  0  0  0  0  0  0  0
   -2.2644    0.1250    0.9567 C   0  0  0  0  0  0  0  0  0  0  0  0
   -2.4576    0.9578    2.0514 C   0  0  0  0  0  0  0  0  0  0  0  0
   -1.3949    1.6740    2.5699 O   0  0  0  0  0  0  0  0  0  0  0  0
   -0.1236    1.5348    1.9676 C   0  0  0  0  0  0  0  0  0  0  0  0
   -5.8740    2.4201    3.4927 H   0  0  0  0  0  0  0  0  0  0  0  0
   -5.5866    0.9227    4.4720 H   0  0  0  0  0  0  0  0  0  0  0  0
   -5.1981    2.4962    5.2074 H   0  0  0  0  0  0  0  0  0  0  0  0
   -5.7681    0.3844    2.4885 H   0  0  0  0  0  0  0  0  0  0  0  0
   -6.1949   -2.6119   -1.0385 H   0  0  0  0  0  0  0  0  0  0  0  0
   -1.3717   -0.6254   -3.1340 H   0  0  0  0  0  0  0  0  0  0  0  0
   -1.6508    0.5119   -1.7505 H   0  0  0  0  0  0  0  0  0  0  0  0
    0.4956    0.2573   -0.9092 H   0  0  0  0  0  0  0  0  0  0  0  0
    0.7079    0.2490   -2.6822 H   0  0  0  0  0  0  0  0  0  0  0  0
    4.1716   -1.4047   -0.6897 H   0  0  0  0  0  0  0  0  0  0  0  0
    2.7795    0.9030   -1.7596 H   0  0  0  0  0  0  0  0  0  0  0  0
    2.4306    0.7300   -0.0061 H   0  0  0  0  0  0  0  0  0  0  0  0
    4.0113    0.9802    1.6057 H   0  0  0  0  0  0  0  0  0  0  0  0
    6.2239    1.9165    2.2860 H   0  0  0  0  0  0  0  0  0  0  0  0
    7.9062    2.4549    0.5824 H   0  0  0  0  0  0  0  0  0  0  0  0
    7.3632    2.0658   -1.7872 H   0  0  0  0  0  0  0  0  0  0  0  0
    5.2268    1.1587   -2.4501 H   0  0  0  0  0  0  0  0  0  0  0  0
    0.6212   -3.7054   -2.0885 H   0  0  0  0  0  0  0  0  0  0  0  0
   -0.3310   -2.5533   -3.0927 H   0  0  0  0  0  0  0  0  0  0  0  0
   -1.7299   -3.6293   -1.1356 H   0  0  0  0  0  0  0  0  0  0  0  0
   -0.5448   -2.7364   -0.0575 H   0  0  0  0  0  0  0  0  0  0  0  0
   -1.2906    0.0467    0.5411 H   0  0  0  0  0  0  0  0  0  0  0  0
    0.6559    2.1306    2.4782 H   0  0  0  0  0  0  0  0  0  0  0  0
    0.2359    0.4709    1.9730 H   0  0  0  0  0  0  0  0  0  0  0  0
   -0.1411    1.8635    0.8891 H   0  0  0  0  0  0  0  0  0  0  0  0
  1  2  1  0
  2  3  1  0
  3  4  2  0
  4  5  1  0
  5  6  2  0
  6  7  1  0
  7  8  2  0
  8  9  1  0
  9 10  1  0
 10 11  1  0
 11 12  1  0
 12 13  1  0
 13 14  1  0
 14 15  2  0
 14 16  1  0
 16 17  1  0
 17 18  1  0
 18 19  2  0
 19 20  1  0
 20 21  2  0
 21 22  1  0
 22 23  2  0
 13 24  1  0
 24 25  1  0
  9 26  2  0
 26 27  1  0
 27 28  2  0
 28 29  1  0
 29 30  1  0
 28  3  1  0
 26  5  1  0
 25 10  1  0
 23 18  1  0
  1 31  1  0
  1 32  1  0
  1 33  1  0
  4 34  1  0
  7 35  1  0
 11 36  1  0
 11 37  1  0
 12 38  1  0
 12 39  1  0
 16 40  1  0
 17 41  1  0
 17 42  1  0
 19 43  1  0
 20 44  1  0
 21 45  1  0
 22 46  1  0
 23 47  1  0
 24 48  1  0
 24 49  1  0
 25 50  1  0
 25 51  1  0
 27 52  1  0
 30 53  1  0
 30 54  1  0
 30 55  1  0
M  END
$$$$
