
     RDKit          3D

 64 67  0  0  0  0  0  0  0  0999 V2000
   11.6617    1.7084   -0.3255 C   0  0  0  0  0  0  0  0  0  0  0  0
   10.5526    2.1273    0.2436 C   0  0  0  0  0  0  0  0  0  0  0  0
    9.3143    1.3917    0.0616 C   0  0  0  0  0  0  0  0  0  0  0  0
    9.2841    0.3455   -0.6415 O   0  0  0  0  0  0  0  0  0  0  0  0
    8.0944    1.8067    0.6565 N   0  0  0  0  0  0  0  0  0  0  0  0
    6.8820    1.0772    0.4720 C   0  0  0  0  0  0  0  0  0  0  0  0
    6.6079    0.0768    1.3928 C   0  0  0  0  0  0  0  0  0  0  0  0
    5.4372   -0.6497    1.2405 C   0  0  0  0  0  0  0  0  0  0  0  0
    4.5472   -0.4125    0.2152 C   0  0  0  0  0  0  0  0  0  0  0  0
    3.0688   -1.3192    0.0104 S   0  0  0  0  0  6  0  0  0  0  0  0
    3.3246   -2.7273    0.4682 O   0  0  0  0  0  0  0  0  0  0  0  0
    2.8007   -1.3924   -1.4816 O   0  0  0  0  0  0  0  0  0  0  0  0
    1.7476   -0.6886    0.7900 N   0  0  0  0  0  0  0  0  0  0  0  0
    1.2804    0.5831    0.4589 C   0  0  0  0  0  0  0  0  0  0  0  0
   -0.1772    0.4617   -0.0094 C   0  0  0  0  0  0  0  0  0  0  0  0
   -0.7156   -0.8287    0.3397 N   0  0  0  0  0  0  0  0  0  0  0  0
   -1.6822   -1.4448   -0.5470 C   0  0  0  0  0  0  0  0  0  0  0  0
   -2.1731   -2.5656   -0.2783 O   0  0  0  0  0  0  0  0  0  0  0  0
   -2.0864   -0.8215   -1.7018 O   0  0  0  0  0  0  0  0  0  0  0  0
   -2.9924   -1.2806   -2.6371 C   0  0  0  0  0  0  0  0  0  0  0  0
   -4.3644   -1.5335   -2.1481 C   0  0  0  0  0  0  0  0  0  0  0  0
   -4.7541   -2.7850   -1.7491 C   0  0  0  0  0  0  0  0  0  0  0  0
   -6.0511   -3.0171   -1.2761 C   0  0  0  0  0  0  0  0  0  0  0  0
   -6.9700   -2.0009   -1.1981 C   0  0  0  0  0  0  0  0  0  0  0  0
   -6.5821   -0.7402   -1.5990 C   0  0  0  0  0  0  0  0  0  0  0  0
   -7.5213    0.2753   -1.5145 O   0  0  0  0  0  0  0  0  0  0  0  0
   -7.6255    1.0242   -0.3569 C   0  0  0  0  0  0  0  0  0  0  0  0
   -8.4739    0.6101    0.6284 C   0  0  0  0  0  0  0  0  0  0  0  0
   -8.5906    1.3527    1.8002 C   0  0  0  0  0  0  0  0  0  0  0  0
   -7.8177    2.4971    1.8971 C   0  0  0  0  0  0  0  0  0  0  0  0
   -6.9636    2.9310    0.9274 C   0  0  0  0  0  0  0  0  0  0  0  0
   -6.8727    2.1650   -0.2285 C   0  0  0  0  0  0  0  0  0  0  0  0
   -5.3072   -0.5043   -2.0654 C   0  0  0  0  0  0  0  0  0  0  0  0
   -0.3457   -1.5529    1.5331 C   0  0  0  0  0  0  0  0  0  0  0  0
    1.1466   -1.3975    1.8280 C   0  0  0  0  0  0  0  0  0  0  0  0
    4.8708    0.5984   -0.6760 C   0  0  0  0  0  0  0  0  0  0  0  0
    6.0215    1.3499   -0.5693 C   0  0  0  0  0  0  0  0  0  0  0  0
   11.6478    0.8187   -0.9263 H   0  0  0  0  0  0  0  0  0  0  0  0
   12.6152    2.2359   -0.2117 H   0  0  0  0  0  0  0  0  0  0  0  0
   10.5895    3.0193    0.8401 H   0  0  0  0  0  0  0  0  0  0  0  0
    8.0576    2.6626    1.2474 H   0  0  0  0  0  0  0  0  0  0  0  0
    7.2845   -0.1356    2.2093 H   0  0  0  0  0  0  0  0  0  0  0  0
    5.1849   -1.4441    1.9422 H   0  0  0  0  0  0  0  0  0  0  0  0
    1.2732    1.2642    1.3502 H   0  0  0  0  0  0  0  0  0  0  0  0
    1.9002    1.0180   -0.3519 H   0  0  0  0  0  0  0  0  0  0  0  0
   -0.1923    0.6120   -1.1124 H   0  0  0  0  0  0  0  0  0  0  0  0
   -0.8198    1.2203    0.5138 H   0  0  0  0  0  0  0  0  0  0  0  0
   -2.6069   -2.1770   -3.2163 H   0  0  0  0  0  0  0  0  0  0  0  0
   -3.0325   -0.4865   -3.4466 H   0  0  0  0  0  0  0  0  0  0  0  0
   -4.1257   -3.6631   -1.7728 H   0  0  0  0  0  0  0  0  0  0  0  0
   -6.3575   -4.0160   -0.9588 H   0  0  0  0  0  0  0  0  0  0  0  0
   -7.9938   -2.1728   -0.8272 H   0  0  0  0  0  0  0  0  0  0  0  0
   -9.0704   -0.2849    0.5381 H   0  0  0  0  0  0  0  0  0  0  0  0
   -9.2490    1.0446    2.5819 H   0  0  0  0  0  0  0  0  0  0  0  0
   -7.9042    3.0857    2.8153 H   0  0  0  0  0  0  0  0  0  0  0  0
   -6.3552    3.8252    0.9951 H   0  0  0  0  0  0  0  0  0  0  0  0
   -6.1944    2.4823   -1.0342 H   0  0  0  0  0  0  0  0  0  0  0  0
   -4.9882    0.4866   -2.3851 H   0  0  0  0  0  0  0  0  0  0  0  0
   -0.9738   -1.1792    2.3526 H   0  0  0  0  0  0  0  0  0  0  0  0
   -0.5512   -2.6326    1.4262 H   0  0  0  0  0  0  0  0  0  0  0  0
    1.2086   -0.8617    2.8204 H   0  0  0  0  0  0  0  0  0  0  0  0
    1.6303   -2.3823    1.9548 H   0  0  0  0  0  0  0  0  0  0  0  0
    4.1803    0.8037   -1.4958 H   0  0  0  0  0  0  0  0  0  0  0  0
    6.2672    2.1368   -1.2680 H   0  0  0  0  0  0  0  0  0  0  0  0
  1  2  2  3
  2  3  1  0
  3  4  2  0
  3  5  1  0
  5  6  1  0
  6  7  2  0
  7  8  1  0
  8  9  2  0
  9 10  1  0
 10 11  2  0
 10 12  2  0
 10 13  1  0
 13 14  1  0
 14 15  1  0
 15 16  1  0
 16 17  1  0
 17 18  2  0
 17 19  1  0
 19 20  1  0
 20 21  1  0
 21 22  2  0
 22 23  1  0
 23 24  2  0
 24 25  1  0
 25 26  1  0
 26 27  1  0
 27 28  2  0
 28 29  1  0
 29 30  2  0
 30 31  1  0
 31 32  2  0
 25 33  2  0
 16 34  1  0
 34 35  1  0
  9 36  1  0
 36 37  2  0
 37  6  1  0
 35 13  1  0
 33 21  1  0
 32 27  1  0
  1 38  1  0
  1 39  1  0
  2 40  1  0
  5 41  1  0
  7 42  1  0
  8 43  1  0
 14 44  1  0
 14 45  1  0
 15 46  1  0
 15 47  1  0
 20 48  1  0
 20 49  1  0
 22 50  1  0
 23 51  1  0
 24 52  1  0
 28 53  1  0
 29 54  1  0
 30 55  1  0
 31 56  1  0
 32 57  1  0
 33 58  1  0
 34 59  1  0
 34 60  1  0
 35 61  1  0
 35 62  1  0
 36 63  1  0
 37 64  1  0
M  END
$$$$
