@<TRIPOS>MOLECULE
*****
 64 67 0 0 0
SMALL
GASTEIGER

@<TRIPOS>ATOM
      1 C          11.6617    1.7084   -0.3255 C.2     1  UNL1       -0.0938
      2 C          10.5526    2.1273    0.2436 C.2     1  UNL1       -0.0066
      3 C           9.3143    1.3917    0.0616 C.2     1  UNL1        0.2405
      4 O           9.2841    0.3455   -0.6415 O.2     1  UNL1       -0.2705
      5 N           8.0944    1.8067    0.6565 N.am    1  UNL1       -0.2820
      6 C           6.8820    1.0772    0.4720 C.ar    1  UNL1        0.0338
      7 C           6.6079    0.0768    1.3928 C.ar    1  UNL1       -0.0386
      8 C           5.4372   -0.6497    1.2405 C.ar    1  UNL1       -0.0336
      9 C           4.5472   -0.4125    0.2152 C.ar    1  UNL1        0.1056
     10 S           3.0688   -1.3192    0.0104 S.O2    1  UNL1        0.0609
     11 O           3.3246   -2.7273    0.4682 O.2     1  UNL1       -0.1528
     12 O           2.8007   -1.3924   -1.4816 O.2     1  UNL1       -0.1528
     13 N           1.7476   -0.6886    0.7900 N.3     1  UNL1       -0.1736
     14 C           1.2804    0.5831    0.4589 C.3     1  UNL1        0.0364
     15 C          -0.1772    0.4617   -0.0094 C.3     1  UNL1        0.0323
     16 N          -0.7156   -0.8287    0.3397 N.am    1  UNL1       -0.2649
     17 C          -1.6822   -1.4448   -0.5470 C.2     1  UNL1        0.4033
     18 O          -2.1731   -2.5656   -0.2783 O.2     1  UNL1       -0.2262
     19 O          -2.0864   -0.8215   -1.7018 O.3     1  UNL1       -0.4455
     20 C          -2.9924   -1.2806   -2.6371 C.3     1  UNL1        0.1192
     21 C          -4.3644   -1.5335   -2.1481 C.ar    1  UNL1       -0.0068
     22 C          -4.7541   -2.7850   -1.7491 C.ar    1  UNL1       -0.0551
     23 C          -6.0511   -3.0171   -1.2761 C.ar    1  UNL1       -0.0579
     24 C          -6.9700   -2.0009   -1.1981 C.ar    1  UNL1       -0.0193
     25 C          -6.5821   -0.7402   -1.5990 C.ar    1  UNL1        0.1288
     26 O          -7.5213    0.2753   -1.5145 O.3     1  UNL1       -0.4560
     27 C          -7.6255    1.0242   -0.3569 C.ar    1  UNL1        0.1284
     28 C          -8.4739    0.6101    0.6284 C.ar    1  UNL1       -0.0193
     29 C          -8.5906    1.3527    1.8002 C.ar    1  UNL1       -0.0583
     30 C          -7.8177    2.4971    1.8971 C.ar    1  UNL1       -0.0615
     31 C          -6.9636    2.9310    0.9274 C.ar    1  UNL1       -0.0583
     32 C          -6.8727    2.1650   -0.2285 C.ar    1  UNL1       -0.0193
     33 C          -5.3072   -0.5043   -2.0654 C.ar    1  UNL1       -0.0129
     34 C          -0.3457   -1.5529    1.5331 C.3     1  UNL1        0.0323
     35 C           1.1466   -1.3975    1.8280 C.3     1  UNL1        0.0364
     36 C           4.8708    0.5984   -0.6760 C.ar    1  UNL1       -0.0336
     37 C           6.0215    1.3499   -0.5693 C.ar    1  UNL1       -0.0386
     38 H          11.6478    0.8187   -0.9263 H       1  UNL1        0.0536
     39 H          12.6152    2.2359   -0.2117 H       1  UNL1        0.0536
     40 H          10.5895    3.0193    0.8401 H       1  UNL1        0.0663
     41 H           8.0576    2.6626    1.2474 H       1  UNL1        0.1551
     42 H           7.2845   -0.1356    2.2093 H       1  UNL1        0.0637
     43 H           5.1849   -1.4441    1.9422 H       1  UNL1        0.0638
     44 H           1.2732    1.2642    1.3502 H       1  UNL1        0.0459
     45 H           1.9002    1.0180   -0.3519 H       1  UNL1        0.0459
     46 H          -0.1923    0.6120   -1.1124 H       1  UNL1        0.0479
     47 H          -0.8198    1.2203    0.5138 H       1  UNL1        0.0479
     48 H          -2.6069   -2.1770   -3.2163 H       1  UNL1        0.0749
     49 H          -3.0325   -0.4865   -3.4466 H       1  UNL1        0.0749
     50 H          -4.1257   -3.6631   -1.7728 H       1  UNL1        0.0621
     51 H          -6.3575   -4.0160   -0.9588 H       1  UNL1        0.0619
     52 H          -7.9938   -2.1728   -0.8272 H       1  UNL1        0.0654
     53 H          -9.0704   -0.2849    0.5381 H       1  UNL1        0.0654
     54 H          -9.2490    1.0446    2.5819 H       1  UNL1        0.0619
     55 H          -7.9042    3.0857    2.8153 H       1  UNL1        0.0618
     56 H          -6.3552    3.8252    0.9951 H       1  UNL1        0.0619
     57 H          -6.1944    2.4823   -1.0342 H       1  UNL1        0.0654
     58 H          -4.9882    0.4866   -2.3851 H       1  UNL1        0.0658
     59 H          -0.9738   -1.1792    2.3526 H       1  UNL1        0.0479
     60 H          -0.5512   -2.6326    1.4262 H       1  UNL1        0.0479
     61 H           1.2086   -0.8617    2.8204 H       1  UNL1        0.0459
     62 H           1.6303   -2.3823    1.9548 H       1  UNL1        0.0459
     63 H           4.1803    0.8037   -1.4958 H       1  UNL1        0.0638
     64 H           6.2672    2.1368   -1.2680 H       1  UNL1        0.0637
@<TRIPOS>BOND
     1     1     2    2
     2     2     3    1
     3     3     4    2
     4     3     5   am
     5     5     6    1
     6     6     7   ar
     7     7     8   ar
     8     8     9   ar
     9     9    10    1
    10    10    11    2
    11    10    12    2
    12    10    13    1
    13    13    14    1
    14    14    15    1
    15    15    16    1
    16    16    17   am
    17    17    18    2
    18    17    19    1
    19    19    20    1
    20    20    21    1
    21    21    22   ar
    22    22    23   ar
    23    23    24   ar
    24    24    25   ar
    25    25    26    1
    26    26    27    1
    27    27    28   ar
    28    28    29   ar
    29    29    30   ar
    30    30    31   ar
    31    31    32   ar
    32    25    33   ar
    33    16    34    1
    34    34    35    1
    35     9    36   ar
    36    36    37   ar
    37    37     6   ar
    38    35    13    1
    39    33    21   ar
    40    32    27   ar
    41     1    38    1
    42     1    39    1
    43     2    40    1
    44     5    41    1
    45     7    42    1
    46     8    43    1
    47    14    44    1
    48    14    45    1
    49    15    46    1
    50    15    47    1
    51    20    48    1
    52    20    49    1
    53    22    50    1
    54    23    51    1
    55    24    52    1
    56    28    53    1
    57    29    54    1
    58    30    55    1
    59    31    56    1
    60    32    57    1
    61    33    58    1
    62    34    59    1
    63    34    60    1
    64    35    61    1
    65    35    62    1
    66    36    63    1
    67    37    64    1
