
     RDKit          3D

 25 25  0  0  0  0  0  0  0  0999 V2000
   -4.6260   -0.3715   -0.9002 O   0  0  0  0  0  1  0  0  0  0  0  0
   -3.4876    0.1542    0.2367 S   0  0  0  0  0  0  0  0  0  0  0  0
   -3.5999    1.6153    0.5136 O   0  0  0  0  0  0  0  0  0  0  0  0
   -3.8006   -0.5934    1.5009 O   0  0  0  0  0  0  0  0  0  0  0  0
   -1.8322   -0.2524   -0.3349 C   0  0  0  0  0  0  0  0  0  0  0  0
   -0.8917    0.2428    0.7203 C   0  0  0  0  0  0  0  0  0  0  0  0
    0.4972    0.0266    0.4765 N   0  0  0  0  0  4  0  0  0  0  0  0
    0.7135   -1.1490   -0.3358 C   0  0  0  0  0  0  0  0  0  0  0  0
    2.1930   -1.2673   -0.7066 C   0  0  0  0  0  0  0  0  0  0  0  0
    2.4216   -0.1748   -1.5640 O   0  0  0  0  0  0  0  0  0  0  0  0
    2.4384    0.9395   -0.7308 C   0  0  0  0  0  0  0  0  0  0  0  0
    1.1262    1.2106   -0.0467 C   0  0  0  0  0  0  0  0  0  0  0  0
   -1.7546   -1.3618   -0.3807 H   0  0  0  0  0  0  0  0  0  0  0  0
   -1.6775    0.1398   -1.3351 H   0  0  0  0  0  0  0  0  0  0  0  0
   -1.0377    1.3568    0.7992 H   0  0  0  0  0  0  0  0  0  0  0  0
   -1.1792   -0.1855    1.6841 H   0  0  0  0  0  0  0  0  0  0  0  0
    0.9625   -0.1686    1.3918 H   0  0  0  0  0  0  0  0  0  0  0  0
    0.4852   -2.0518    0.2694 H   0  0  0  0  0  0  0  0  0  0  0  0
    0.0881   -1.2000   -1.2358 H   0  0  0  0  0  0  0  0  0  0  0  0
    2.7698   -1.0647    0.2321 H   0  0  0  0  0  0  0  0  0  0  0  0
    2.4092   -2.2351   -1.1433 H   0  0  0  0  0  0  0  0  0  0  0  0
    3.2536    0.8539    0.0119 H   0  0  0  0  0  0  0  0  0  0  0  0
    2.6812    1.8539   -1.3409 H   0  0  0  0  0  0  0  0  0  0  0  0
    0.4958    1.7772   -0.7463 H   0  0  0  0  0  0  0  0  0  0  0  0
    1.3516    1.9055    0.8026 H   0  0  0  0  0  0  0  0  0  0  0  0
  1  2  1  0
  2  3  2  0
  2  4  2  0
  2  5  1  0
  5  6  1  0
  6  7  1  0
  7  8  1  0
  8  9  1  0
  9 10  1  0
 10 11  1  0
 11 12  1  0
 12  7  1  0
  5 13  1  0
  5 14  1  0
  6 15  1  0
  6 16  1  0
  7 17  1  0
  8 18  1  0
  8 19  1  0
  9 20  1  0
  9 21  1  0
 11 22  1  0
 11 23  1  0
 12 24  1  0
 12 25  1  0
M  CHG  2   1  -1   7   1
M  END
$$$$
