
     RDKit          3D

152153  0  0  0  0  0  0  0  0999 V2000
    4.2572   -1.3009    2.7512 C   0  0  0  0  0  0  0  0  0  0  0  0
    2.8805   -0.9105    3.1386 C   0  0  0  0  0  0  0  0  0  0  0  0
    2.4237    0.4541    2.8179 C   0  0  2  0  0  0  0  0  0  0  0  0
    0.9843    0.5897    3.3523 C   0  0  0  0  0  0  0  0  0  0  0  0
    2.4954    0.9254    1.4123 C   0  0  2  0  0  0  0  0  0  0  0  0
    1.7069    0.0076    0.5782 N   0  0  0  0  0  0  0  0  0  0  0  0
    0.4314    0.4183    0.1222 C   0  0  0  0  0  0  0  0  0  0  0  0
    0.0103    1.5448    0.4641 O   0  0  0  0  0  0  0  0  0  0  0  0
   -0.4000   -0.4633   -0.7533 C   0  0  0  0  0  0  0  0  0  0  0  0
   -1.7432    0.1536   -1.0609 C   0  0  2  0  0  0  0  0  0  0  0  0
   -1.4807    1.3687   -1.6694 O   0  0  0  0  0  0  0  0  0  0  0  0
   -2.6023    0.2304    0.1268 C   0  0  2  0  0  0  0  0  0  0  0  0
   -2.8446   -1.1402    0.7649 C   0  0  0  0  0  0  0  0  0  0  0  0
   -3.4950   -2.1272   -0.1299 C   0  0  0  0  0  0  0  0  0  0  0  0
   -3.6395   -3.4211    0.6926 C   0  0  0  0  0  0  0  0  0  0  0  0
   -4.8683   -1.7681   -0.6086 C   0  0  0  0  0  0  0  0  0  0  0  0
   -3.9164    0.8439   -0.1440 N   0  0  0  0  0  0  0  0  0  0  0  0
   -4.5757    1.5992    0.8890 C   0  0  0  0  0  0  0  0  0  0  0  0
   -3.9547    1.6713    1.9809 O   0  0  0  0  0  0  0  0  0  0  0  0
   -5.9012    2.2457    0.6953 C   0  0  2  0  0  0  0  0  0  0  0  0
   -5.6989    3.7256    0.7601 C   0  0  0  0  0  0  0  0  0  0  0  0
   -4.7427    4.1997   -0.3255 C   0  0  0  0  0  0  0  0  0  0  0  0
   -4.5248    5.6442   -0.2788 C   0  0  0  0  0  0  0  0  0  0  0  0
   -3.6677    6.2759   -1.2034 N   0  0  0  0  0  0  0  0  0  0  0  0
   -5.1027    6.3378    0.5889 O   0  0  0  0  0  0  0  0  0  0  0  0
   -6.7809    1.7710    1.7616 N   0  0  0  0  0  0  0  0  0  0  0  0
   -6.3866    2.0282    3.1299 C   0  0  0  0  0  0  0  0  0  0  0  0
   -7.9750    1.0948    1.4997 C   0  0  0  0  0  0  0  0  0  0  0  0
   -8.6511    0.6414    2.4567 O   0  0  0  0  0  0  0  0  0  0  0  0
   -8.5151    0.8687    0.1190 C   0  0  2  0  0  0  0  0  0  0  0  0
   -9.1028    2.2135   -0.2672 C   0  0  0  0  0  0  0  0  0  0  0  0
   -9.6990    2.3246   -1.6128 C   0  0  0  0  0  0  0  0  0  0  0  0
  -10.8460    1.4323   -1.9423 C   0  0  0  0  0  0  0  0  0  0  0  0
   -8.6363    2.3032   -2.7153 C   0  0  0  0  0  0  0  0  0  0  0  0
   -9.6159   -0.0729    0.1523 N   0  0  0  0  0  0  0  0  0  0  0  0
   -9.6909   -1.2136   -0.6529 C   0  0  0  0  0  0  0  0  0  0  0  0
   -8.7680   -1.4756   -1.4622 O   0  0  0  0  0  0  0  0  0  0  0  0
  -10.8210   -2.1659   -0.6171 C   0  0  2  0  0  0  0  0  0  0  0  0
  -11.7866   -1.6925    0.2859 O   0  0  0  0  0  0  0  0  0  0  0  0
  -10.4073   -3.5430   -0.1731 C   0  0  1  0  0  0  0  0  0  0  0  0
   -9.3705   -4.1695   -1.0686 C   0  0  0  0  0  0  0  0  0  0  0  0
   -9.8732   -3.4959    1.2480 C   0  0  0  0  0  0  0  0  0  0  0  0
   -9.4786   -4.8866    1.6327 C   0  0  0  0  0  0  0  0  0  0  0  0
    3.7864    1.1381    0.7724 C   0  0  0  0  0  0  0  0  0  0  0  0
    4.1519    0.4821   -0.2754 O   0  0  0  0  0  0  0  0  0  0  0  0
    4.7817    2.0815    1.2023 N   0  0  0  0  0  0  0  0  0  0  0  0
    6.0149    2.2907    0.5227 C   0  0  0  0  0  0  0  0  0  0  0  0
    6.8869    1.1065    0.4729 C   0  0  0  0  0  0  0  0  0  0  0  0
    6.5656    0.0343    1.0101 O   0  0  0  0  0  0  0  0  0  0  0  0
    8.1617    1.1638   -0.2119 N   0  0  0  0  0  0  0  0  0  0  0  0
    8.4825    2.3838   -0.9023 C   0  0  0  0  0  0  0  0  0  0  0  0
    9.0414    0.0409   -0.1934 C   0  0  2  0  0  0  0  0  0  0  0  0
   10.3018    0.2636    0.5610 C   0  0  0  0  0  0  0  0  0  0  0  0
   11.1815    1.3543    0.1404 C   0  0  0  0  0  0  0  0  0  0  0  0
   11.1188    2.6057    0.7203 C   0  0  0  0  0  0  0  0  0  0  0  0
   11.9666    3.5848    0.3127 C   0  0  0  0  0  0  0  0  0  0  0  0
   12.9013    3.3623   -0.6755 C   0  0  0  0  0  0  0  0  0  0  0  0
   12.9577    2.1276   -1.2408 C   0  0  0  0  0  0  0  0  0  0  0  0
   12.1167    1.1146   -0.8573 C   0  0  0  0  0  0  0  0  0  0  0  0
    9.1630   -0.5895   -1.5219 C   0  0  0  0  0  0  0  0  0  0  0  0
    8.7439    0.1315   -2.4958 O   0  0  0  0  0  0  0  0  0  0  0  0
    9.6663   -1.8613   -1.8230 N   0  0  0  0  0  0  0  0  0  0  0  0
    9.6953   -2.4601   -3.1636 C   0  0  0  0  0  0  0  0  0  0  0  0
    9.5565   -3.9555   -2.9419 C   0  0  0  0  0  0  0  0  0  0  0  0
    9.6408   -4.1722   -1.4613 C   0  0  0  0  0  0  0  0  0  0  0  0
   10.2552   -2.8543   -0.9722 C   0  0  1  0  0  0  0  0  0  0  0  0
   11.7362   -2.9160   -1.1309 C   0  0  0  0  0  0  0  0  0  0  0  0
   12.2392   -2.3437   -2.1287 O   0  0  0  0  0  0  0  0  0  0  0  0
   12.5884   -3.5599   -0.2504 O   0  0  0  0  0  0  0  0  0  0  0  0
   13.9946   -3.5507   -0.5089 C   0  0  0  0  0  0  0  0  0  0  0  0
    4.5653   -2.2841    3.1997 H   0  0  0  0  0  0  0  0  0  0  0  0
    5.0188   -0.5833    3.1405 H   0  0  0  0  0  0  0  0  0  0  0  0
    4.3468   -1.3946    1.6556 H   0  0  0  0  0  0  0  0  0  0  0  0
    2.7927   -1.0282    4.2673 H   0  0  0  0  0  0  0  0  0  0  0  0
    2.1598   -1.6368    2.6738 H   0  0  0  0  0  0  0  0  0  0  0  0
    3.0196    1.1648    3.4643 H   0  0  0  0  0  0  0  0  0  0  0  0
    0.6251    1.6106    3.1542 H   0  0  0  0  0  0  0  0  0  0  0  0
    0.3426   -0.1583    2.8540 H   0  0  0  0  0  0  0  0  0  0  0  0
    0.9715    0.3735    4.4390 H   0  0  0  0  0  0  0  0  0  0  0  0
    1.9264    1.9358    1.4192 H   0  0  0  0  0  0  0  0  0  0  0  0
    2.1107   -0.9230    0.3429 H   0  0  0  0  0  0  0  0  0  0  0  0
    0.1733   -0.6784   -1.6918 H   0  0  0  0  0  0  0  0  0  0  0  0
   -0.4750   -1.4382   -0.2339 H   0  0  0  0  0  0  0  0  0  0  0  0
   -2.1783   -0.5061   -1.8701 H   0  0  0  0  0  0  0  0  0  0  0  0
   -2.0295    1.5080   -2.4776 H   0  0  0  0  0  0  0  0  0  0  0  0
   -2.1475    0.8216    0.9305 H   0  0  0  0  0  0  0  0  0  0  0  0
   -1.9021   -1.5119    1.1385 H   0  0  0  0  0  0  0  0  0  0  0  0
   -3.5074   -0.9469    1.6370 H   0  0  0  0  0  0  0  0  0  0  0  0
   -2.8836   -2.4073   -1.0135 H   0  0  0  0  0  0  0  0  0  0  0  0
   -3.8979   -4.2666    0.0299 H   0  0  0  0  0  0  0  0  0  0  0  0
   -4.5644   -3.2445    1.3070 H   0  0  0  0  0  0  0  0  0  0  0  0
   -2.7975   -3.5673    1.3642 H   0  0  0  0  0  0  0  0  0  0  0  0
   -5.4009   -1.0760    0.1123 H   0  0  0  0  0  0  0  0  0  0  0  0
   -4.9264   -1.4506   -1.6518 H   0  0  0  0  0  0  0  0  0  0  0  0
   -5.4957   -2.7101   -0.5694 H   0  0  0  0  0  0  0  0  0  0  0  0
   -4.4129    0.7782   -1.0386 H   0  0  0  0  0  0  0  0  0  0  0  0
   -6.3390    1.9709   -0.2536 H   0  0  0  0  0  0  0  0  0  0  0  0
   -5.1733    3.9795    1.7299 H   0  0  0  0  0  0  0  0  0  0  0  0
   -6.6061    4.3349    0.7596 H   0  0  0  0  0  0  0  0  0  0  0  0
   -3.7899    3.6058   -0.2853 H   0  0  0  0  0  0  0  0  0  0  0  0
   -5.2077    3.8958   -1.3090 H   0  0  0  0  0  0  0  0  0  0  0  0
   -2.6710    6.4337   -0.9337 H   0  0  0  0  0  0  0  0  0  0  0  0
   -3.9638    6.6014   -2.1451 H   0  0  0  0  0  0  0  0  0  0  0  0
   -7.2636    1.9058    3.8319 H   0  0  0  0  0  0  0  0  0  0  0  0
   -5.6768    1.2136    3.4670 H   0  0  0  0  0  0  0  0  0  0  0  0
   -6.0023    3.0279    3.3117 H   0  0  0  0  0  0  0  0  0  0  0  0
   -7.7887    0.5687   -0.6048 H   0  0  0  0  0  0  0  0  0  0  0  0
   -9.9621    2.3536    0.4720 H   0  0  0  0  0  0  0  0  0  0  0  0
   -8.4342    3.0694   -0.0377 H   0  0  0  0  0  0  0  0  0  0  0  0
  -10.1271    3.3857   -1.6634 H   0  0  0  0  0  0  0  0  0  0  0  0
  -11.6545    1.9866   -2.5230 H   0  0  0  0  0  0  0  0  0  0  0  0
  -10.5586    0.6231   -2.6807 H   0  0  0  0  0  0  0  0  0  0  0  0
  -11.4015    1.0354   -1.0730 H   0  0  0  0  0  0  0  0  0  0  0  0
   -8.7404    1.4499   -3.3927 H   0  0  0  0  0  0  0  0  0  0  0  0
   -7.6110    2.3911   -2.2597 H   0  0  0  0  0  0  0  0  0  0  0  0
   -8.7180    3.2261   -3.3619 H   0  0  0  0  0  0  0  0  0  0  0  0
  -10.3892    0.1215    0.8290 H   0  0  0  0  0  0  0  0  0  0  0  0
  -11.3233   -2.1979   -1.6171 H   0  0  0  0  0  0  0  0  0  0  0  0
  -12.6990   -1.6637   -0.1419 H   0  0  0  0  0  0  0  0  0  0  0  0
  -11.2948   -4.2134   -0.1659 H   0  0  0  0  0  0  0  0  0  0  0  0
   -9.5474   -3.9551   -2.1301 H   0  0  0  0  0  0  0  0  0  0  0  0
   -9.4601   -5.2729   -0.9617 H   0  0  0  0  0  0  0  0  0  0  0  0
   -8.3419   -3.9110   -0.7404 H   0  0  0  0  0  0  0  0  0  0  0  0
  -10.7298   -3.1844    1.8889 H   0  0  0  0  0  0  0  0  0  0  0  0
   -8.9993   -2.8262    1.3141 H   0  0  0  0  0  0  0  0  0  0  0  0
   -9.9893   -5.6337    0.9673 H   0  0  0  0  0  0  0  0  0  0  0  0
   -9.8203   -5.0888    2.6713 H   0  0  0  0  0  0  0  0  0  0  0  0
   -8.3880   -5.0510    1.6069 H   0  0  0  0  0  0  0  0  0  0  0  0
    4.5606    2.6231    2.0600 H   0  0  0  0  0  0  0  0  0  0  0  0
    5.7642    2.6088   -0.5261 H   0  0  0  0  0  0  0  0  0  0  0  0
    6.5634    3.1883    0.9305 H   0  0  0  0  0  0  0  0  0  0  0  0
    7.6217    2.6455   -1.6074 H   0  0  0  0  0  0  0  0  0  0  0  0
    8.5118    3.2357   -0.2058 H   0  0  0  0  0  0  0  0  0  0  0  0
    9.4042    2.2897   -1.5215 H   0  0  0  0  0  0  0  0  0  0  0  0
    8.4762   -0.7553    0.4268 H   0  0  0  0  0  0  0  0  0  0  0  0
   10.0093    0.4932    1.6405 H   0  0  0  0  0  0  0  0  0  0  0  0
   10.8690   -0.6958    0.6702 H   0  0  0  0  0  0  0  0  0  0  0  0
   10.3804    2.7979    1.5044 H   0  0  0  0  0  0  0  0  0  0  0  0
   11.9341    4.5945    0.7595 H   0  0  0  0  0  0  0  0  0  0  0  0
   13.5701    4.1428   -0.9946 H   0  0  0  0  0  0  0  0  0  0  0  0
   13.6983    1.9213   -2.0297 H   0  0  0  0  0  0  0  0  0  0  0  0
   12.2219    0.1735   -1.3526 H   0  0  0  0  0  0  0  0  0  0  0  0
    8.8103   -2.1017   -3.7571 H   0  0  0  0  0  0  0  0  0  0  0  0
   10.5891   -2.2500   -3.7330 H   0  0  0  0  0  0  0  0  0  0  0  0
    8.5403   -4.3182   -3.2746 H   0  0  0  0  0  0  0  0  0  0  0  0
   10.3478   -4.5201   -3.4641 H   0  0  0  0  0  0  0  0  0  0  0  0
    8.6804   -4.3270   -0.9576 H   0  0  0  0  0  0  0  0  0  0  0  0
   10.3964   -4.9757   -1.2064 H   0  0  0  0  0  0  0  0  0  0  0  0
    9.9672   -2.7146    0.0810 H   0  0  0  0  0  0  0  0  0  0  0  0
   14.2847   -4.5356   -0.8960 H   0  0  0  0  0  0  0  0  0  0  0  0
   14.5050   -3.3691    0.4472 H   0  0  0  0  0  0  0  0  0  0  0  0
   14.2091   -2.7836   -1.2935 H   0  0  0  0  0  0  0  0  0  0  0  0
  1  2  1  0
  2  3  1  0
  3  4  1  0
  3  5  1  0
  5  6  1  0
  6  7  1  0
  7  8  2  0
  7  9  1  0
  9 10  1  0
 10 11  1  0
 10 12  1  0
 12 13  1  0
 13 14  1  0
 14 15  1  0
 14 16  1  0
 12 17  1  0
 17 18  1  0
 18 19  2  0
 18 20  1  0
 20 21  1  0
 21 22  1  0
 22 23  1  0
 23 24  1  0
 23 25  2  0
 20 26  1  0
 26 27  1  0
 26 28  1  0
 28 29  2  0
 28 30  1  0
 30 31  1  0
 31 32  1  0
 32 33  1  0
 32 34  1  0
 30 35  1  0
 35 36  1  0
 36 37  2  0
 36 38  1  0
 38 39  1  0
 38 40  1  0
 40 41  1  0
 40 42  1  0
 42 43  1  0
  5 44  1  0
 44 45  2  0
 44 46  1  0
 46 47  1  0
 47 48  1  0
 48 49  2  0
 48 50  1  0
 50 51  1  0
 50 52  1  0
 52 53  1  0
 53 54  1  0
 54 55  2  0
 55 56  1  0
 56 57  2  0
 57 58  1  0
 58 59  2  0
 52 60  1  0
 60 61  2  0
 60 62  1  0
 62 63  1  0
 63 64  1  0
 64 65  1  0
 65 66  1  0
 66 67  1  0
 67 68  2  0
 67 69  1  0
 69 70  1  0
 59 54  1  0
 66 62  1  0
  1 71  1  0
  1 72  1  0
  1 73  1  0
  2 74  1  0
  2 75  1  0
  3 76  1  1
  4 77  1  0
  4 78  1  0
  4 79  1  0
  5 80  1  1
  6 81  1  0
  9 82  1  0
  9 83  1  0
 10 84  1  6
 11 85  1  0
 12 86  1  1
 13 87  1  0
 13 88  1  0
 14 89  1  0
 15 90  1  0
 15 91  1  0
 15 92  1  0
 16 93  1  0
 16 94  1  0
 16 95  1  0
 17 96  1  0
 20 97  1  6
 21 98  1  0
 21 99  1  0
 22100  1  0
 22101  1  0
 24102  1  0
 24103  1  0
 27104  1  0
 27105  1  0
 27106  1  0
 30107  1  6
 31108  1  0
 31109  1  0
 32110  1  0
 33111  1  0
 33112  1  0
 33113  1  0
 34114  1  0
 34115  1  0
 34116  1  0
 35117  1  0
 38118  1  6
 39119  1  0
 40120  1  1
 41121  1  0
 41122  1  0
 41123  1  0
 42124  1  0
 42125  1  0
 43126  1  0
 43127  1  0
 43128  1  0
 46129  1  0
 47130  1  0
 47131  1  0
 51132  1  0
 51133  1  0
 51134  1  0
 52135  1  1
 53136  1  0
 53137  1  0
 55138  1  0
 56139  1  0
 57140  1  0
 58141  1  0
 59142  1  0
 63143  1  0
 63144  1  0
 64145  1  0
 64146  1  0
 65147  1  0
 65148  1  0
 66149  1  1
 70150  1  0
 70151  1  0
 70152  1  0
M  END
$$$$
