@<TRIPOS>MOLECULE
*****
 152 153 0 0 0
SMALL
GASTEIGER

@<TRIPOS>ATOM
      1 C           4.2572   -1.3009    2.7512 C.3     1  UNL1       -0.0650
      2 C           2.8805   -0.9105    3.1386 C.3     1  UNL1       -0.0512
      3 C           2.4237    0.4541    2.8179 C.3     1  UNL1       -0.0171
      4 C           0.9843    0.5897    3.3523 C.3     1  UNL1       -0.0603
      5 C           2.4954    0.9254    1.4123 C.3     1  UNL1        0.1019
      6 N           1.7069    0.0076    0.5782 N.am    1  UNL1       -0.3037
      7 C           0.4314    0.4183    0.1222 C.2     1  UNL1        0.2161
      8 O           0.0103    1.5448    0.4641 O.2     1  UNL1       -0.2757
      9 C          -0.4000   -0.4633   -0.7533 C.3     1  UNL1        0.0517
     10 C          -1.7432    0.1536   -1.0609 C.3     1  UNL1        0.0817
     11 O          -1.4807    1.3687   -1.6694 O.3     1  UNL1       -0.3895
     12 C          -2.6023    0.2304    0.1268 C.3     1  UNL1        0.0498
     13 C          -2.8446   -1.1402    0.7649 C.3     1  UNL1       -0.0297
     14 C          -3.4950   -2.1272   -0.1299 C.3     1  UNL1       -0.0450
     15 C          -3.6395   -3.4211    0.6926 C.3     1  UNL1       -0.0626
     16 C          -4.8683   -1.7681   -0.6086 C.3     1  UNL1       -0.0626
     17 N          -3.9164    0.8439   -0.1440 N.am    1  UNL1       -0.3084
     18 C          -4.5757    1.5992    0.8890 C.2     1  UNL1        0.2339
     19 O          -3.9547    1.6713    1.9809 O.2     1  UNL1       -0.2738
     20 C          -5.9012    2.2457    0.6953 C.3     1  UNL1        0.1023
     21 C          -5.6989    3.7256    0.7601 C.3     1  UNL1       -0.0175
     22 C          -4.7427    4.1997   -0.3255 C.3     1  UNL1        0.0259
     23 C          -4.5248    5.6442   -0.2788 C.2     1  UNL1        0.2106
     24 N          -3.6677    6.2759   -1.2034 N.am    1  UNL1       -0.3293
     25 O          -5.1027    6.3378    0.5889 O.2     1  UNL1       -0.2760
     26 N          -6.7809    1.7710    1.7616 N.am    1  UNL1       -0.2914
     27 C          -6.3866    2.0282    3.1299 C.3     1  UNL1        0.0040
     28 C          -7.9750    1.0948    1.4997 C.2     1  UNL1        0.2363
     29 O          -8.6511    0.6414    2.4567 O.2     1  UNL1       -0.2736
     30 C          -8.5151    0.8687    0.1190 C.3     1  UNL1        0.0999
     31 C          -9.1028    2.2135   -0.2672 C.3     1  UNL1       -0.0236
     32 C          -9.6990    2.3246   -1.6128 C.3     1  UNL1       -0.0446
     33 C         -10.8460    1.4323   -1.9423 C.3     1  UNL1       -0.0626
     34 C          -8.6363    2.3032   -2.7153 C.3     1  UNL1       -0.0626
     35 N          -9.6159   -0.0729    0.1523 N.am    1  UNL1       -0.3019
     36 C          -9.6909   -1.2136   -0.6529 C.2     1  UNL1        0.2425
     37 O          -8.7680   -1.4756   -1.4622 O.2     1  UNL1       -0.2730
     38 C         -10.8210   -2.1659   -0.6171 C.3     1  UNL1        0.1334
     39 O         -11.7866   -1.6925    0.2859 O.3     1  UNL1       -0.3823
     40 C         -10.4073   -3.5430   -0.1731 C.3     1  UNL1       -0.0095
     41 C          -9.3705   -4.1695   -1.0686 C.3     1  UNL1       -0.0596
     42 C          -9.8732   -3.4959    1.2480 C.3     1  UNL1       -0.0505
     43 C          -9.4786   -4.8866    1.6327 C.3     1  UNL1       -0.0649
     44 C           3.7864    1.1381    0.7724 C.2     1  UNL1        0.2340
     45 O           4.1519    0.4821   -0.2754 O.2     1  UNL1       -0.2738
     46 N           4.7817    2.0815    1.2023 N.am    1  UNL1       -0.3052
     47 C           6.0149    2.2907    0.5227 C.3     1  UNL1        0.0884
     48 C           6.8869    1.1065    0.4729 C.2     1  UNL1        0.2331
     49 O           6.5656    0.0343    1.0101 O.2     1  UNL1       -0.2739
     50 N           8.1617    1.1638   -0.2119 N.am    1  UNL1       -0.2914
     51 C           8.4825    2.3838   -0.9023 C.3     1  UNL1        0.0040
     52 C           9.0414    0.0409   -0.1934 C.3     1  UNL1        0.1060
     53 C          10.3018    0.2636    0.5610 C.3     1  UNL1       -0.0005
     54 C          11.1815    1.3543    0.1404 C.ar    1  UNL1       -0.0451
     55 C          11.1188    2.6057    0.7203 C.ar    1  UNL1       -0.0585
     56 C          11.9666    3.5848    0.3127 C.ar    1  UNL1       -0.0615
     57 C          12.9013    3.3623   -0.6755 C.ar    1  UNL1       -0.0617
     58 C          12.9577    2.1276   -1.2408 C.ar    1  UNL1       -0.0615
     59 C          12.1167    1.1146   -0.8573 C.ar    1  UNL1       -0.0585
     60 C           9.1630   -0.5895   -1.5219 C.2     1  UNL1        0.2371
     61 O           8.7439    0.1315   -2.4958 O.2     1  UNL1       -0.2735
     62 N           9.6663   -1.8613   -1.8230 N.am    1  UNL1       -0.2865
     63 C           9.6953   -2.4601   -3.1636 C.3     1  UNL1        0.0157
     64 C           9.5565   -3.9555   -2.9419 C.3     1  UNL1       -0.0349
     65 C           9.6408   -4.1722   -1.4613 C.3     1  UNL1       -0.0225
     66 C          10.2552   -2.8543   -0.9722 C.3     1  UNL1        0.1230
     67 C          11.7362   -2.9160   -1.1309 C.2     1  UNL1        0.3276
     68 O          12.2392   -2.3437   -2.1287 O.2     1  UNL1       -0.2487
     69 O          12.5884   -3.5599   -0.2504 O.3     1  UNL1       -0.4666
     70 C          13.9946   -3.5507   -0.5089 C.3     1  UNL1        0.0817
     71 H           4.5653   -2.2841    3.1997 H       1  UNL1        0.0230
     72 H           5.0188   -0.5833    3.1405 H       1  UNL1        0.0230
     73 H           4.3468   -1.3946    1.6556 H       1  UNL1        0.0230
     74 H           2.7927   -1.0282    4.2673 H       1  UNL1        0.0266
     75 H           2.1598   -1.6368    2.6738 H       1  UNL1        0.0266
     76 H           3.0196    1.1648    3.4643 H       1  UNL1        0.0321
     77 H           0.6251    1.6106    3.1542 H       1  UNL1        0.0233
     78 H           0.3426   -0.1583    2.8540 H       1  UNL1        0.0233
     79 H           0.9715    0.3735    4.4390 H       1  UNL1        0.0233
     80 H           1.9264    1.9358    1.4192 H       1  UNL1        0.0597
     81 H           2.1107   -0.9230    0.3429 H       1  UNL1        0.1495
     82 H           0.1733   -0.6784   -1.6918 H       1  UNL1        0.0384
     83 H          -0.4750   -1.4382   -0.2339 H       1  UNL1        0.0384
     84 H          -2.1783   -0.5061   -1.8701 H       1  UNL1        0.0616
     85 H          -2.0295    1.5080   -2.4776 H       1  UNL1        0.2099
     86 H          -2.1475    0.8216    0.9305 H       1  UNL1        0.0524
     87 H          -1.9021   -1.5119    1.1385 H       1  UNL1        0.0286
     88 H          -3.5074   -0.9469    1.6370 H       1  UNL1        0.0286
     89 H          -2.8836   -2.4073   -1.0135 H       1  UNL1        0.0296
     90 H          -3.8979   -4.2666    0.0299 H       1  UNL1        0.0232
     91 H          -4.5644   -3.2445    1.3070 H       1  UNL1        0.0232
     92 H          -2.7975   -3.5673    1.3642 H       1  UNL1        0.0232
     93 H          -5.4009   -1.0760    0.1123 H       1  UNL1        0.0232
     94 H          -4.9264   -1.4506   -1.6518 H       1  UNL1        0.0232
     95 H          -5.4957   -2.7101   -0.5694 H       1  UNL1        0.0232
     96 H          -4.4129    0.7782   -1.0386 H       1  UNL1        0.1491
     97 H          -6.3390    1.9709   -0.2536 H       1  UNL1        0.0597
     98 H          -5.1733    3.9795    1.7299 H       1  UNL1        0.0292
     99 H          -6.6061    4.3349    0.7596 H       1  UNL1        0.0292
    100 H          -3.7899    3.6058   -0.2853 H       1  UNL1        0.0359
    101 H          -5.2077    3.8958   -1.3090 H       1  UNL1        0.0359
    102 H          -2.6710    6.4337   -0.9337 H       1  UNL1        0.1449
    103 H          -3.9638    6.6014   -2.1451 H       1  UNL1        0.1449
    104 H          -7.2636    1.9058    3.8319 H       1  UNL1        0.0429
    105 H          -5.6768    1.2136    3.4670 H       1  UNL1        0.0429
    106 H          -6.0023    3.0279    3.3117 H       1  UNL1        0.0429
    107 H          -7.7887    0.5687   -0.6048 H       1  UNL1        0.0595
    108 H          -9.9621    2.3536    0.4720 H       1  UNL1        0.0290
    109 H          -8.4342    3.0694   -0.0377 H       1  UNL1        0.0290
    110 H         -10.1271    3.3857   -1.6634 H       1  UNL1        0.0296
    111 H         -11.6545    1.9866   -2.5230 H       1  UNL1        0.0232
    112 H         -10.5586    0.6231   -2.6807 H       1  UNL1        0.0232
    113 H         -11.4015    1.0354   -1.0730 H       1  UNL1        0.0232
    114 H          -8.7404    1.4499   -3.3927 H       1  UNL1        0.0232
    115 H          -7.6110    2.3911   -2.2597 H       1  UNL1        0.0232
    116 H          -8.7180    3.2261   -3.3619 H       1  UNL1        0.0232
    117 H         -10.3892    0.1215    0.8290 H       1  UNL1        0.1495
    118 H         -11.3233   -2.1979   -1.6171 H       1  UNL1        0.0693
    119 H         -12.6990   -1.6637   -0.1419 H       1  UNL1        0.2104
    120 H         -11.2948   -4.2134   -0.1659 H       1  UNL1        0.0328
    121 H          -9.5474   -3.9551   -2.1301 H       1  UNL1        0.0233
    122 H          -9.4601   -5.2729   -0.9617 H       1  UNL1        0.0233
    123 H          -8.3419   -3.9110   -0.7404 H       1  UNL1        0.0233
    124 H         -10.7298   -3.1844    1.8889 H       1  UNL1        0.0266
    125 H          -8.9993   -2.8262    1.3141 H       1  UNL1        0.0266
    126 H          -9.9893   -5.6337    0.9673 H       1  UNL1        0.0230
    127 H          -9.8203   -5.0888    2.6713 H       1  UNL1        0.0230
    128 H          -8.3880   -5.0510    1.6069 H       1  UNL1        0.0230
    129 H           4.5606    2.6231    2.0600 H       1  UNL1        0.1492
    130 H           5.7642    2.6088   -0.5261 H       1  UNL1        0.0558
    131 H           6.5634    3.1883    0.9305 H       1  UNL1        0.0558
    132 H           7.6217    2.6455   -1.6074 H       1  UNL1        0.0429
    133 H           8.5118    3.2357   -0.2058 H       1  UNL1        0.0429
    134 H           9.4042    2.2897   -1.5215 H       1  UNL1        0.0429
    135 H           8.4762   -0.7553    0.4268 H       1  UNL1        0.0600
    136 H          10.0093    0.4932    1.6405 H       1  UNL1        0.0336
    137 H          10.8690   -0.6958    0.6702 H       1  UNL1        0.0336
    138 H          10.3804    2.7979    1.5044 H       1  UNL1        0.0620
    139 H          11.9341    4.5945    0.7595 H       1  UNL1        0.0618
    140 H          13.5701    4.1428   -0.9946 H       1  UNL1        0.0618
    141 H          13.6983    1.9213   -2.0297 H       1  UNL1        0.0618
    142 H          12.2219    0.1735   -1.3526 H       1  UNL1        0.0620
    143 H           8.8103   -2.1017   -3.7571 H       1  UNL1        0.0465
    144 H          10.5891   -2.2500   -3.7330 H       1  UNL1        0.0465
    145 H           8.5403   -4.3182   -3.2746 H       1  UNL1        0.0281
    146 H          10.3478   -4.5201   -3.4641 H       1  UNL1        0.0281
    147 H           8.6804   -4.3270   -0.9576 H       1  UNL1        0.0289
    148 H          10.3964   -4.9757   -1.2064 H       1  UNL1        0.0289
    149 H           9.9672   -2.7146    0.0810 H       1  UNL1        0.0616
    150 H          14.2847   -4.5356   -0.8960 H       1  UNL1        0.0661
    151 H          14.5050   -3.3691    0.4472 H       1  UNL1        0.0661
    152 H          14.2091   -2.7836   -1.2935 H       1  UNL1        0.0661
@<TRIPOS>BOND
     1     1     2    1
     2     2     3    1
     3     3     4    1
     4     3     5    1
     5     5     6    1
     6     6     7   am
     7     7     8    2
     8     7     9    1
     9     9    10    1
    10    10    11    1
    11    10    12    1
    12    12    13    1
    13    13    14    1
    14    14    15    1
    15    14    16    1
    16    12    17    1
    17    17    18   am
    18    18    19    2
    19    18    20    1
    20    20    21    1
    21    21    22    1
    22    22    23    1
    23    23    24   am
    24    23    25    2
    25    20    26    1
    26    26    27    1
    27    26    28   am
    28    28    29    2
    29    28    30    1
    30    30    31    1
    31    31    32    1
    32    32    33    1
    33    32    34    1
    34    30    35    1
    35    35    36   am
    36    36    37    2
    37    36    38    1
    38    38    39    1
    39    38    40    1
    40    40    41    1
    41    40    42    1
    42    42    43    1
    43     5    44    1
    44    44    45    2
    45    44    46   am
    46    46    47    1
    47    47    48    1
    48    48    49    2
    49    48    50   am
    50    50    51    1
    51    50    52    1
    52    52    53    1
    53    53    54    1
    54    54    55   ar
    55    55    56   ar
    56    56    57   ar
    57    57    58   ar
    58    58    59   ar
    59    52    60    1
    60    60    61    2
    61    60    62   am
    62    62    63    1
    63    63    64    1
    64    64    65    1
    65    65    66    1
    66    66    67    1
    67    67    68    2
    68    67    69    1
    69    69    70    1
    70    59    54   ar
    71    66    62    1
    72     1    71    1
    73     1    72    1
    74     1    73    1
    75     2    74    1
    76     2    75    1
    77     3    76    1
    78     4    77    1
    79     4    78    1
    80     4    79    1
    81     5    80    1
    82     6    81    1
    83     9    82    1
    84     9    83    1
    85    10    84    1
    86    11    85    1
    87    12    86    1
    88    13    87    1
    89    13    88    1
    90    14    89    1
    91    15    90    1
    92    15    91    1
    93    15    92    1
    94    16    93    1
    95    16    94    1
    96    16    95    1
    97    17    96    1
    98    20    97    1
    99    21    98    1
   100    21    99    1
   101    22   100    1
   102    22   101    1
   103    24   102    1
   104    24   103    1
   105    27   104    1
   106    27   105    1
   107    27   106    1
   108    30   107    1
   109    31   108    1
   110    31   109    1
   111    32   110    1
   112    33   111    1
   113    33   112    1
   114    33   113    1
   115    34   114    1
   116    34   115    1
   117    34   116    1
   118    35   117    1
   119    38   118    1
   120    39   119    1
   121    40   120    1
   122    41   121    1
   123    41   122    1
   124    41   123    1
   125    42   124    1
   126    42   125    1
   127    43   126    1
   128    43   127    1
   129    43   128    1
   130    46   129    1
   131    47   130    1
   132    47   131    1
   133    51   132    1
   134    51   133    1
   135    51   134    1
   136    52   135    1
   137    53   136    1
   138    53   137    1
   139    55   138    1
   140    56   139    1
   141    57   140    1
   142    58   141    1
   143    59   142    1
   144    63   143    1
   145    63   144    1
   146    64   145    1
   147    64   146    1
   148    65   147    1
   149    65   148    1
   150    66   149    1
   151    70   150    1
   152    70   151    1
   153    70   152    1
