@<TRIPOS>MOLECULE
*****
 41 43 0 0 0
SMALL
GASTEIGER

@<TRIPOS>ATOM
      1 O           8.2853    0.1156   -0.2482 O.2     1  UNL1       -0.2675
      2 C           7.2602    0.7575   -0.5592 C.2     1  UNL1        0.2731
      3 N           7.3584    2.0372   -1.1513 N.am    1  UNL1       -0.1930
      4 O           8.5349    2.6101   -1.4016 O.3     1  UNL1       -0.2949
      5 C           5.9852    0.1158   -0.2782 C.ar    1  UNL1        0.0764
      6 C           5.6806   -1.1129    0.2876 C.ar    1  UNL1       -0.0418
      7 C           4.3814   -1.4182    0.4122 C.ar    1  UNL1       -0.0447
      8 C           3.4364   -0.5735    0.0083 C.ar    1  UNL1        0.0382
      9 C           1.9807   -0.6473    0.0237 C.ar    1  UNL1        0.0775
     10 C           1.3936   -1.7693    0.5362 C.ar    1  UNL1       -0.0349
     11 C           0.0317   -1.8872    0.5732 C.ar    1  UNL1       -0.0539
     12 C          -0.7267   -0.8315    0.0739 C.ar    1  UNL1       -0.0154
     13 C          -2.2112   -0.9967    0.1313 C.3     1  UNL1        0.0230
     14 N          -2.6198   -0.4441    1.4325 N.3     1  UNL1       -0.3080
     15 C          -4.0457   -0.5562    1.5884 C.3     1  UNL1        0.0215
     16 C          -4.7711    0.1743    0.5362 C.ar    1  UNL1       -0.0336
     17 C          -5.1173    1.4977    0.7173 C.ar    1  UNL1       -0.0573
     18 C          -5.7975    2.1780   -0.2727 C.ar    1  UNL1       -0.0615
     19 C          -6.1300    1.5184   -1.4518 C.ar    1  UNL1       -0.0617
     20 C          -5.7917    0.2120   -1.6382 C.ar    1  UNL1       -0.0615
     21 C          -5.1079   -0.4677   -0.6401 C.ar    1  UNL1       -0.0573
     22 C          -0.1232    0.2831   -0.4350 C.ar    1  UNL1        0.0327
     23 N           1.2195    0.3425   -0.4451 N.ar    1  UNL1       -0.2541
     24 S           4.3937    0.7924   -0.6126 S.2     1  UNL1       -0.0821
     25 H           6.4513    2.5155   -1.3848 H       1  UNL1        0.1825
     26 H           9.2508    2.1231   -0.9318 H       1  UNL1        0.2414
     27 H           6.5436   -1.7549    0.5964 H       1  UNL1        0.0631
     28 H           4.0765   -2.4045    0.8656 H       1  UNL1        0.0630
     29 H           1.9686   -2.6044    0.9309 H       1  UNL1        0.0639
     30 H          -0.4252   -2.7798    0.9812 H       1  UNL1        0.0622
     31 H          -2.5327   -2.0351    0.0565 H       1  UNL1        0.0474
     32 H          -2.6473   -0.3225   -0.6390 H       1  UNL1        0.0474
     33 H          -2.3676    0.5544    1.5060 H       1  UNL1        0.1226
     34 H          -4.2877   -0.1676    2.6098 H       1  UNL1        0.0474
     35 H          -4.2940   -1.6407    1.5319 H       1  UNL1        0.0474
     36 H          -4.8640    2.0109    1.6230 H       1  UNL1        0.0621
     37 H          -6.0718    3.2089   -0.1416 H       1  UNL1        0.0618
     38 H          -6.6661    2.0749   -2.2178 H       1  UNL1        0.0618
     39 H          -6.0522   -0.2954   -2.5555 H       1  UNL1        0.0618
     40 H          -4.8349   -1.4968   -0.7728 H       1  UNL1        0.0621
     41 H          -0.7464    1.0839   -0.8143 H       1  UNL1        0.0833
@<TRIPOS>BOND
     1     1     2    2
     2     2     3   am
     3     3     4    1
     4     2     5    1
     5     5     6   ar
     6     6     7   ar
     7     7     8   ar
     8     8     9    1
     9     9    10   ar
    10    10    11   ar
    11    11    12   ar
    12    12    13    1
    13    13    14    1
    14    14    15    1
    15    15    16    1
    16    16    17   ar
    17    17    18   ar
    18    18    19   ar
    19    19    20   ar
    20    20    21   ar
    21    12    22   ar
    22    22    23   ar
    23     8    24   ar
    24    24     5   ar
    25    23     9   ar
    26    21    16   ar
    27     3    25    1
    28     4    26    1
    29     6    27    1
    30     7    28    1
    31    10    29    1
    32    11    30    1
    33    13    31    1
    34    13    32    1
    35    14    33    1
    36    15    34    1
    37    15    35    1
    38    17    36    1
    39    18    37    1
    40    19    38    1
    41    20    39    1
    42    21    40    1
    43    22    41    1
