@<TRIPOS>MOLECULE
*****
 23 23 0 0 0
SMALL
GASTEIGER

@<TRIPOS>ATOM
      1 O          -3.5572   -0.8935    0.2502 O.3     1  UNL1       -0.3925
      2 C          -3.0261    0.3796    0.3527 C.3     1  UNL1        0.0704
      3 C          -1.6119    0.4647   -0.1639 C.3     1  UNL1        0.0822
      4 O          -1.1943    1.7873   -0.0063 O.3     1  UNL1       -0.3892
      5 C          -0.6925   -0.4697    0.5604 C.3     1  UNL1        0.0006
      6 C           0.6850   -0.3757    0.0454 C.ar    1  UNL1       -0.0449
      7 C           1.2264   -1.1319   -0.9971 C.ar    1  UNL1       -0.0585
      8 C           2.5345   -0.9603   -1.3990 C.ar    1  UNL1       -0.0615
      9 C           3.3509   -0.0176   -0.7649 C.ar    1  UNL1       -0.0617
     10 C           2.8241    0.7314    0.2635 C.ar    1  UNL1       -0.0615
     11 C           1.5215    0.5511    0.6537 C.ar    1  UNL1       -0.0585
     12 H          -2.9909   -1.5476   -0.1938 H       1  UNL1        0.2095
     13 H          -3.0881    0.7839    1.3701 H       1  UNL1        0.0583
     14 H          -3.6595    1.0209   -0.3264 H       1  UNL1        0.0583
     15 H          -1.5807    0.1892   -1.2429 H       1  UNL1        0.0619
     16 H          -1.4398    2.0527    0.8952 H       1  UNL1        0.2099
     17 H          -1.0526   -1.5094    0.4441 H       1  UNL1        0.0339
     18 H          -0.7070   -0.2297    1.6301 H       1  UNL1        0.0339
     19 H           0.5511   -1.8451   -1.4512 H       1  UNL1        0.0620
     20 H           2.8527   -1.6048   -2.2236 H       1  UNL1        0.0618
     21 H           4.3427   -0.0020   -1.1908 H       1  UNL1        0.0618
     22 H           3.5020    1.4261    0.6968 H       1  UNL1        0.0618
     23 H           1.2096    1.2007    1.4808 H       1  UNL1        0.0620
@<TRIPOS>BOND
     1     1     2    1
     2     2     3    1
     3     3     4    1
     4     3     5    1
     5     5     6    1
     6     6     7   ar
     7     7     8   ar
     8     8     9   ar
     9     9    10   ar
    10    10    11   ar
    11    11     6   ar
    12     1    12    1
    13     2    13    1
    14     2    14    1
    15     3    15    1
    16     4    16    1
    17     5    17    1
    18     5    18    1
    19     7    19    1
    20     8    20    1
    21     9    21    1
    22    10    22    1
    23    11    23    1
