@<TRIPOS>MOLECULE
*****
 47 52 0 0 0
SMALL
GASTEIGER

@<TRIPOS>ATOM
      1 C           2.1525    0.6032    2.2278 C.3     1  UNL1        0.0125
      2 N           1.8229    0.7885    0.8401 N.ar    1  UNL1       -0.3413
      3 C           2.6697    1.4734    0.0235 C.ar    1  UNL1        0.0499
      4 C           3.8443    2.1705    0.2859 C.ar    1  UNL1       -0.0376
      5 C           4.5783    2.8162   -0.6831 C.ar    1  UNL1       -0.0598
      6 C           4.1253    2.7654   -1.9584 C.ar    1  UNL1       -0.0611
      7 C           2.9588    2.0818   -2.2622 C.ar    1  UNL1       -0.0520
      8 C           2.2249    1.4366   -1.2947 C.ar    1  UNL1        0.0084
      9 C           1.0693    0.7035   -1.2613 C.ar    1  UNL1        0.0220
     10 C           0.2145    0.3040   -2.2955 C.ar    1  UNL1        0.0518
     11 C          -0.8735   -0.4859   -1.9854 C.ar    1  UNL1       -0.0078
     12 C          -1.1056   -0.8609   -0.6927 C.ar    1  UNL1        0.0150
     13 C          -2.1390   -1.6177   -0.1800 C.ar    1  UNL1        0.0080
     14 C          -3.2199   -2.2475   -0.7676 C.ar    1  UNL1       -0.0520
     15 C          -4.0882   -2.9424    0.0428 C.ar    1  UNL1       -0.0611
     16 C          -3.8972   -3.0166    1.4079 C.ar    1  UNL1       -0.0598
     17 C          -2.7980   -2.3678    1.9501 C.ar    1  UNL1       -0.0376
     18 C          -1.9151   -1.6672    1.1638 C.ar    1  UNL1        0.0502
     19 N          -0.7702   -0.9538    1.4689 N.ar    1  UNL1       -0.3372
     20 C          -0.3929   -0.7976    2.8247 C.3     1  UNL1        0.0367
     21 C          -1.2065    0.3882    3.3620 C.3     1  UNL1        0.0527
     22 C          -1.0274    1.5773    2.5971 C.1     1  UNL1        0.0643
     23 N          -0.8868    2.5428    1.9992 N.1     1  UNL1       -0.1965
     24 C          -0.2493   -0.4535    0.3512 C.ar    1  UNL1        0.0749
     25 C           0.8487    0.3280    0.0501 C.ar    1  UNL1        0.0750
     26 C          -1.6712   -0.8314   -3.1915 C.3     1  UNL1        0.0385
     27 N          -0.9929   -0.1604   -4.2490 N.am    1  UNL1       -0.3072
     28 C           0.1711    0.5306   -3.7223 C.2     1  UNL1        0.2453
     29 O           0.9563    1.1848   -4.4144 O.2     1  UNL1       -0.2702
     30 H           1.5929    1.1644    2.9594 H       1  UNL1        0.0456
     31 H           2.3910   -0.4764    2.4385 H       1  UNL1        0.0456
     32 H           3.2118    1.0101    2.4276 H       1  UNL1        0.0456
     33 H           4.2251    2.2262    1.3150 H       1  UNL1        0.0638
     34 H           5.4816    3.3365   -0.3979 H       1  UNL1        0.0618
     35 H           4.6792    3.2652   -2.7592 H       1  UNL1        0.0618
     36 H           2.6859    2.0984   -3.2798 H       1  UNL1        0.0624
     37 H          -3.4151   -2.2231   -1.8165 H       1  UNL1        0.0624
     38 H          -4.9528   -3.4602   -0.3383 H       1  UNL1        0.0618
     39 H          -4.5826   -3.5662    2.0564 H       1  UNL1        0.0618
     40 H          -2.6855   -2.4481    3.0202 H       1  UNL1        0.0638
     41 H          -0.9322   -1.6696    3.4375 H       1  UNL1        0.0502
     42 H           0.5645   -0.8089    3.1901 H       1  UNL1        0.0502
     43 H          -2.2687    0.1055    3.5231 H       1  UNL1        0.0435
     44 H          -0.7926    0.5625    4.3982 H       1  UNL1        0.0435
     45 H          -2.7025   -0.3821   -3.1281 H       1  UNL1        0.0512
     46 H          -1.6883   -1.9175   -3.4018 H       1  UNL1        0.0512
     47 H          -1.2146   -0.1086   -5.2814 H       1  UNL1        0.1493
@<TRIPOS>BOND
     1     1     2    1
     2     2     3   ar
     3     3     4   ar
     4     4     5   ar
     5     5     6   ar
     6     6     7   ar
     7     7     8   ar
     8     8     9   ar
     9     9    10   ar
    10    10    11   ar
    11    11    12   ar
    12    12    13   ar
    13    13    14   ar
    14    14    15   ar
    15    15    16   ar
    16    16    17   ar
    17    17    18   ar
    18    18    19   ar
    19    19    20    1
    20    20    21    1
    21    21    22    1
    22    22    23    3
    23    19    24   ar
    24    24    25   ar
    25    11    26    1
    26    26    27    1
    27    27    28   am
    28    28    29    2
    29    25     2   ar
    30     8     3   ar
    31    25     9   ar
    32    28    10    1
    33    24    12   ar
    34    18    13   ar
    35     1    30    1
    36     1    31    1
    37     1    32    1
    38     4    33    1
    39     5    34    1
    40     6    35    1
    41     7    36    1
    42    14    37    1
    43    15    38    1
    44    16    39    1
    45    17    40    1
    46    20    41    1
    47    20    42    1
    48    21    43    1
    49    21    44    1
    50    26    45    1
    51    26    46    1
    52    27    47    1
