
     RDKit          3D

 47 52  0  0  0  0  0  0  0  0999 V2000
    2.1525    0.6032    2.2278 C   0  0  0  0  0  0  0  0  0  0  0  0
    1.8229    0.7885    0.8401 N   0  0  0  0  0  0  0  0  0  0  0  0
    2.6697    1.4734    0.0235 C   0  0  0  0  0  0  0  0  0  0  0  0
    3.8443    2.1705    0.2859 C   0  0  0  0  0  0  0  0  0  0  0  0
    4.5783    2.8162   -0.6831 C   0  0  0  0  0  0  0  0  0  0  0  0
    4.1253    2.7654   -1.9584 C   0  0  0  0  0  0  0  0  0  0  0  0
    2.9588    2.0818   -2.2622 C   0  0  0  0  0  0  0  0  0  0  0  0
    2.2249    1.4366   -1.2947 C   0  0  0  0  0  0  0  0  0  0  0  0
    1.0693    0.7035   -1.2613 C   0  0  0  0  0  0  0  0  0  0  0  0
    0.2145    0.3040   -2.2955 C   0  0  0  0  0  0  0  0  0  0  0  0
   -0.8735   -0.4859   -1.9854 C   0  0  0  0  0  0  0  0  0  0  0  0
   -1.1056   -0.8609   -0.6927 C   0  0  0  0  0  0  0  0  0  0  0  0
   -2.1390   -1.6177   -0.1800 C   0  0  0  0  0  0  0  0  0  0  0  0
   -3.2199   -2.2475   -0.7676 C   0  0  0  0  0  0  0  0  0  0  0  0
   -4.0882   -2.9424    0.0428 C   0  0  0  0  0  0  0  0  0  0  0  0
   -3.8972   -3.0166    1.4079 C   0  0  0  0  0  0  0  0  0  0  0  0
   -2.7980   -2.3678    1.9501 C   0  0  0  0  0  0  0  0  0  0  0  0
   -1.9151   -1.6672    1.1638 C   0  0  0  0  0  0  0  0  0  0  0  0
   -0.7702   -0.9538    1.4689 N   0  0  0  0  0  0  0  0  0  0  0  0
   -0.3929   -0.7976    2.8247 C   0  0  0  0  0  0  0  0  0  0  0  0
   -1.2065    0.3882    3.3620 C   0  0  0  0  0  0  0  0  0  0  0  0
   -1.0274    1.5773    2.5971 C   0  0  0  0  0  0  0  0  0  0  0  0
   -0.8868    2.5428    1.9992 N   0  0  0  0  0  0  0  0  0  0  0  0
   -0.2493   -0.4535    0.3512 C   0  0  0  0  0  0  0  0  0  0  0  0
    0.8487    0.3280    0.0501 C   0  0  0  0  0  0  0  0  0  0  0  0
   -1.6712   -0.8314   -3.1915 C   0  0  0  0  0  0  0  0  0  0  0  0
   -0.9929   -0.1604   -4.2490 N   0  0  0  0  0  0  0  0  0  0  0  0
    0.1711    0.5306   -3.7223 C   0  0  0  0  0  0  0  0  0  0  0  0
    0.9563    1.1848   -4.4144 O   0  0  0  0  0  0  0  0  0  0  0  0
    1.5929    1.1644    2.9594 H   0  0  0  0  0  0  0  0  0  0  0  0
    2.3910   -0.4764    2.4385 H   0  0  0  0  0  0  0  0  0  0  0  0
    3.2118    1.0101    2.4276 H   0  0  0  0  0  0  0  0  0  0  0  0
    4.2251    2.2262    1.3150 H   0  0  0  0  0  0  0  0  0  0  0  0
    5.4816    3.3365   -0.3979 H   0  0  0  0  0  0  0  0  0  0  0  0
    4.6792    3.2652   -2.7592 H   0  0  0  0  0  0  0  0  0  0  0  0
    2.6859    2.0984   -3.2798 H   0  0  0  0  0  0  0  0  0  0  0  0
   -3.4151   -2.2231   -1.8165 H   0  0  0  0  0  0  0  0  0  0  0  0
   -4.9528   -3.4602   -0.3383 H   0  0  0  0  0  0  0  0  0  0  0  0
   -4.5826   -3.5662    2.0564 H   0  0  0  0  0  0  0  0  0  0  0  0
   -2.6855   -2.4481    3.0202 H   0  0  0  0  0  0  0  0  0  0  0  0
   -0.9322   -1.6696    3.4375 H   0  0  0  0  0  0  0  0  0  0  0  0
    0.5645   -0.8089    3.1901 H   0  0  0  0  0  0  0  0  0  0  0  0
   -2.2687    0.1055    3.5231 H   0  0  0  0  0  0  0  0  0  0  0  0
   -0.7926    0.5625    4.3982 H   0  0  0  0  0  0  0  0  0  0  0  0
   -2.7025   -0.3821   -3.1281 H   0  0  0  0  0  0  0  0  0  0  0  0
   -1.6883   -1.9175   -3.4018 H   0  0  0  0  0  0  0  0  0  0  0  0
   -1.2146   -0.1086   -5.2814 H   0  0  0  0  0  0  0  0  0  0  0  0
  1  2  1  0
  2  3  1  0
  3  4  2  0
  4  5  1  0
  5  6  2  0
  6  7  1  0
  7  8  2  0
  8  9  1  0
  9 10  2  0
 10 11  1  0
 11 12  2  0
 12 13  1  0
 13 14  2  0
 14 15  1  0
 15 16  2  0
 16 17  1  0
 17 18  2  0
 18 19  1  0
 19 20  1  0
 20 21  1  0
 21 22  1  0
 22 23  3  0
 19 24  1  0
 24 25  2  0
 11 26  1  0
 26 27  1  0
 27 28  1  0
 28 29  2  0
 25  2  1  0
  8  3  1  0
 25  9  1  0
 28 10  1  0
 24 12  1  0
 18 13  1  0
  1 30  1  0
  1 31  1  0
  1 32  1  0
  4 33  1  0
  5 34  1  0
  6 35  1  0
  7 36  1  0
 14 37  1  0
 15 38  1  0
 16 39  1  0
 17 40  1  0
 20 41  1  0
 20 42  1  0
 21 43  1  0
 21 44  1  0
 26 45  1  0
 26 46  1  0
 27 47  1  0
M  END
$$$$
