@<TRIPOS>MOLECULE
*****
 57 59 0 0 0
SMALL
GASTEIGER

@<TRIPOS>ATOM
      1 C           0.0771   -2.4463   -0.9771 C.3     1  UNL1       -0.0560
      2 C          -0.8734   -2.0448    0.0915 C.3     1  UNL1       -0.0109
      3 C          -0.2887   -2.1283    1.4902 C.3     1  UNL1       -0.0560
      4 C          -2.0693   -3.0072    0.0331 C.3     1  UNL1       -0.0560
      5 C          -1.4370   -0.6688   -0.0645 C.ar    1  UNL1       -0.0203
      6 C          -2.8203   -0.4827   -0.1952 C.ar    1  UNL1       -0.0492
      7 C          -3.4674    0.7241   -0.3466 C.ar    1  UNL1       -0.0002
      8 C          -2.6839    1.8584   -0.3725 C.ar    1  UNL1        0.1223
      9 O          -3.3125    3.0852   -0.5240 O.3     1  UNL1       -0.5064
     10 C          -1.3162    1.7013   -0.2454 C.ar    1  UNL1        0.0016
     11 C          -0.6615    0.4966   -0.0935 C.ar    1  UNL1        0.0408
     12 N           0.7396    0.3834    0.0339 N.am    1  UNL1       -0.2810
     13 C           1.7743    1.3347    0.0397 C.2     1  UNL1        0.2534
     14 O           1.3838    2.5290   -0.0951 O.2     1  UNL1       -0.2697
     15 C           3.2005    1.1252    0.1774 C.ar    1  UNL1        0.1001
     16 C           4.0445    2.2423    0.1531 C.ar    1  UNL1        0.0180
     17 N           5.3652    2.2068    0.2671 N.ar    1  UNL1       -0.3597
     18 C           5.9963    1.0350    0.4202 C.ar    1  UNL1        0.0501
     19 C           7.3682    0.9776    0.5404 C.ar    1  UNL1       -0.0377
     20 C           8.0354   -0.2322    0.6997 C.ar    1  UNL1       -0.0598
     21 C           7.2655   -1.3981    0.7345 C.ar    1  UNL1       -0.0610
     22 C           5.8936   -1.3221    0.6127 C.ar    1  UNL1       -0.0489
     23 C           5.2664   -0.1187    0.4572 C.ar    1  UNL1        0.0457
     24 C           3.8986   -0.0316    0.3348 C.ar    1  UNL1        0.2015
     25 O           3.2792   -1.0994    0.3738 O.2     1  UNL1       -0.2864
     26 C          -4.9395    0.8312   -0.4783 C.3     1  UNL1       -0.0092
     27 C          -5.4316    1.6869    0.6790 C.3     1  UNL1       -0.0559
     28 C          -5.3812    1.4738   -1.7502 C.3     1  UNL1       -0.0559
     29 C          -5.5879   -0.5187   -0.3805 C.3     1  UNL1       -0.0559
     30 H          -0.3443   -3.3155   -1.5410 H       1  UNL1        0.0238
     31 H           1.0186   -2.8431   -0.5403 H       1  UNL1        0.0238
     32 H           0.2304   -1.6688   -1.7543 H       1  UNL1        0.0238
     33 H          -0.8865   -2.8516    2.1219 H       1  UNL1        0.0238
     34 H          -0.2448   -1.1416    1.9905 H       1  UNL1        0.0238
     35 H           0.7210   -2.5370    1.4079 H       1  UNL1        0.0238
     36 H          -1.6748   -4.0509    0.0751 H       1  UNL1        0.0238
     37 H          -2.5675   -2.9275   -0.9506 H       1  UNL1        0.0238
     38 H          -2.7405   -2.8379    0.8933 H       1  UNL1        0.0238
     39 H          -3.5138   -1.3290   -0.1847 H       1  UNL1        0.0625
     40 H          -2.7793    3.9092   -0.2719 H       1  UNL1        0.2921
     41 H          -0.8111    2.6487   -0.2794 H       1  UNL1        0.0673
     42 H           1.1365   -0.5682    0.1497 H       1  UNL1        0.1551
     43 H           3.6478    3.2533    0.0334 H       1  UNL1        0.0816
     44 H           5.9690    3.0419    0.2466 H       1  UNL1        0.1654
     45 H           7.9323    1.8991    0.5092 H       1  UNL1        0.0638
     46 H           9.1229   -0.2498    0.7927 H       1  UNL1        0.0618
     47 H           7.7570   -2.3531    0.8573 H       1  UNL1        0.0618
     48 H           5.3293   -2.2497    0.6443 H       1  UNL1        0.0625
     49 H          -4.7201    1.6204    1.5468 H       1  UNL1        0.0238
     50 H          -5.4424    2.7552    0.3806 H       1  UNL1        0.0238
     51 H          -6.4077    1.3289    1.0625 H       1  UNL1        0.0238
     52 H          -4.8108    1.1132   -2.6423 H       1  UNL1        0.0238
     53 H          -6.4305    1.1138   -1.9557 H       1  UNL1        0.0238
     54 H          -5.4835    2.5733   -1.7067 H       1  UNL1        0.0238
     55 H          -6.6938   -0.3836   -0.4592 H       1  UNL1        0.0238
     56 H          -5.3692   -0.9969    0.6056 H       1  UNL1        0.0238
     57 H          -5.2621   -1.1451   -1.2263 H       1  UNL1        0.0238
@<TRIPOS>BOND
     1     1     2    1
     2     2     3    1
     3     2     4    1
     4     2     5    1
     5     5     6   ar
     6     6     7   ar
     7     7     8   ar
     8     8     9    1
     9     8    10   ar
    10    10    11   ar
    11    11    12    1
    12    12    13   am
    13    13    14    2
    14    13    15    1
    15    15    16   ar
    16    16    17   ar
    17    17    18   ar
    18    18    19   ar
    19    19    20   ar
    20    20    21   ar
    21    21    22   ar
    22    22    23   ar
    23    23    24   ar
    24    24    25    2
    25     7    26    1
    26    26    27    1
    27    26    28    1
    28    26    29    1
    29    11     5   ar
    30    24    15   ar
    31    23    18   ar
    32     1    30    1
    33     1    31    1
    34     1    32    1
    35     3    33    1
    36     3    34    1
    37     3    35    1
    38     4    36    1
    39     4    37    1
    40     4    38    1
    41     6    39    1
    42     9    40    1
    43    10    41    1
    44    12    42    1
    45    16    43    1
    46    17    44    1
    47    19    45    1
    48    20    46    1
    49    21    47    1
    50    22    48    1
    51    27    49    1
    52    27    50    1
    53    27    51    1
    54    28    52    1
    55    28    53    1
    56    28    54    1
    57    29    55    1
    58    29    56    1
    59    29    57    1
