
     RDKit          3D

 57 59  0  0  0  0  0  0  0  0999 V2000
    0.0771   -2.4463   -0.9771 C   0  0  0  0  0  0  0  0  0  0  0  0
   -0.8734   -2.0448    0.0915 C   0  0  0  0  0  0  0  0  0  0  0  0
   -0.2887   -2.1283    1.4902 C   0  0  0  0  0  0  0  0  0  0  0  0
   -2.0693   -3.0072    0.0331 C   0  0  0  0  0  0  0  0  0  0  0  0
   -1.4370   -0.6688   -0.0645 C   0  0  0  0  0  0  0  0  0  0  0  0
   -2.8203   -0.4827   -0.1952 C   0  0  0  0  0  0  0  0  0  0  0  0
   -3.4674    0.7241   -0.3466 C   0  0  0  0  0  0  0  0  0  0  0  0
   -2.6839    1.8584   -0.3725 C   0  0  0  0  0  0  0  0  0  0  0  0
   -3.3125    3.0852   -0.5240 O   0  0  0  0  0  0  0  0  0  0  0  0
   -1.3162    1.7013   -0.2454 C   0  0  0  0  0  0  0  0  0  0  0  0
   -0.6615    0.4966   -0.0935 C   0  0  0  0  0  0  0  0  0  0  0  0
    0.7396    0.3834    0.0339 N   0  0  0  0  0  0  0  0  0  0  0  0
    1.7743    1.3347    0.0397 C   0  0  0  0  0  0  0  0  0  0  0  0
    1.3838    2.5290   -0.0951 O   0  0  0  0  0  0  0  0  0  0  0  0
    3.2005    1.1252    0.1774 C   0  0  0  0  0  0  0  0  0  0  0  0
    4.0445    2.2423    0.1531 C   0  0  0  0  0  0  0  0  0  0  0  0
    5.3652    2.2068    0.2671 N   0  0  0  0  0  0  0  0  0  0  0  0
    5.9963    1.0350    0.4202 C   0  0  0  0  0  0  0  0  0  0  0  0
    7.3682    0.9776    0.5404 C   0  0  0  0  0  0  0  0  0  0  0  0
    8.0354   -0.2322    0.6997 C   0  0  0  0  0  0  0  0  0  0  0  0
    7.2655   -1.3981    0.7345 C   0  0  0  0  0  0  0  0  0  0  0  0
    5.8936   -1.3221    0.6127 C   0  0  0  0  0  0  0  0  0  0  0  0
    5.2664   -0.1187    0.4572 C   0  0  0  0  0  0  0  0  0  0  0  0
    3.8986   -0.0316    0.3348 C   0  0  0  0  0  0  0  0  0  0  0  0
    3.2792   -1.0994    0.3738 O   0  0  0  0  0  0  0  0  0  0  0  0
   -4.9395    0.8312   -0.4783 C   0  0  0  0  0  0  0  0  0  0  0  0
   -5.4316    1.6869    0.6790 C   0  0  0  0  0  0  0  0  0  0  0  0
   -5.3812    1.4738   -1.7502 C   0  0  0  0  0  0  0  0  0  0  0  0
   -5.5879   -0.5187   -0.3805 C   0  0  0  0  0  0  0  0  0  0  0  0
   -0.3443   -3.3155   -1.5410 H   0  0  0  0  0  0  0  0  0  0  0  0
    1.0186   -2.8431   -0.5403 H   0  0  0  0  0  0  0  0  0  0  0  0
    0.2304   -1.6688   -1.7543 H   0  0  0  0  0  0  0  0  0  0  0  0
   -0.8865   -2.8516    2.1219 H   0  0  0  0  0  0  0  0  0  0  0  0
   -0.2448   -1.1416    1.9905 H   0  0  0  0  0  0  0  0  0  0  0  0
    0.7210   -2.5370    1.4079 H   0  0  0  0  0  0  0  0  0  0  0  0
   -1.6748   -4.0509    0.0751 H   0  0  0  0  0  0  0  0  0  0  0  0
   -2.5675   -2.9275   -0.9506 H   0  0  0  0  0  0  0  0  0  0  0  0
   -2.7405   -2.8379    0.8933 H   0  0  0  0  0  0  0  0  0  0  0  0
   -3.5138   -1.3290   -0.1847 H   0  0  0  0  0  0  0  0  0  0  0  0
   -2.7793    3.9092   -0.2719 H   0  0  0  0  0  0  0  0  0  0  0  0
   -0.8111    2.6487   -0.2794 H   0  0  0  0  0  0  0  0  0  0  0  0
    1.1365   -0.5682    0.1497 H   0  0  0  0  0  0  0  0  0  0  0  0
    3.6478    3.2533    0.0334 H   0  0  0  0  0  0  0  0  0  0  0  0
    5.9690    3.0419    0.2466 H   0  0  0  0  0  0  0  0  0  0  0  0
    7.9323    1.8991    0.5092 H   0  0  0  0  0  0  0  0  0  0  0  0
    9.1229   -0.2498    0.7927 H   0  0  0  0  0  0  0  0  0  0  0  0
    7.7570   -2.3531    0.8573 H   0  0  0  0  0  0  0  0  0  0  0  0
    5.3293   -2.2497    0.6443 H   0  0  0  0  0  0  0  0  0  0  0  0
   -4.7201    1.6204    1.5468 H   0  0  0  0  0  0  0  0  0  0  0  0
   -5.4424    2.7552    0.3806 H   0  0  0  0  0  0  0  0  0  0  0  0
   -6.4077    1.3289    1.0625 H   0  0  0  0  0  0  0  0  0  0  0  0
   -4.8108    1.1132   -2.6423 H   0  0  0  0  0  0  0  0  0  0  0  0
   -6.4305    1.1138   -1.9557 H   0  0  0  0  0  0  0  0  0  0  0  0
   -5.4835    2.5733   -1.7067 H   0  0  0  0  0  0  0  0  0  0  0  0
   -6.6938   -0.3836   -0.4592 H   0  0  0  0  0  0  0  0  0  0  0  0
   -5.3692   -0.9969    0.6056 H   0  0  0  0  0  0  0  0  0  0  0  0
   -5.2621   -1.1451   -1.2263 H   0  0  0  0  0  0  0  0  0  0  0  0
  1  2  1  0
  2  3  1  0
  2  4  1  0
  2  5  1  0
  5  6  2  0
  6  7  1  0
  7  8  2  0
  8  9  1  0
  8 10  1  0
 10 11  2  0
 11 12  1  0
 12 13  1  0
 13 14  2  0
 13 15  1  0
 15 16  2  0
 16 17  1  0
 17 18  1  0
 18 19  2  0
 19 20  1  0
 20 21  2  0
 21 22  1  0
 22 23  2  0
 23 24  1  0
 24 25  2  0
  7 26  1  0
 26 27  1  0
 26 28  1  0
 26 29  1  0
 11  5  1  0
 24 15  1  0
 23 18  1  0
  1 30  1  0
  1 31  1  0
  1 32  1  0
  3 33  1  0
  3 34  1  0
  3 35  1  0
  4 36  1  0
  4 37  1  0
  4 38  1  0
  6 39  1  0
  9 40  1  0
 10 41  1  0
 12 42  1  0
 16 43  1  0
 17 44  1  0
 19 45  1  0
 20 46  1  0
 21 47  1  0
 22 48  1  0
 27 49  1  0
 27 50  1  0
 27 51  1  0
 28 52  1  0
 28 53  1  0
 28 54  1  0
 29 55  1  0
 29 56  1  0
 29 57  1  0
M  END
$$$$
