@<TRIPOS>MOLECULE
*****
 58 61 0 0 0
SMALL
GASTEIGER

@<TRIPOS>ATOM
      1 C           1.7175    0.5032   -0.0368 C.3     1  UNL1        0.0266
      2 C           2.2369   -0.3601    1.0904 C.3     1  UNL1       -0.0337
      3 C           3.6767   -0.7332    0.9136 C.3     1  UNL1       -0.0445
      4 C           4.0588   -1.0607   -0.4959 C.3     1  UNL1       -0.0143
      5 C           3.4180   -0.2027   -1.5459 C.3     1  UNL1       -0.0445
      6 C           1.9195   -0.2264   -1.3180 C.3     1  UNL1       -0.0337
      7 C           5.5529   -1.0966   -0.6602 C.ar    1  UNL1       -0.0262
      8 C           6.3570   -2.1730   -0.9668 C.ar    1  UNL1       -0.0554
      9 C           7.7335   -1.9332   -1.0598 C.ar    1  UNL1       -0.0433
     10 C           8.2299   -0.6698   -0.8494 C.ar    1  UNL1        0.0276
     11 N           7.4195    0.3799   -0.5475 N.ar    1  UNL1       -0.2630
     12 C           6.0754    0.1700   -0.4516 C.ar    1  UNL1        0.0310
     13 N           0.4220    1.0620    0.1875 N.am    1  UNL1       -0.2914
     14 C           0.2399    2.4962    0.3801 C.3     1  UNL1        0.0267
     15 C          -1.0249    3.1882    0.1608 C.3     1  UNL1       -0.0326
     16 C          -0.5899    2.9418    1.5818 C.3     1  UNL1       -0.0326
     17 C          -0.6136    0.1180    0.2116 C.2     1  UNL1        0.2471
     18 O          -0.3831   -1.1049    0.0477 O.2     1  UNL1       -0.2700
     19 C          -2.0521   -0.0025    0.3757 C.ar    1  UNL1        0.0369
     20 C          -2.7728   -0.1405    1.5337 C.ar    1  UNL1       -0.0493
     21 C          -4.1476   -0.2387    1.5282 C.ar    1  UNL1       -0.0549
     22 C          -4.8166   -0.1980    0.3375 C.ar    1  UNL1       -0.0077
     23 C          -4.1931   -0.0631   -0.8732 C.ar    1  UNL1       -0.0549
     24 C          -2.7988    0.0321   -0.8084 C.ar    1  UNL1       -0.0493
     25 C          -6.2865   -0.3040    0.3739 C.3     1  UNL1        0.1828
     26 C          -6.8632   -0.2159   -1.0399 C.3     1  UNL1       -0.0233
     27 O          -6.8680    0.7300    1.1072 O.3     1  UNL1       -0.3758
     28 C          -6.7406   -1.6439    0.9338 C.3     1  UNL1        0.4221
     29 F          -6.2802   -1.8155    2.2113 F       1  UNL1       -0.1673
     30 F          -8.1370   -1.5706    1.0031 F       1  UNL1       -0.1673
     31 F          -6.3661   -2.6559    0.0742 F       1  UNL1       -0.1673
     32 H           2.4292    1.3864   -0.0422 H       1  UNL1        0.0501
     33 H           2.0769    0.1090    2.0797 H       1  UNL1        0.0283
     34 H           1.6620   -1.3044    1.0794 H       1  UNL1        0.0283
     35 H           3.9194   -1.5554    1.6160 H       1  UNL1        0.0272
     36 H           4.2785    0.1435    1.2288 H       1  UNL1        0.0272
     37 H           3.7058   -2.0981   -0.6738 H       1  UNL1        0.0349
     38 H           3.7979    0.8430   -1.3446 H       1  UNL1        0.0272
     39 H           3.6944   -0.4945   -2.5612 H       1  UNL1        0.0272
     40 H           1.6440   -1.3164   -1.2515 H       1  UNL1        0.0283
     41 H           1.3980    0.2374   -2.1858 H       1  UNL1        0.0283
     42 H           5.8118   -3.0917   -1.1010 H       1  UNL1        0.0621
     43 H           8.3113   -2.8034   -1.3004 H       1  UNL1        0.0633
     44 H           9.2886   -0.5072   -0.9256 H       1  UNL1        0.0829
     45 H           5.5515    1.0802   -0.2098 H       1  UNL1        0.0832
     46 H           1.1825    3.1226    0.3142 H       1  UNL1        0.0501
     47 H          -1.9352    2.7187   -0.2160 H       1  UNL1        0.0284
     48 H          -0.9759    4.2744   -0.1262 H       1  UNL1        0.0284
     49 H          -1.2089    2.2021    2.1233 H       1  UNL1        0.0284
     50 H          -0.2410    3.7840    2.2014 H       1  UNL1        0.0284
     51 H          -2.1443   -0.1620    2.4253 H       1  UNL1        0.0625
     52 H          -4.5621   -0.3409    2.5192 H       1  UNL1        0.0621
     53 H          -4.6949   -0.0283   -1.8198 H       1  UNL1        0.0621
     54 H          -2.3024    0.1398   -1.7647 H       1  UNL1        0.0625
     55 H          -6.5633    0.7237   -1.5270 H       1  UNL1        0.0263
     56 H          -7.9838   -0.2279   -0.9719 H       1  UNL1        0.0263
     57 H          -6.5543   -1.0657   -1.6479 H       1  UNL1        0.0263
     58 H          -7.7089    1.0190    0.6838 H       1  UNL1        0.2110
@<TRIPOS>BOND
     1     1     2    1
     2     2     3    1
     3     3     4    1
     4     4     5    1
     5     5     6    1
     6     4     7    1
     7     7     8   ar
     8     8     9   ar
     9     9    10   ar
    10    10    11   ar
    11    11    12   ar
    12     1    13    1
    13    13    14    1
    14    14    15    1
    15    15    16    1
    16    13    17   am
    17    17    18    2
    18    17    19    1
    19    19    20   ar
    20    20    21   ar
    21    21    22   ar
    22    22    23   ar
    23    23    24   ar
    24    22    25    1
    25    25    26    1
    26    25    27    1
    27    25    28    1
    28    28    29    1
    29    28    30    1
    30    28    31    1
    31     6     1    1
    32    12     7   ar
    33    16    14    1
    34    24    19   ar
    35     1    32    1
    36     2    33    1
    37     2    34    1
    38     3    35    1
    39     3    36    1
    40     4    37    1
    41     5    38    1
    42     5    39    1
    43     6    40    1
    44     6    41    1
    45     8    42    1
    46     9    43    1
    47    10    44    1
    48    12    45    1
    49    14    46    1
    50    15    47    1
    51    15    48    1
    52    16    49    1
    53    16    50    1
    54    20    51    1
    55    21    52    1
    56    23    53    1
    57    24    54    1
    58    26    55    1
    59    26    56    1
    60    26    57    1
    61    27    58    1
