
     RDKit          3D

 58 61  0  0  0  0  0  0  0  0999 V2000
    1.7175    0.5032   -0.0368 C   0  0  1  0  0  0  0  0  0  0  0  0
    2.2369   -0.3601    1.0904 C   0  0  0  0  0  0  0  0  0  0  0  0
    3.6767   -0.7332    0.9136 C   0  0  0  0  0  0  0  0  0  0  0  0
    4.0588   -1.0607   -0.4959 C   0  0  1  0  0  0  0  0  0  0  0  0
    3.4180   -0.2027   -1.5459 C   0  0  0  0  0  0  0  0  0  0  0  0
    1.9195   -0.2264   -1.3180 C   0  0  0  0  0  0  0  0  0  0  0  0
    5.5529   -1.0966   -0.6602 C   0  0  0  0  0  0  0  0  0  0  0  0
    6.3570   -2.1730   -0.9668 C   0  0  0  0  0  0  0  0  0  0  0  0
    7.7335   -1.9332   -1.0598 C   0  0  0  0  0  0  0  0  0  0  0  0
    8.2299   -0.6698   -0.8494 C   0  0  0  0  0  0  0  0  0  0  0  0
    7.4195    0.3799   -0.5475 N   0  0  0  0  0  0  0  0  0  0  0  0
    6.0754    0.1700   -0.4516 C   0  0  0  0  0  0  0  0  0  0  0  0
    0.4220    1.0620    0.1875 N   0  0  0  0  0  0  0  0  0  0  0  0
    0.2399    2.4962    0.3801 C   0  0  0  0  0  0  0  0  0  0  0  0
   -1.0249    3.1882    0.1608 C   0  0  0  0  0  0  0  0  0  0  0  0
   -0.5899    2.9418    1.5818 C   0  0  0  0  0  0  0  0  0  0  0  0
   -0.6136    0.1180    0.2116 C   0  0  0  0  0  0  0  0  0  0  0  0
   -0.3831   -1.1049    0.0477 O   0  0  0  0  0  0  0  0  0  0  0  0
   -2.0521   -0.0025    0.3757 C   0  0  0  0  0  0  0  0  0  0  0  0
   -2.7728   -0.1405    1.5337 C   0  0  0  0  0  0  0  0  0  0  0  0
   -4.1476   -0.2387    1.5282 C   0  0  0  0  0  0  0  0  0  0  0  0
   -4.8166   -0.1980    0.3375 C   0  0  0  0  0  0  0  0  0  0  0  0
   -4.1931   -0.0631   -0.8732 C   0  0  0  0  0  0  0  0  0  0  0  0
   -2.7988    0.0321   -0.8084 C   0  0  0  0  0  0  0  0  0  0  0  0
   -6.2865   -0.3040    0.3739 C   0  0  2  0  0  0  0  0  0  0  0  0
   -6.8632   -0.2159   -1.0399 C   0  0  0  0  0  0  0  0  0  0  0  0
   -6.8680    0.7300    1.1072 O   0  0  0  0  0  0  0  0  0  0  0  0
   -6.7406   -1.6439    0.9338 C   0  0  0  0  0  0  0  0  0  0  0  0
   -6.2802   -1.8155    2.2113 F   0  0  0  0  0  0  0  0  0  0  0  0
   -8.1370   -1.5706    1.0031 F   0  0  0  0  0  0  0  0  0  0  0  0
   -6.3661   -2.6559    0.0742 F   0  0  0  0  0  0  0  0  0  0  0  0
    2.4292    1.3864   -0.0422 H   0  0  0  0  0  0  0  0  0  0  0  0
    2.0769    0.1090    2.0797 H   0  0  0  0  0  0  0  0  0  0  0  0
    1.6620   -1.3044    1.0794 H   0  0  0  0  0  0  0  0  0  0  0  0
    3.9194   -1.5554    1.6160 H   0  0  0  0  0  0  0  0  0  0  0  0
    4.2785    0.1435    1.2288 H   0  0  0  0  0  0  0  0  0  0  0  0
    3.7058   -2.0981   -0.6738 H   0  0  0  0  0  0  0  0  0  0  0  0
    3.7979    0.8430   -1.3446 H   0  0  0  0  0  0  0  0  0  0  0  0
    3.6944   -0.4945   -2.5612 H   0  0  0  0  0  0  0  0  0  0  0  0
    1.6440   -1.3164   -1.2515 H   0  0  0  0  0  0  0  0  0  0  0  0
    1.3980    0.2374   -2.1858 H   0  0  0  0  0  0  0  0  0  0  0  0
    5.8118   -3.0917   -1.1010 H   0  0  0  0  0  0  0  0  0  0  0  0
    8.3113   -2.8034   -1.3004 H   0  0  0  0  0  0  0  0  0  0  0  0
    9.2886   -0.5072   -0.9256 H   0  0  0  0  0  0  0  0  0  0  0  0
    5.5515    1.0802   -0.2098 H   0  0  0  0  0  0  0  0  0  0  0  0
    1.1825    3.1226    0.3142 H   0  0  0  0  0  0  0  0  0  0  0  0
   -1.9352    2.7187   -0.2160 H   0  0  0  0  0  0  0  0  0  0  0  0
   -0.9759    4.2744   -0.1262 H   0  0  0  0  0  0  0  0  0  0  0  0
   -1.2089    2.2021    2.1233 H   0  0  0  0  0  0  0  0  0  0  0  0
   -0.2410    3.7840    2.2014 H   0  0  0  0  0  0  0  0  0  0  0  0
   -2.1443   -0.1620    2.4253 H   0  0  0  0  0  0  0  0  0  0  0  0
   -4.5621   -0.3409    2.5192 H   0  0  0  0  0  0  0  0  0  0  0  0
   -4.6949   -0.0283   -1.8198 H   0  0  0  0  0  0  0  0  0  0  0  0
   -2.3024    0.1398   -1.7647 H   0  0  0  0  0  0  0  0  0  0  0  0
   -6.5633    0.7237   -1.5270 H   0  0  0  0  0  0  0  0  0  0  0  0
   -7.9838   -0.2279   -0.9719 H   0  0  0  0  0  0  0  0  0  0  0  0
   -6.5543   -1.0657   -1.6479 H   0  0  0  0  0  0  0  0  0  0  0  0
   -7.7089    1.0190    0.6838 H   0  0  0  0  0  0  0  0  0  0  0  0
  1  2  1  0
  2  3  1  0
  3  4  1  0
  4  5  1  0
  5  6  1  0
  4  7  1  0
  7  8  2  0
  8  9  1  0
  9 10  2  0
 10 11  1  0
 11 12  2  0
  1 13  1  0
 13 14  1  0
 14 15  1  0
 15 16  1  0
 13 17  1  0
 17 18  2  0
 17 19  1  0
 19 20  2  0
 20 21  1  0
 21 22  2  0
 22 23  1  0
 23 24  2  0
 22 25  1  0
 25 26  1  0
 25 27  1  1
 25 28  1  0
 28 29  1  0
 28 30  1  0
 28 31  1  0
  6  1  1  0
 12  7  1  0
 16 14  1  0
 24 19  1  0
  1 32  1  6
  2 33  1  0
  2 34  1  0
  3 35  1  0
  3 36  1  0
  4 37  1  6
  5 38  1  0
  5 39  1  0
  6 40  1  0
  6 41  1  0
  8 42  1  0
  9 43  1  0
 10 44  1  0
 12 45  1  0
 14 46  1  0
 15 47  1  0
 15 48  1  0
 16 49  1  0
 16 50  1  0
 20 51  1  0
 21 52  1  0
 23 53  1  0
 24 54  1  0
 26 55  1  0
 26 56  1  0
 26 57  1  0
 27 58  1  0
M  END
$$$$
