@<TRIPOS>MOLECULE
*****
 28 29 0 0 0
SMALL
GASTEIGER

@<TRIPOS>ATOM
      1 C          -1.0118   -0.4699    0.9754 C.3     1  UNL1        0.0128
      2 C          -2.0092   -0.7016   -0.1507 C.3     1  UNL1       -0.0358
      3 C          -1.0733   -0.4281   -1.3186 C.3     1  UNL1       -0.0351
      4 C          -0.1810    0.6560   -0.7714 C.3     1  UNL1        0.0257
      5 C           1.2398    0.1467   -0.6304 C.3     1  UNL1        0.0976
      6 C           1.2172   -1.2117    0.0044 C.3     1  UNL1        0.0710
      7 O           2.4398   -1.3461    0.6950 O.3     1  UNL1       -0.3909
      8 C           0.0981   -1.4531    0.9565 C.3     1  UNL1       -0.0103
      9 C           1.9165    1.0502    0.3512 C.2     1  UNL1        0.3118
     10 O           3.2356    0.9357    0.7678 O.3     1  UNL1       -0.4803
     11 O           1.3591    2.0408    0.9270 O.2     1  UNL1       -0.2506
     12 N          -0.5910    0.8880    0.6221 N.3     1  UNL1       -0.2985
     13 C          -1.6768    1.7978    0.7289 C.3     1  UNL1       -0.0122
     14 H          -1.5126   -0.4235    1.9417 H       1  UNL1        0.0463
     15 H          -2.4105   -1.7142   -0.1608 H       1  UNL1        0.0281
     16 H          -2.7691    0.1007   -0.0746 H       1  UNL1        0.0281
     17 H          -0.5602   -1.3864   -1.5120 H       1  UNL1        0.0281
     18 H          -1.6039   -0.1549   -2.2492 H       1  UNL1        0.0281
     19 H          -0.2397    1.6040   -1.3166 H       1  UNL1        0.0471
     20 H           1.7784    0.1190   -1.5952 H       1  UNL1        0.0455
     21 H           1.2690   -1.9605   -0.8148 H       1  UNL1        0.0602
     22 H           2.9768   -2.1053    0.3948 H       1  UNL1        0.2098
     23 H          -0.3406   -2.4630    0.7613 H       1  UNL1        0.0305
     24 H           0.4838   -1.5110    2.0172 H       1  UNL1        0.0305
     25 H           3.8050    1.7120    1.0817 H       1  UNL1        0.2951
     26 H          -2.0688    2.0740   -0.2633 H       1  UNL1        0.0391
     27 H          -2.4853    1.4533    1.4261 H       1  UNL1        0.0391
     28 H          -1.2850    2.7513    1.1843 H       1  UNL1        0.0391
@<TRIPOS>BOND
     1     1     2    1
     2     2     3    1
     3     3     4    1
     4     4     5    1
     5     5     6    1
     6     6     7    1
     7     6     8    1
     8     5     9    1
     9     9    10    1
    10     9    11    2
    11     4    12    1
    12    12    13    1
    13     8     1    1
    14    12     1    1
    15     1    14    1
    16     2    15    1
    17     2    16    1
    18     3    17    1
    19     3    18    1
    20     4    19    1
    21     5    20    1
    22     6    21    1
    23     7    22    1
    24     8    23    1
    25     8    24    1
    26    10    25    1
    27    13    26    1
    28    13    27    1
    29    13    28    1
