@<TRIPOS>MOLECULE
*****
 61 68 0 0 0
SMALL
GASTEIGER

@<TRIPOS>ATOM
      1 C           4.4313   -0.1331   -1.9369 C.3     1  UNL1       -0.0155
      2 N           4.4780   -0.1629   -0.5233 N.3     1  UNL1       -0.3136
      3 C           3.2727   -0.1897    0.1961 C.3     1  UNL1        0.0423
      4 C           2.3746   -1.3596   -0.1512 C.3     1  UNL1        0.0107
      5 C           1.4446   -1.4968    1.0455 C.3     1  UNL1        0.1402
      6 O           1.4405   -0.4215    1.8574 O.3     1  UNL1       -0.3282
      7 C           1.3844    0.8452    1.2737 C.3     1  UNL1        0.1741
      8 C           1.7858    1.7745    2.4312 C.3     1  UNL1       -0.0136
      9 C           2.4135    1.0372    0.1804 C.3     1  UNL1        0.1214
     10 O           1.7822    1.0883   -1.0558 O.3     1  UNL1       -0.3735
     11 C           2.0283    2.2306   -1.7805 C.3     1  UNL1        0.0371
     12 N           0.0399    1.1644    0.8321 N.ar    1  UNL1       -0.3070
     13 C          -0.5304    2.3985    0.7322 C.ar    1  UNL1        0.0527
     14 C          -0.0011    3.6490    0.9642 C.ar    1  UNL1       -0.0375
     15 C          -0.8381    4.7517    0.7638 C.ar    1  UNL1       -0.0598
     16 C          -2.1461    4.6384    0.3501 C.ar    1  UNL1       -0.0611
     17 C          -2.6593    3.3795    0.1211 C.ar    1  UNL1       -0.0520
     18 C          -1.8414    2.2915    0.3167 C.ar    1  UNL1        0.0081
     19 C          -2.1059    0.9676    0.1455 C.ar    1  UNL1        0.0151
     20 C          -3.2250    0.2327   -0.2639 C.ar    1  UNL1       -0.0078
     21 C          -3.2099   -1.1512   -0.3644 C.ar    1  UNL1        0.0518
     22 C          -2.0325   -1.7681   -0.0403 C.ar    1  UNL1        0.0221
     23 C          -1.6407   -3.0915   -0.0350 C.ar    1  UNL1        0.0085
     24 C          -2.2641   -4.2824   -0.3313 C.ar    1  UNL1       -0.0520
     25 C          -1.5530   -5.4831   -0.2174 C.ar    1  UNL1       -0.0611
     26 C          -0.2402   -5.4942    0.1860 C.ar    1  UNL1       -0.0598
     27 C           0.3860   -4.3069    0.4829 C.ar    1  UNL1       -0.0375
     28 C          -0.3214   -3.1195    0.3690 C.ar    1  UNL1        0.0524
     29 N           0.1155   -1.8950    0.6110 N.ar    1  UNL1       -0.3115
     30 C          -0.9003   -1.0562    0.3724 C.ar    1  UNL1        0.0774
     31 C          -0.9556    0.3063    0.4609 C.ar    1  UNL1        0.0772
     32 C          -4.5138   -1.5968   -0.8086 C.2     1  UNL1        0.2453
     33 O          -4.9264   -2.7614   -1.0268 O.2     1  UNL1       -0.2702
     34 N          -5.3132   -0.4043   -0.9696 N.am    1  UNL1       -0.3072
     35 C          -4.5578    0.7668   -0.6443 C.3     1  UNL1        0.0385
     36 H           3.4518   -0.2118   -2.4018 H       1  UNL1        0.0388
     37 H           5.0688   -0.9202   -2.4226 H       1  UNL1        0.0388
     38 H           4.8842    0.8427   -2.2813 H       1  UNL1        0.0388
     39 H           5.1991    0.4084   -0.0790 H       1  UNL1        0.1220
     40 H           3.5438   -0.3408    1.2878 H       1  UNL1        0.0489
     41 H           2.9156   -2.2764   -0.3834 H       1  UNL1        0.0325
     42 H           1.7162   -1.0187   -0.9962 H       1  UNL1        0.0325
     43 H           1.8454   -2.3625    1.6256 H       1  UNL1        0.0839
     44 H           2.2409    1.1530    3.2861 H       1  UNL1        0.0277
     45 H           0.9024    2.2166    2.9199 H       1  UNL1        0.0277
     46 H           2.5995    2.4534    2.1802 H       1  UNL1        0.0277
     47 H           3.0049    1.9717    0.3229 H       1  UNL1        0.0660
     48 H           3.0939    2.4131   -2.0237 H       1  UNL1        0.0524
     49 H           1.6652    3.1587   -1.3150 H       1  UNL1        0.0524
     50 H           1.5415    2.0652   -2.7856 H       1  UNL1        0.0524
     51 H           1.0121    3.7771    1.2620 H       1  UNL1        0.0638
     52 H          -0.4049    5.7414    0.9528 H       1  UNL1        0.0618
     53 H          -2.7369    5.5417    0.2157 H       1  UNL1        0.0618
     54 H          -3.6978    3.2749   -0.2087 H       1  UNL1        0.0624
     55 H          -3.2830   -4.3481   -0.6507 H       1  UNL1        0.0624
     56 H          -2.0855   -6.3941   -0.4612 H       1  UNL1        0.0618
     57 H           0.3191   -6.4319    0.2761 H       1  UNL1        0.0618
     58 H           1.4268   -4.2900    0.8050 H       1  UNL1        0.0638
     59 H          -6.3247   -0.4689   -1.2918 H       1  UNL1        0.1493
     60 H          -5.0486    1.3142    0.1833 H       1  UNL1        0.0512
     61 H          -4.4511    1.3833   -1.5592 H       1  UNL1        0.0512
@<TRIPOS>BOND
     1     1     2    1
     2     2     3    1
     3     3     4    1
     4     4     5    1
     5     5     6    1
     6     6     7    1
     7     7     8    1
     8     7     9    1
     9     9    10    1
    10    10    11    1
    11     7    12    1
    12    12    13   ar
    13    13    14   ar
    14    14    15   ar
    15    15    16   ar
    16    16    17   ar
    17    17    18   ar
    18    18    19   ar
    19    19    20   ar
    20    20    21   ar
    21    21    22   ar
    22    22    23   ar
    23    23    24   ar
    24    24    25   ar
    25    25    26   ar
    26    26    27   ar
    27    27    28   ar
    28    28    29   ar
    29    29    30   ar
    30    30    31   ar
    31    21    32    1
    32    32    33    2
    33    32    34   am
    34    34    35    1
    35     9     3    1
    36    31    12   ar
    37    29     5    1
    38    18    13   ar
    39    31    19   ar
    40    35    20    1
    41    30    22   ar
    42    28    23   ar
    43     1    36    1
    44     1    37    1
    45     1    38    1
    46     2    39    1
    47     3    40    1
    48     4    41    1
    49     4    42    1
    50     5    43    1
    51     8    44    1
    52     8    45    1
    53     8    46    1
    54     9    47    1
    55    11    48    1
    56    11    49    1
    57    11    50    1
    58    14    51    1
    59    15    52    1
    60    16    53    1
    61    17    54    1
    62    24    55    1
    63    25    56    1
    64    26    57    1
    65    27    58    1
    66    34    59    1
    67    35    60    1
    68    35    61    1
