
     RDKit          3D

 61 68  0  0  0  0  0  0  0  0999 V2000
    4.4313   -0.1331   -1.9369 C   0  0  0  0  0  0  0  0  0  0  0  0
    4.4780   -0.1629   -0.5233 N   0  0  0  0  0  0  0  0  0  0  0  0
    3.2727   -0.1897    0.1961 C   0  0  2  0  0  0  0  0  0  0  0  0
    2.3746   -1.3596   -0.1512 C   0  0  0  0  0  0  0  0  0  0  0  0
    1.4446   -1.4968    1.0455 C   0  0  1  0  0  0  0  0  0  0  0  0
    1.4405   -0.4215    1.8574 O   0  0  0  0  0  0  0  0  0  0  0  0
    1.3844    0.8452    1.2737 C   0  0  1  0  0  0  0  0  0  0  0  0
    1.7858    1.7745    2.4312 C   0  0  0  0  0  0  0  0  0  0  0  0
    2.4135    1.0372    0.1804 C   0  0  2  0  0  0  0  0  0  0  0  0
    1.7822    1.0883   -1.0558 O   0  0  0  0  0  0  0  0  0  0  0  0
    2.0283    2.2306   -1.7805 C   0  0  0  0  0  0  0  0  0  0  0  0
    0.0399    1.1644    0.8321 N   0  0  0  0  0  0  0  0  0  0  0  0
   -0.5304    2.3985    0.7322 C   0  0  0  0  0  0  0  0  0  0  0  0
   -0.0011    3.6490    0.9642 C   0  0  0  0  0  0  0  0  0  0  0  0
   -0.8381    4.7517    0.7638 C   0  0  0  0  0  0  0  0  0  0  0  0
   -2.1461    4.6384    0.3501 C   0  0  0  0  0  0  0  0  0  0  0  0
   -2.6593    3.3795    0.1211 C   0  0  0  0  0  0  0  0  0  0  0  0
   -1.8414    2.2915    0.3167 C   0  0  0  0  0  0  0  0  0  0  0  0
   -2.1059    0.9676    0.1455 C   0  0  0  0  0  0  0  0  0  0  0  0
   -3.2250    0.2327   -0.2639 C   0  0  0  0  0  0  0  0  0  0  0  0
   -3.2099   -1.1512   -0.3644 C   0  0  0  0  0  0  0  0  0  0  0  0
   -2.0325   -1.7681   -0.0403 C   0  0  0  0  0  0  0  0  0  0  0  0
   -1.6407   -3.0915   -0.0350 C   0  0  0  0  0  0  0  0  0  0  0  0
   -2.2641   -4.2824   -0.3313 C   0  0  0  0  0  0  0  0  0  0  0  0
   -1.5530   -5.4831   -0.2174 C   0  0  0  0  0  0  0  0  0  0  0  0
   -0.2402   -5.4942    0.1860 C   0  0  0  0  0  0  0  0  0  0  0  0
    0.3860   -4.3069    0.4829 C   0  0  0  0  0  0  0  0  0  0  0  0
   -0.3214   -3.1195    0.3690 C   0  0  0  0  0  0  0  0  0  0  0  0
    0.1155   -1.8950    0.6110 N   0  0  0  0  0  0  0  0  0  0  0  0
   -0.9003   -1.0562    0.3724 C   0  0  0  0  0  0  0  0  0  0  0  0
   -0.9556    0.3063    0.4609 C   0  0  0  0  0  0  0  0  0  0  0  0
   -4.5138   -1.5968   -0.8086 C   0  0  0  0  0  0  0  0  0  0  0  0
   -4.9264   -2.7614   -1.0268 O   0  0  0  0  0  0  0  0  0  0  0  0
   -5.3132   -0.4043   -0.9696 N   0  0  0  0  0  0  0  0  0  0  0  0
   -4.5578    0.7668   -0.6443 C   0  0  0  0  0  0  0  0  0  0  0  0
    3.4518   -0.2118   -2.4018 H   0  0  0  0  0  0  0  0  0  0  0  0
    5.0688   -0.9202   -2.4226 H   0  0  0  0  0  0  0  0  0  0  0  0
    4.8842    0.8427   -2.2813 H   0  0  0  0  0  0  0  0  0  0  0  0
    5.1991    0.4084   -0.0790 H   0  0  0  0  0  0  0  0  0  0  0  0
    3.5438   -0.3408    1.2878 H   0  0  0  0  0  0  0  0  0  0  0  0
    2.9156   -2.2764   -0.3834 H   0  0  0  0  0  0  0  0  0  0  0  0
    1.7162   -1.0187   -0.9962 H   0  0  0  0  0  0  0  0  0  0  0  0
    1.8454   -2.3625    1.6256 H   0  0  0  0  0  0  0  0  0  0  0  0
    2.2409    1.1530    3.2861 H   0  0  0  0  0  0  0  0  0  0  0  0
    0.9024    2.2166    2.9199 H   0  0  0  0  0  0  0  0  0  0  0  0
    2.5995    2.4534    2.1802 H   0  0  0  0  0  0  0  0  0  0  0  0
    3.0049    1.9717    0.3229 H   0  0  0  0  0  0  0  0  0  0  0  0
    3.0939    2.4131   -2.0237 H   0  0  0  0  0  0  0  0  0  0  0  0
    1.6652    3.1587   -1.3150 H   0  0  0  0  0  0  0  0  0  0  0  0
    1.5415    2.0652   -2.7856 H   0  0  0  0  0  0  0  0  0  0  0  0
    1.0121    3.7771    1.2620 H   0  0  0  0  0  0  0  0  0  0  0  0
   -0.4049    5.7414    0.9528 H   0  0  0  0  0  0  0  0  0  0  0  0
   -2.7369    5.5417    0.2157 H   0  0  0  0  0  0  0  0  0  0  0  0
   -3.6978    3.2749   -0.2087 H   0  0  0  0  0  0  0  0  0  0  0  0
   -3.2830   -4.3481   -0.6507 H   0  0  0  0  0  0  0  0  0  0  0  0
   -2.0855   -6.3941   -0.4612 H   0  0  0  0  0  0  0  0  0  0  0  0
    0.3191   -6.4319    0.2761 H   0  0  0  0  0  0  0  0  0  0  0  0
    1.4268   -4.2900    0.8050 H   0  0  0  0  0  0  0  0  0  0  0  0
   -6.3247   -0.4689   -1.2918 H   0  0  0  0  0  0  0  0  0  0  0  0
   -5.0486    1.3142    0.1833 H   0  0  0  0  0  0  0  0  0  0  0  0
   -4.4511    1.3833   -1.5592 H   0  0  0  0  0  0  0  0  0  0  0  0
  1  2  1  0
  2  3  1  0
  3  4  1  0
  4  5  1  0
  5  6  1  0
  6  7  1  0
  7  8  1  1
  7  9  1  0
  9 10  1  0
 10 11  1  0
  7 12  1  0
 12 13  1  0
 13 14  2  0
 14 15  1  0
 15 16  2  0
 16 17  1  0
 17 18  2  0
 18 19  1  0
 19 20  2  0
 20 21  1  0
 21 22  2  0
 22 23  1  0
 23 24  2  0
 24 25  1  0
 25 26  2  0
 26 27  1  0
 27 28  2  0
 28 29  1  0
 29 30  1  0
 30 31  2  0
 21 32  1  0
 32 33  2  0
 32 34  1  0
 34 35  1  0
  9  3  1  0
 31 12  1  0
 29  5  1  0
 18 13  1  0
 31 19  1  0
 35 20  1  0
 30 22  1  0
 28 23  1  0
  1 36  1  0
  1 37  1  0
  1 38  1  0
  2 39  1  0
  3 40  1  1
  4 41  1  0
  4 42  1  0
  5 43  1  1
  8 44  1  0
  8 45  1  0
  8 46  1  0
  9 47  1  1
 11 48  1  0
 11 49  1  0
 11 50  1  0
 14 51  1  0
 15 52  1  0
 16 53  1  0
 17 54  1  0
 24 55  1  0
 25 56  1  0
 26 57  1  0
 27 58  1  0
 34 59  1  0
 35 60  1  0
 35 61  1  0
M  END
$$$$
