@<TRIPOS>MOLECULE
*****
 49 52 0 0 0
SMALL
GASTEIGER

@<TRIPOS>ATOM
      1 C           4.8650   -0.5441   -2.4487 C.3     1  UNL1        0.0805
      2 O           5.2541   -0.2399   -1.1272 O.3     1  UNL1       -0.4776
      3 C           4.2741   -0.0946   -0.1641 C.ar    1  UNL1        0.2557
      4 N           2.9756   -0.2385   -0.4730 N.ar    1  UNL1       -0.1768
      5 C           1.9785   -0.1091    0.4200 C.ar    1  UNL1        0.2214
      6 N           0.6220   -0.2795    0.0029 N.pl3   1  UNL1       -0.2946
      7 C           0.1799   -0.5876   -1.3219 C.3     1  UNL1        0.0316
      8 C          -1.2965   -0.7498   -1.2116 C.3     1  UNL1        0.1119
      9 C          -1.5593   -2.1784   -0.8264 C.2     1  UNL1        0.2861
     10 O          -0.7274   -3.1029   -1.0026 O.2     1  UNL1       -0.2567
     11 N          -2.8060   -2.5132   -0.2330 N.am    1  UNL1       -0.1649
     12 C          -3.3801   -3.8569   -0.3511 C.3     1  UNL1        0.0571
     13 C          -3.4765   -1.4823    0.4846 C.2     1  UNL1        0.3722
     14 N          -4.7193   -1.7138    1.1092 N.pl3   1  UNL1       -0.2512
     15 N          -2.9332   -0.3198    0.5610 N.2     1  UNL1       -0.1028
     16 C          -1.6834    0.0785   -0.0121 C.3     1  UNL1        0.1821
     17 C          -1.7754    1.5167   -0.3141 C.ar    1  UNL1        0.0360
     18 C          -1.6333    2.0772   -1.5600 C.ar    1  UNL1       -0.0139
     19 C          -1.7249    3.4315   -1.7892 C.ar    1  UNL1        0.1590
     20 F          -1.5820    3.9669   -3.0247 F       1  UNL1       -0.2025
     21 C          -1.9700    4.2804   -0.7338 C.ar    1  UNL1        0.1611
     22 F          -2.0597    5.6312   -0.9724 F       1  UNL1       -0.2024
     23 C          -2.1189    3.7622    0.5296 C.ar    1  UNL1        0.0121
     24 C          -2.0206    2.3802    0.7323 C.ar    1  UNL1        0.1332
     25 F          -2.1829    1.9234    2.0113 F       1  UNL1       -0.2050
     26 C          -0.5150   -0.1555    0.9090 C.3     1  UNL1        0.0599
     27 N           2.2937    0.1793    1.6882 N.ar    1  UNL1       -0.2165
     28 C           3.5635    0.3381    2.0754 C.ar    1  UNL1        0.0822
     29 C           3.8868    0.6575    3.4874 C.3     1  UNL1       -0.0193
     30 C           4.5609    0.2017    1.1496 C.ar    1  UNL1        0.2055
     31 F           5.8577    0.3568    1.5112 F       1  UNL1       -0.1980
     32 H           4.2495    0.2653   -2.8917 H       1  UNL1        0.0660
     33 H           4.2687   -1.4870   -2.4720 H       1  UNL1        0.0660
     34 H           5.7894   -0.6842   -3.0509 H       1  UNL1        0.0660
     35 H           0.6240   -1.5789   -1.6329 H       1  UNL1        0.0474
     36 H           0.5274    0.1274   -2.0773 H       1  UNL1        0.0474
     37 H          -1.8673   -0.5228   -2.1185 H       1  UNL1        0.0467
     38 H          -4.4630   -3.8430   -0.4736 H       1  UNL1        0.0602
     39 H          -2.8806   -4.3727   -1.1783 H       1  UNL1        0.0602
     40 H          -3.1632   -4.4128    0.6062 H       1  UNL1        0.0602
     41 H          -5.0878   -1.0445    1.8273 H       1  UNL1        0.2412
     42 H          -5.3170   -2.5379    0.8948 H       1  UNL1        0.2412
     43 H          -1.4446    1.4466   -2.3907 H       1  UNL1        0.0652
     44 H          -2.3103    4.4372    1.3468 H       1  UNL1        0.0676
     45 H          -0.3398    0.6486    1.6265 H       1  UNL1        0.0507
     46 H          -0.6908   -1.1360    1.4026 H       1  UNL1        0.0507
     47 H           4.1329   -0.3208    3.9782 H       1  UNL1        0.0293
     48 H           3.0384    1.1008    4.0099 H       1  UNL1        0.0293
     49 H           4.7870    1.2990    3.4879 H       1  UNL1        0.0293
@<TRIPOS>BOND
     1     1     2    1
     2     2     3    1
     3     3     4   ar
     4     4     5   ar
     5     5     6    1
     6     6     7    1
     7     7     8    1
     8     8     9    1
     9     9    10    2
    10     9    11   am
    11    11    12    1
    12    11    13    1
    13    13    14    1
    14    13    15    2
    15    15    16    1
    16    16    17    1
    17    17    18   ar
    18    18    19   ar
    19    19    20    1
    20    19    21   ar
    21    21    22    1
    22    21    23   ar
    23    23    24   ar
    24    24    25    1
    25    16    26    1
    26     5    27   ar
    27    27    28   ar
    28    28    29    1
    29    28    30   ar
    30    30    31    1
    31    30     3   ar
    32    26     6    1
    33    16     8    1
    34    24    17   ar
    35     1    32    1
    36     1    33    1
    37     1    34    1
    38     7    35    1
    39     7    36    1
    40     8    37    1
    41    12    38    1
    42    12    39    1
    43    12    40    1
    44    14    41    1
    45    14    42    1
    46    18    43    1
    47    23    44    1
    48    26    45    1
    49    26    46    1
    50    29    47    1
    51    29    48    1
    52    29    49    1
