@<TRIPOS>MOLECULE
*****
 65 68 0 0 0
SMALL
GASTEIGER

@<TRIPOS>ATOM
      1 C           0.0201    2.3686   -1.0175 C.3     1  UNL1       -0.0421
      2 C           0.3539    1.0158   -1.5422 C.3     1  UNL1        0.0515
      3 C           1.7689    0.6951   -1.1256 C.ar    1  UNL1       -0.0271
      4 C           2.2416   -0.5889   -1.1859 C.ar    1  UNL1       -0.0562
      5 C           3.5568   -0.8324   -0.7906 C.ar    1  UNL1       -0.0522
      6 C           4.4094    0.1426   -0.3427 C.ar    1  UNL1        0.0021
      7 C           5.7707   -0.1323    0.0628 C.ar    1  UNL1        0.0916
      8 C           6.2655   -1.4039    0.0122 C.ar    1  UNL1       -0.0289
      9 C           7.5893   -1.5851    0.4211 C.ar    1  UNL1        0.0064
     10 C           8.2962   -0.5018    0.8389 C.ar    1  UNL1        0.2670
     11 O           9.4943   -0.6601    1.2100 O.2     1  UNL1       -0.2662
     12 N           7.7416    0.7289    0.8628 N.ar    1  UNL1       -0.2321
     13 C           8.5804    1.8217    1.3260 C.3     1  UNL1        0.0340
     14 N           6.5124    0.9320    0.4890 N.ar    1  UNL1       -0.1685
     15 C           3.8828    1.4311   -0.2994 C.ar    1  UNL1       -0.0522
     16 C           2.5904    1.7034   -0.6823 C.ar    1  UNL1       -0.0562
     17 N          -0.4892   -0.0154   -0.9474 N.am    1  UNL1       -0.2605
     18 C          -1.2827   -0.9305   -1.7232 C.3     1  UNL1        0.0224
     19 C          -2.5434   -1.4122   -1.0424 C.3     1  UNL1        0.0076
     20 C          -2.7988   -0.8897    0.3135 C.3     1  UNL1        0.1440
     21 C          -3.6401   -1.8134    1.1207 C.3     1  UNL1        0.0199
     22 C          -4.9986   -2.1586    0.6988 C.3     1  UNL1        0.0645
     23 C          -5.2173   -2.8361   -0.5988 C.3     1  UNL1       -0.0362
     24 C          -5.9838   -0.9905    0.8390 C.3     1  UNL1       -0.0362
     25 O          -5.4726   -3.0631    1.7020 O.3     1  UNL1       -0.3890
     26 C          -3.3135    0.5053    0.3417 C.ar    1  UNL1       -0.0039
     27 C          -3.5315    1.1017    1.5748 C.ar    1  UNL1       -0.0521
     28 C          -4.0107    2.3781    1.7017 C.ar    1  UNL1       -0.0261
     29 C          -4.2909    3.1086    0.5913 C.ar    1  UNL1        0.1234
     30 F          -4.7611    4.3611    0.7195 F       1  UNL1       -0.2055
     31 C          -4.0760    2.5203   -0.6647 C.ar    1  UNL1       -0.0261
     32 C          -3.5960    1.2419   -0.7727 C.ar    1  UNL1       -0.0521
     33 O          -1.5501   -0.8451    1.0172 O.3     1  UNL1       -0.4387
     34 C          -0.5236   -0.1227    0.4526 C.2     1  UNL1        0.4042
     35 O           0.3844    0.4464    1.1140 O.2     1  UNL1       -0.2262
     36 H           0.5237    3.1290   -1.6844 H       1  UNL1        0.0251
     37 H          -1.0767    2.5583   -1.2111 H       1  UNL1        0.0251
     38 H           0.2929    2.5593    0.0180 H       1  UNL1        0.0251
     39 H           0.3028    0.9985   -2.6443 H       1  UNL1        0.0549
     40 H           1.6085   -1.3917   -1.5323 H       1  UNL1        0.0621
     41 H           3.8821   -1.8704   -0.8582 H       1  UNL1        0.0624
     42 H           5.7101   -2.2751   -0.3195 H       1  UNL1        0.0641
     43 H           8.0018   -2.5872    0.3887 H       1  UNL1        0.0673
     44 H           9.0360    2.2863    0.4191 H       1  UNL1        0.0474
     45 H           9.3607    1.4583    2.0202 H       1  UNL1        0.0474
     46 H           7.9685    2.6008    1.8441 H       1  UNL1        0.0474
     47 H           4.5186    2.2310    0.0469 H       1  UNL1        0.0624
     48 H           2.1993    2.7339   -0.6386 H       1  UNL1        0.0621
     49 H          -1.5851   -0.3883   -2.6725 H       1  UNL1        0.0467
     50 H          -0.6641   -1.7786   -2.1215 H       1  UNL1        0.0467
     51 H          -3.3636   -1.2716   -1.7661 H       1  UNL1        0.0322
     52 H          -2.4002   -2.5379   -0.9984 H       1  UNL1        0.0322
     53 H          -3.0672   -2.7837    1.2265 H       1  UNL1        0.0335
     54 H          -3.6907   -1.4363    2.1710 H       1  UNL1        0.0335
     55 H          -5.4835   -2.1761   -1.4512 H       1  UNL1        0.0257
     56 H          -4.4774   -3.5966   -0.8702 H       1  UNL1        0.0257
     57 H          -6.1804   -3.4435   -0.4691 H       1  UNL1        0.0257
     58 H          -5.9043   -0.5446    1.8379 H       1  UNL1        0.0257
     59 H          -7.0013   -1.4692    0.7915 H       1  UNL1        0.0257
     60 H          -5.9289   -0.2961    0.0025 H       1  UNL1        0.0257
     61 H          -4.7397   -3.6894    1.8547 H       1  UNL1        0.2101
     62 H          -3.3159    0.5411    2.4899 H       1  UNL1        0.0622
     63 H          -4.1563    2.7786    2.6915 H       1  UNL1        0.0646
     64 H          -4.3133    3.1402   -1.5133 H       1  UNL1        0.0646
     65 H          -3.4354    0.8001   -1.7261 H       1  UNL1        0.0622
@<TRIPOS>BOND
     1     1     2    1
     2     2     3    1
     3     3     4   ar
     4     4     5   ar
     5     5     6   ar
     6     6     7    1
     7     7     8   ar
     8     8     9   ar
     9     9    10   ar
    10    10    11    2
    11    10    12   ar
    12    12    13    1
    13    12    14   ar
    14     6    15   ar
    15    15    16   ar
    16     2    17    1
    17    17    18    1
    18    18    19    1
    19    19    20    1
    20    20    21    1
    21    21    22    1
    22    22    23    1
    23    22    24    1
    24    22    25    1
    25    20    26    1
    26    26    27   ar
    27    27    28   ar
    28    28    29   ar
    29    29    30    1
    30    29    31   ar
    31    31    32   ar
    32    20    33    1
    33    33    34    1
    34    34    35    2
    35    16     3   ar
    36    34    17   am
    37    14     7   ar
    38    32    26   ar
    39     1    36    1
    40     1    37    1
    41     1    38    1
    42     2    39    1
    43     4    40    1
    44     5    41    1
    45     8    42    1
    46     9    43    1
    47    13    44    1
    48    13    45    1
    49    13    46    1
    50    15    47    1
    51    16    48    1
    52    18    49    1
    53    18    50    1
    54    19    51    1
    55    19    52    1
    56    21    53    1
    57    21    54    1
    58    23    55    1
    59    23    56    1
    60    23    57    1
    61    24    58    1
    62    24    59    1
    63    24    60    1
    64    25    61    1
    65    27    62    1
    66    28    63    1
    67    31    64    1
    68    32    65    1
