
     RDKit          3D

 65 68  0  0  0  0  0  0  0  0999 V2000
    0.0201    2.3686   -1.0175 C   0  0  0  0  0  0  0  0  0  0  0  0
    0.3539    1.0158   -1.5422 C   0  0  1  0  0  0  0  0  0  0  0  0
    1.7689    0.6951   -1.1256 C   0  0  0  0  0  0  0  0  0  0  0  0
    2.2416   -0.5889   -1.1859 C   0  0  0  0  0  0  0  0  0  0  0  0
    3.5568   -0.8324   -0.7906 C   0  0  0  0  0  0  0  0  0  0  0  0
    4.4094    0.1426   -0.3427 C   0  0  0  0  0  0  0  0  0  0  0  0
    5.7707   -0.1323    0.0628 C   0  0  0  0  0  0  0  0  0  0  0  0
    6.2655   -1.4039    0.0122 C   0  0  0  0  0  0  0  0  0  0  0  0
    7.5893   -1.5851    0.4211 C   0  0  0  0  0  0  0  0  0  0  0  0
    8.2962   -0.5018    0.8389 C   0  0  0  0  0  0  0  0  0  0  0  0
    9.4943   -0.6601    1.2100 O   0  0  0  0  0  0  0  0  0  0  0  0
    7.7416    0.7289    0.8628 N   0  0  0  0  0  0  0  0  0  0  0  0
    8.5804    1.8217    1.3260 C   0  0  0  0  0  0  0  0  0  0  0  0
    6.5124    0.9320    0.4890 N   0  0  0  0  0  0  0  0  0  0  0  0
    3.8828    1.4311   -0.2994 C   0  0  0  0  0  0  0  0  0  0  0  0
    2.5904    1.7034   -0.6823 C   0  0  0  0  0  0  0  0  0  0  0  0
   -0.4892   -0.0154   -0.9474 N   0  0  0  0  0  0  0  0  0  0  0  0
   -1.2827   -0.9305   -1.7232 C   0  0  0  0  0  0  0  0  0  0  0  0
   -2.5434   -1.4122   -1.0424 C   0  0  0  0  0  0  0  0  0  0  0  0
   -2.7988   -0.8897    0.3135 C   0  0  2  0  0  0  0  0  0  0  0  0
   -3.6401   -1.8134    1.1207 C   0  0  0  0  0  0  0  0  0  0  0  0
   -4.9986   -2.1586    0.6988 C   0  0  0  0  0  0  0  0  0  0  0  0
   -5.2173   -2.8361   -0.5988 C   0  0  0  0  0  0  0  0  0  0  0  0
   -5.9838   -0.9905    0.8390 C   0  0  0  0  0  0  0  0  0  0  0  0
   -5.4726   -3.0631    1.7020 O   0  0  0  0  0  0  0  0  0  0  0  0
   -3.3135    0.5053    0.3417 C   0  0  0  0  0  0  0  0  0  0  0  0
   -3.5315    1.1017    1.5748 C   0  0  0  0  0  0  0  0  0  0  0  0
   -4.0107    2.3781    1.7017 C   0  0  0  0  0  0  0  0  0  0  0  0
   -4.2909    3.1086    0.5913 C   0  0  0  0  0  0  0  0  0  0  0  0
   -4.7611    4.3611    0.7195 F   0  0  0  0  0  0  0  0  0  0  0  0
   -4.0760    2.5203   -0.6647 C   0  0  0  0  0  0  0  0  0  0  0  0
   -3.5960    1.2419   -0.7727 C   0  0  0  0  0  0  0  0  0  0  0  0
   -1.5501   -0.8451    1.0172 O   0  0  0  0  0  0  0  0  0  0  0  0
   -0.5236   -0.1227    0.4526 C   0  0  0  0  0  0  0  0  0  0  0  0
    0.3844    0.4464    1.1140 O   0  0  0  0  0  0  0  0  0  0  0  0
    0.5237    3.1290   -1.6844 H   0  0  0  0  0  0  0  0  0  0  0  0
   -1.0767    2.5583   -1.2111 H   0  0  0  0  0  0  0  0  0  0  0  0
    0.2929    2.5593    0.0180 H   0  0  0  0  0  0  0  0  0  0  0  0
    0.3028    0.9985   -2.6443 H   0  0  0  0  0  0  0  0  0  0  0  0
    1.6085   -1.3917   -1.5323 H   0  0  0  0  0  0  0  0  0  0  0  0
    3.8821   -1.8704   -0.8582 H   0  0  0  0  0  0  0  0  0  0  0  0
    5.7101   -2.2751   -0.3195 H   0  0  0  0  0  0  0  0  0  0  0  0
    8.0018   -2.5872    0.3887 H   0  0  0  0  0  0  0  0  0  0  0  0
    9.0360    2.2863    0.4191 H   0  0  0  0  0  0  0  0  0  0  0  0
    9.3607    1.4583    2.0202 H   0  0  0  0  0  0  0  0  0  0  0  0
    7.9685    2.6008    1.8441 H   0  0  0  0  0  0  0  0  0  0  0  0
    4.5186    2.2310    0.0469 H   0  0  0  0  0  0  0  0  0  0  0  0
    2.1993    2.7339   -0.6386 H   0  0  0  0  0  0  0  0  0  0  0  0
   -1.5851   -0.3883   -2.6725 H   0  0  0  0  0  0  0  0  0  0  0  0
   -0.6641   -1.7786   -2.1215 H   0  0  0  0  0  0  0  0  0  0  0  0
   -3.3636   -1.2716   -1.7661 H   0  0  0  0  0  0  0  0  0  0  0  0
   -2.4002   -2.5379   -0.9984 H   0  0  0  0  0  0  0  0  0  0  0  0
   -3.0672   -2.7837    1.2265 H   0  0  0  0  0  0  0  0  0  0  0  0
   -3.6907   -1.4363    2.1710 H   0  0  0  0  0  0  0  0  0  0  0  0
   -5.4835   -2.1761   -1.4512 H   0  0  0  0  0  0  0  0  0  0  0  0
   -4.4774   -3.5966   -0.8702 H   0  0  0  0  0  0  0  0  0  0  0  0
   -6.1804   -3.4435   -0.4691 H   0  0  0  0  0  0  0  0  0  0  0  0
   -5.9043   -0.5446    1.8379 H   0  0  0  0  0  0  0  0  0  0  0  0
   -7.0013   -1.4692    0.7915 H   0  0  0  0  0  0  0  0  0  0  0  0
   -5.9289   -0.2961    0.0025 H   0  0  0  0  0  0  0  0  0  0  0  0
   -4.7397   -3.6894    1.8547 H   0  0  0  0  0  0  0  0  0  0  0  0
   -3.3159    0.5411    2.4899 H   0  0  0  0  0  0  0  0  0  0  0  0
   -4.1563    2.7786    2.6915 H   0  0  0  0  0  0  0  0  0  0  0  0
   -4.3133    3.1402   -1.5133 H   0  0  0  0  0  0  0  0  0  0  0  0
   -3.4354    0.8001   -1.7261 H   0  0  0  0  0  0  0  0  0  0  0  0
  1  2  1  0
  2  3  1  0
  3  4  2  0
  4  5  1  0
  5  6  2  0
  6  7  1  0
  7  8  1  0
  8  9  2  0
  9 10  1  0
 10 11  2  0
 10 12  1  0
 12 13  1  0
 12 14  1  0
  6 15  1  0
 15 16  2  0
  2 17  1  0
 17 18  1  0
 18 19  1  0
 19 20  1  0
 20 21  1  1
 21 22  1  0
 22 23  1  0
 22 24  1  0
 22 25  1  0
 20 26  1  0
 26 27  2  0
 27 28  1  0
 28 29  2  0
 29 30  1  0
 29 31  1  0
 31 32  2  0
 20 33  1  0
 33 34  1  0
 34 35  2  0
 16  3  1  0
 34 17  1  0
 14  7  2  0
 32 26  1  0
  1 36  1  0
  1 37  1  0
  1 38  1  0
  2 39  1  6
  4 40  1  0
  5 41  1  0
  8 42  1  0
  9 43  1  0
 13 44  1  0
 13 45  1  0
 13 46  1  0
 15 47  1  0
 16 48  1  0
 18 49  1  0
 18 50  1  0
 19 51  1  0
 19 52  1  0
 21 53  1  0
 21 54  1  0
 23 55  1  0
 23 56  1  0
 23 57  1  0
 24 58  1  0
 24 59  1  0
 24 60  1  0
 25 61  1  0
 27 62  1  0
 28 63  1  0
 31 64  1  0
 32 65  1  0
M  END
$$$$
