@<TRIPOS>MOLECULE
*****
 31 33 0 0 0
SMALL
GASTEIGER

@<TRIPOS>ATOM
      1 O           1.0019    3.5000    1.7206 O.3     1  UNL1       -0.3636
      2 C           1.1917    2.1893    1.3904 C.3     1  UNL1        0.2246
      3 N           0.0026    1.5504    0.8747 N.2     1  UNL1       -0.2428
      4 C          -0.1684    0.4072    0.2922 C.2     1  UNL1        0.0780
      5 C          -1.5089    0.0608   -0.1161 C.ar    1  UNL1        0.0007
      6 C          -2.4986    0.9441    0.3485 C.ar    1  UNL1       -0.0526
      7 C          -3.8289    0.8707    0.0403 C.ar    1  UNL1       -0.0611
      8 C          -4.2782   -0.1169   -0.7763 C.ar    1  UNL1       -0.0617
      9 C          -3.3818   -1.0137   -1.2703 C.ar    1  UNL1       -0.0611
     10 C          -2.0583   -0.8884   -0.9263 C.ar    1  UNL1       -0.0526
     11 C           0.9246   -0.5637    0.0912 C.ar    1  UNL1        0.0232
     12 C           2.2451   -0.2664   -0.2721 C.ar    1  UNL1        0.0428
     13 N           2.8109    1.0603   -0.4114 N.am    1  UNL1       -0.2812
     14 C           2.3076    2.1598    0.3962 C.2     1  UNL1        0.2686
     15 O           3.0251    3.1796    0.1005 O.2     1  UNL1       -0.2705
     16 C           3.1340   -1.3308   -0.4654 C.ar    1  UNL1       -0.0385
     17 C           2.6512   -2.6084   -0.2824 C.ar    1  UNL1       -0.0416
     18 C           1.3461   -2.8679    0.0790 C.ar    1  UNL1        0.0417
     19 CL          0.7484   -4.4939    0.3072 Cl      1  UNL1       -0.0835
     20 C           0.4250   -1.8629    0.2834 C.ar    1  UNL1       -0.0324
     21 H           1.0441    4.1257    0.9410 H       1  UNL1        0.2125
     22 H           1.5278    1.6229    2.2726 H       1  UNL1        0.0952
     23 H          -2.2617    1.7877    1.0184 H       1  UNL1        0.0624
     24 H          -4.5637    1.5670    0.4153 H       1  UNL1        0.0618
     25 H          -5.3017   -0.2671   -1.0817 H       1  UNL1        0.0618
     26 H          -3.6429   -1.8239   -1.9199 H       1  UNL1        0.0618
     27 H          -1.3321   -1.5591   -1.3568 H       1  UNL1        0.0624
     28 H           3.5677    1.0577   -1.1186 H       1  UNL1        0.1550
     29 H           4.1103   -1.0131   -0.7407 H       1  UNL1        0.0637
     30 H           3.3581   -3.4093   -0.4390 H       1  UNL1        0.0633
     31 H          -0.5970   -1.9975    0.6056 H       1  UNL1        0.0639
@<TRIPOS>BOND
     1     1     2    1
     2     2     3    1
     3     3     4    2
     4     4     5    1
     5     5     6   ar
     6     6     7   ar
     7     7     8   ar
     8     8     9   ar
     9     9    10   ar
    10     4    11    1
    11    11    12   ar
    12    12    13    1
    13    13    14   am
    14    14    15    2
    15    12    16   ar
    16    16    17   ar
    17    17    18   ar
    18    18    19    1
    19    18    20   ar
    20    14     2    1
    21    10     5   ar
    22    20    11   ar
    23     1    21    1
    24     2    22    1
    25     6    23    1
    26     7    24    1
    27     8    25    1
    28     9    26    1
    29    10    27    1
    30    13    28    1
    31    16    29    1
    32    17    30    1
    33    20    31    1
