@<TRIPOS>MOLECULE
*****
 57 60 0 0 0
SMALL
GASTEIGER

@<TRIPOS>ATOM
      1 C          11.5112    1.4295   -0.2217 C.3     1  UNL1       -0.0025
      2 C          10.4164    1.0144   -0.8958 C.1     1  UNL1       -0.1022
      3 C           9.3440    0.5943   -1.5666 C.1     1  UNL1       -0.0617
      4 C           7.9986    0.0715   -2.4367 C.3     1  UNL1        0.1516
      5 O           7.0569    0.7458   -1.8432 O.3     1  UNL1       -0.4624
      6 C           6.1087    1.4476   -1.2409 C.ar    1  UNL1        0.2344
      7 C           5.0956    0.3571   -1.0973 C.ar    1  UNL1        0.0899
      8 N           3.9887    0.3383   -0.6241 N.ar    1  UNL1       -0.2459
      9 C           3.4423    1.5855   -0.0591 C.ar    1  UNL1        0.1172
     10 C           2.2066    1.2385    0.5220 C.2     1  UNL1        0.1507
     11 F           2.2874    0.7107    1.8019 F       1  UNL1       -0.2032
     12 C           1.0079    1.3522   -0.0010 C.2     1  UNL1       -0.0171
     13 C          -0.1020    0.8839    0.9012 C.ar    1  UNL1       -0.0217
     14 C          -0.2336    0.9951    2.2368 C.ar    1  UNL1       -0.0518
     15 C          -1.3383    0.3704    2.8439 C.ar    1  UNL1       -0.0255
     16 C          -2.2717   -0.3248    2.0722 C.ar    1  UNL1        0.1289
     17 F          -3.2520   -0.9600    2.7936 F       1  UNL1       -0.2051
     18 C          -2.1828   -0.4432    0.7410 C.ar    1  UNL1        0.0157
     19 C          -3.2052   -1.1614   -0.0518 C.3     1  UNL1        0.0931
     20 C          -2.4935   -1.5910   -1.3793 C.3     1  UNL1       -0.0352
     21 N          -3.3581   -2.4297    0.6069 N.2     1  UNL1       -0.2521
     22 C          -4.4386   -3.0295    0.9615 C.2     1  UNL1        0.1481
     23 N          -4.3816   -4.2667    1.6192 N.pl3   1  UNL1       -0.3380
     24 S          -5.9804   -2.2225    0.6691 S.3     1  UNL1       -0.0817
     25 C          -5.6982   -0.7320   -0.2460 C.3     1  UNL1        0.0528
     26 C          -6.6660   -0.4546   -1.3468 C.3     1  UNL1        0.0627
     27 O          -7.9658   -0.4247   -0.8962 O.3     1  UNL1       -0.3816
     28 C          -8.2525    0.4263    0.1396 C.3     1  UNL1        0.0365
     29 C          -5.1725    0.4565    0.5717 C.3     1  UNL1       -0.0287
     30 C          -4.2930   -0.3141   -0.4209 C.3     1  UNL1        0.0068
     31 C          -1.0694    0.1659    0.1356 C.ar    1  UNL1       -0.0463
     32 C           4.3355    2.5586   -0.1898 C.ar    1  UNL1        0.0596
     33 N           5.6066    2.5351   -0.7333 N.ar    1  UNL1       -0.2178
     34 H          11.4367    2.3549    0.3335 H       1  UNL1        0.0362
     35 H          12.3854    1.5479   -0.9702 H       1  UNL1        0.0362
     36 H          11.8814    0.5220    0.4198 H       1  UNL1        0.0362
     37 H           8.2917    0.2213   -3.4225 H       1  UNL1        0.0837
     38 H           8.1141   -1.0574   -2.1591 H       1  UNL1        0.0837
     39 H           5.5428   -0.5267   -1.6614 H       1  UNL1        0.0884
     40 H           0.8397    1.6660   -1.0078 H       1  UNL1        0.0653
     41 H           0.5591    1.4629    2.7976 H       1  UNL1        0.0624
     42 H          -1.4798    0.4638    3.9002 H       1  UNL1        0.0646
     43 H          -2.7391   -0.8446   -2.1476 H       1  UNL1        0.0256
     44 H          -2.8885   -2.6354   -1.6768 H       1  UNL1        0.0256
     45 H          -1.4100   -1.6182   -1.2089 H       1  UNL1        0.0256
     46 H          -3.7923   -4.2685    2.5642 H       1  UNL1        0.1442
     47 H          -4.8026   -5.1466    1.3957 H       1  UNL1        0.1442
     48 H          -6.3999    0.4791   -1.9000 H       1  UNL1        0.0574
     49 H          -6.6160   -1.2626   -2.1000 H       1  UNL1        0.0574
     50 H          -8.0823    1.4696   -0.1822 H       1  UNL1        0.0523
     51 H          -7.7347    0.1444    1.0941 H       1  UNL1        0.0523
     52 H          -9.3457    0.3175    0.3922 H       1  UNL1        0.0523
     53 H          -5.0911    0.3182    1.6555 H       1  UNL1        0.0283
     54 H          -5.6571    1.3899    0.2727 H       1  UNL1        0.0283
     55 H          -4.1313    0.3489   -1.3327 H       1  UNL1        0.0342
     56 H          -0.9697    0.1460   -0.9026 H       1  UNL1        0.0628
     57 H           4.0383    3.5846    0.2293 H       1  UNL1        0.0853
@<TRIPOS>BOND
     1     1     2    1
     2     2     3    3
     3     3     4    1
     4     4     5    1
     5     5     6    1
     6     6     7   ar
     7     7     8   ar
     8     8     9   ar
     9     9    10    1
    10    10    11    1
    11    10    12    2
    12    12    13    1
    13    13    14   ar
    14    14    15   ar
    15    15    16   ar
    16    16    17    1
    17    16    18   ar
    18    18    19    1
    19    19    20    1
    20    19    21    1
    21    21    22    2
    22    22    23    1
    23    22    24    1
    24    24    25    1
    25    25    26    1
    26    26    27    1
    27    27    28    1
    28    25    29    1
    29    29    30    1
    30    18    31   ar
    31     9    32   ar
    32    32    33   ar
    33    33     6   ar
    34    31    13   ar
    35    30    19    1
    36    30    25    1
    37     1    34    1
    38     1    35    1
    39     1    36    1
    40     4    37    1
    41     4    38    1
    42     7    39    1
    43    12    40    1
    44    14    41    1
    45    15    42    1
    46    20    43    1
    47    20    44    1
    48    20    45    1
    49    23    46    1
    50    23    47    1
    51    26    48    1
    52    26    49    1
    53    28    50    1
    54    28    51    1
    55    28    52    1
    56    29    53    1
    57    29    54    1
    58    30    55    1
    59    31    56    1
    60    32    57    1
