
     RDKit          3D

 57 60  0  0  0  0  0  0  0  0999 V2000
   11.5112    1.4295   -0.2217 C   0  0  0  0  0  0  0  0  0  0  0  0
   10.4164    1.0144   -0.8958 C   0  0  0  0  0  0  0  0  0  0  0  0
    9.3440    0.5943   -1.5666 C   0  0  0  0  0  0  0  0  0  0  0  0
    7.9986    0.0715   -2.4367 C   0  0  0  0  0  0  0  0  0  0  0  0
    7.0569    0.7458   -1.8432 O   0  0  0  0  0  0  0  0  0  0  0  0
    6.1087    1.4476   -1.2409 C   0  0  0  0  0  0  0  0  0  0  0  0
    5.0956    0.3571   -1.0973 C   0  0  0  0  0  0  0  0  0  0  0  0
    3.9887    0.3383   -0.6241 N   0  0  0  0  0  0  0  0  0  0  0  0
    3.4423    1.5855   -0.0591 C   0  0  0  0  0  0  0  0  0  0  0  0
    2.2066    1.2385    0.5220 C   0  0  0  0  0  0  0  0  0  0  0  0
    2.2874    0.7107    1.8019 F   0  0  0  0  0  0  0  0  0  0  0  0
    1.0079    1.3522   -0.0010 C   0  0  0  0  0  0  0  0  0  0  0  0
   -0.1020    0.8839    0.9012 C   0  0  0  0  0  0  0  0  0  0  0  0
   -0.2336    0.9951    2.2368 C   0  0  0  0  0  0  0  0  0  0  0  0
   -1.3383    0.3704    2.8439 C   0  0  0  0  0  0  0  0  0  0  0  0
   -2.2717   -0.3248    2.0722 C   0  0  0  0  0  0  0  0  0  0  0  0
   -3.2520   -0.9600    2.7936 F   0  0  0  0  0  0  0  0  0  0  0  0
   -2.1828   -0.4432    0.7410 C   0  0  0  0  0  0  0  0  0  0  0  0
   -3.2052   -1.1614   -0.0518 C   0  0  1  0  0  0  0  0  0  0  0  0
   -2.4935   -1.5910   -1.3793 C   0  0  0  0  0  0  0  0  0  0  0  0
   -3.3581   -2.4297    0.6069 N   0  0  0  0  0  0  0  0  0  0  0  0
   -4.4386   -3.0295    0.9615 C   0  0  0  0  0  0  0  0  0  0  0  0
   -4.3816   -4.2667    1.6192 N   0  0  0  0  0  0  0  0  0  0  0  0
   -5.9804   -2.2225    0.6691 S   0  0  0  0  0  0  0  0  0  0  0  0
   -5.6982   -0.7320   -0.2460 C   0  0  1  0  0  0  0  0  0  0  0  0
   -6.6660   -0.4546   -1.3468 C   0  0  0  0  0  0  0  0  0  0  0  0
   -7.9658   -0.4247   -0.8962 O   0  0  0  0  0  0  0  0  0  0  0  0
   -8.2525    0.4263    0.1396 C   0  0  0  0  0  0  0  0  0  0  0  0
   -5.1725    0.4565    0.5717 C   0  0  0  0  0  0  0  0  0  0  0  0
   -4.2930   -0.3141   -0.4209 C   0  0  1  0  0  0  0  0  0  0  0  0
   -1.0694    0.1659    0.1356 C   0  0  0  0  0  0  0  0  0  0  0  0
    4.3355    2.5586   -0.1898 C   0  0  0  0  0  0  0  0  0  0  0  0
    5.6066    2.5351   -0.7333 N   0  0  0  0  0  0  0  0  0  0  0  0
   11.4367    2.3549    0.3335 H   0  0  0  0  0  0  0  0  0  0  0  0
   12.3854    1.5479   -0.9702 H   0  0  0  0  0  0  0  0  0  0  0  0
   11.8814    0.5220    0.4198 H   0  0  0  0  0  0  0  0  0  0  0  0
    8.2917    0.2213   -3.4225 H   0  0  0  0  0  0  0  0  0  0  0  0
    8.1141   -1.0574   -2.1591 H   0  0  0  0  0  0  0  0  0  0  0  0
    5.5428   -0.5267   -1.6614 H   0  0  0  0  0  0  0  0  0  0  0  0
    0.8397    1.6660   -1.0078 H   0  0  0  0  0  0  0  0  0  0  0  0
    0.5591    1.4629    2.7976 H   0  0  0  0  0  0  0  0  0  0  0  0
   -1.4798    0.4638    3.9002 H   0  0  0  0  0  0  0  0  0  0  0  0
   -2.7391   -0.8446   -2.1476 H   0  0  0  0  0  0  0  0  0  0  0  0
   -2.8885   -2.6354   -1.6768 H   0  0  0  0  0  0  0  0  0  0  0  0
   -1.4100   -1.6182   -1.2089 H   0  0  0  0  0  0  0  0  0  0  0  0
   -3.7923   -4.2685    2.5642 H   0  0  0  0  0  0  0  0  0  0  0  0
   -4.8026   -5.1466    1.3957 H   0  0  0  0  0  0  0  0  0  0  0  0
   -6.3999    0.4791   -1.9000 H   0  0  0  0  0  0  0  0  0  0  0  0
   -6.6160   -1.2626   -2.1000 H   0  0  0  0  0  0  0  0  0  0  0  0
   -8.0823    1.4696   -0.1822 H   0  0  0  0  0  0  0  0  0  0  0  0
   -7.7347    0.1444    1.0941 H   0  0  0  0  0  0  0  0  0  0  0  0
   -9.3457    0.3175    0.3922 H   0  0  0  0  0  0  0  0  0  0  0  0
   -5.0911    0.3182    1.6555 H   0  0  0  0  0  0  0  0  0  0  0  0
   -5.6571    1.3899    0.2727 H   0  0  0  0  0  0  0  0  0  0  0  0
   -4.1313    0.3489   -1.3327 H   0  0  0  0  0  0  0  0  0  0  0  0
   -0.9697    0.1460   -0.9026 H   0  0  0  0  0  0  0  0  0  0  0  0
    4.0383    3.5846    0.2293 H   0  0  0  0  0  0  0  0  0  0  0  0
  1  2  1  0
  2  3  3  0
  3  4  1  0
  4  5  1  0
  5  6  1  0
  6  7  2  0
  7  8  1  0
  8  9  2  0
  9 10  1  0
 10 11  1  0
 10 12  2  0
 12 13  1  0
 13 14  2  0
 14 15  1  0
 15 16  2  0
 16 17  1  0
 16 18  1  0
 18 19  1  0
 19 20  1  6
 19 21  1  0
 21 22  2  0
 22 23  1  0
 22 24  1  0
 24 25  1  0
 25 26  1  6
 26 27  1  0
 27 28  1  0
 25 29  1  0
 29 30  1  0
 18 31  2  0
  9 32  1  0
 32 33  2  0
 33  6  1  0
 31 13  1  0
 30 19  1  0
 30 25  1  0
  1 34  1  0
  1 35  1  0
  1 36  1  0
  4 37  1  0
  4 38  1  0
  7 39  1  0
 12 40  1  0
 14 41  1  0
 15 42  1  0
 20 43  1  0
 20 44  1  0
 20 45  1  0
 23 46  1  0
 23 47  1  0
 26 48  1  0
 26 49  1  0
 28 50  1  0
 28 51  1  0
 28 52  1  0
 29 53  1  0
 29 54  1  0
 30 55  1  6
 31 56  1  0
 32 57  1  0
M  END
$$$$
