
     RDKit          3D

 52 56  0  0  0  0  0  0  0  0999 V2000
    0.1148    1.7287   -2.8013 C   0  0  0  0  0  0  0  0  0  0  0  0
    1.2730    1.3818   -1.9466 C   0  0  0  0  0  0  0  0  0  0  0  0
    2.5396    1.8817   -2.2073 C   0  0  0  0  0  0  0  0  0  0  0  0
    3.6049    1.5278   -1.3740 C   0  0  0  0  0  0  0  0  0  0  0  0
    3.4260    0.6933   -0.2987 C   0  0  0  0  0  0  0  0  0  0  0  0
    4.5095    0.2999    0.5943 C   0  0  0  0  0  0  0  0  0  0  0  0
    4.2896   -0.4807    1.5827 O   0  0  0  0  0  0  0  0  0  0  0  0
    5.8442    0.7294    0.4517 N   0  0  0  0  0  0  0  0  0  0  0  0
    6.8885    0.3048    1.3741 C   0  0  0  0  0  0  0  0  0  0  0  0
    8.0406    1.1794    1.6649 C   0  0  0  0  0  0  0  0  0  0  0  0
    8.2588   -0.0302    0.7766 C   0  0  0  0  0  0  0  0  0  0  0  0
    2.1624    0.2120   -0.0624 C   0  0  0  0  0  0  0  0  0  0  0  0
    1.0834    0.5443   -0.8709 C   0  0  0  0  0  0  0  0  0  0  0  0
   -0.2656    0.0391   -0.6304 C   0  0  0  0  0  0  0  0  0  0  0  0
   -0.6095   -1.1488   -1.2408 C   0  0  0  0  0  0  0  0  0  0  0  0
   -1.8718   -1.6654   -1.0435 C   0  0  0  0  0  0  0  0  0  0  0  0
   -2.4607   -2.8151   -1.5278 C   0  0  0  0  0  0  0  0  0  0  0  0
   -3.6966   -2.8219   -1.0181 N   0  0  0  0  0  0  0  0  0  0  0  0
   -3.8880   -1.7525   -0.2601 N   0  0  0  0  0  0  0  0  0  0  0  0
   -5.1056   -1.4931    0.4113 C   0  0  0  0  0  0  0  0  0  0  0  0
   -5.9676   -0.5323   -0.0487 C   0  0  0  0  0  0  0  0  0  0  0  0
   -5.6520    0.1841   -1.1518 F   0  0  0  0  0  0  0  0  0  0  0  0
   -7.1448   -0.2949    0.6025 C   0  0  0  0  0  0  0  0  0  0  0  0
   -7.5074   -1.0013    1.7308 C   0  0  0  0  0  0  0  0  0  0  0  0
   -6.6183   -1.9677    2.1760 C   0  0  0  0  0  0  0  0  0  0  0  0
   -5.4361   -2.2125    1.5298 C   0  0  0  0  0  0  0  0  0  0  0  0
   -4.5881   -3.1775    2.0058 F   0  0  0  0  0  0  0  0  0  0  0  0
   -2.7767   -0.9990   -0.2444 C   0  0  0  0  0  0  0  0  0  0  0  0
   -2.4076    0.1547    0.3339 N   0  0  0  0  0  0  0  0  0  0  0  0
   -3.3529    0.8728    1.1821 C   0  0  0  0  0  0  0  0  0  0  0  0
   -1.1753    0.6881    0.1597 C   0  0  0  0  0  0  0  0  0  0  0  0
   -0.8246    1.7645    0.6966 O   0  0  0  0  0  0  0  0  0  0  0  0
    0.3842    2.5862   -3.4732 H   0  0  0  0  0  0  0  0  0  0  0  0
   -0.2737    0.8684   -3.3777 H   0  0  0  0  0  0  0  0  0  0  0  0
   -0.7556    2.1115   -2.1992 H   0  0  0  0  0  0  0  0  0  0  0  0
    2.6954    2.5391   -3.0493 H   0  0  0  0  0  0  0  0  0  0  0  0
    4.5789    1.9174   -1.5814 H   0  0  0  0  0  0  0  0  0  0  0  0
    6.0869    1.3684   -0.3368 H   0  0  0  0  0  0  0  0  0  0  0  0
    6.5594   -0.3728    2.1860 H   0  0  0  0  0  0  0  0  0  0  0  0
    8.5373    1.0746    2.6537 H   0  0  0  0  0  0  0  0  0  0  0  0
    8.1324    2.1937    1.2388 H   0  0  0  0  0  0  0  0  0  0  0  0
    8.8052   -0.9034    1.1705 H   0  0  0  0  0  0  0  0  0  0  0  0
    8.3700    0.1437   -0.3207 H   0  0  0  0  0  0  0  0  0  0  0  0
    2.0093   -0.4464    0.7819 H   0  0  0  0  0  0  0  0  0  0  0  0
    0.0798   -1.6862   -1.8684 H   0  0  0  0  0  0  0  0  0  0  0  0
   -2.0216   -3.5564   -2.1807 H   0  0  0  0  0  0  0  0  0  0  0  0
   -7.8200    0.4613    0.2378 H   0  0  0  0  0  0  0  0  0  0  0  0
   -8.4368   -0.8225    2.2553 H   0  0  0  0  0  0  0  0  0  0  0  0
   -6.8815   -2.5369    3.0623 H   0  0  0  0  0  0  0  0  0  0  0  0
   -4.0432    1.5081    0.5972 H   0  0  0  0  0  0  0  0  0  0  0  0
   -2.7832    1.5609    1.8552 H   0  0  0  0  0  0  0  0  0  0  0  0
   -3.9094    0.1978    1.8498 H   0  0  0  0  0  0  0  0  0  0  0  0
  1  2  1  0
  2  3  2  0
  3  4  1  0
  4  5  2  0
  5  6  1  0
  6  7  2  0
  6  8  1  0
  8  9  1  0
  9 10  1  0
 10 11  1  0
  5 12  1  0
 12 13  2  0
 13 14  1  0
 14 15  2  0
 15 16  1  0
 16 17  1  0
 17 18  2  0
 18 19  1  0
 19 20  1  0
 20 21  2  0
 21 22  1  0
 21 23  1  0
 23 24  2  0
 24 25  1  0
 25 26  2  0
 26 27  1  0
 19 28  1  0
 28 29  1  0
 29 30  1  0
 29 31  1  0
 31 32  2  0
 13  2  1  0
 31 14  1  0
 11  9  1  0
 28 16  2  0
 26 20  1  0
  1 33  1  0
  1 34  1  0
  1 35  1  0
  3 36  1  0
  4 37  1  0
  8 38  1  0
  9 39  1  0
 10 40  1  0
 10 41  1  0
 11 42  1  0
 11 43  1  0
 12 44  1  0
 15 45  1  0
 17 46  1  0
 23 47  1  0
 24 48  1  0
 25 49  1  0
 30 50  1  0
 30 51  1  0
 30 52  1  0
M  END
$$$$
