@<TRIPOS>MOLECULE
*****
 52 56 0 0 0
SMALL
GASTEIGER

@<TRIPOS>ATOM
      1 C           0.1148    1.7287   -2.8013 C.3     1  UNL1       -0.0391
      2 C           1.2730    1.3818   -1.9466 C.ar    1  UNL1       -0.0425
      3 C           2.5396    1.8817   -2.2073 C.ar    1  UNL1       -0.0575
      4 C           3.6049    1.5278   -1.3740 C.ar    1  UNL1       -0.0494
      5 C           3.4260    0.6933   -0.2987 C.ar    1  UNL1        0.0373
      6 C           4.5095    0.2999    0.5943 C.2     1  UNL1        0.2443
      7 O           4.2896   -0.4807    1.5827 O.2     1  UNL1       -0.2702
      8 N           5.8442    0.7294    0.4517 N.am    1  UNL1       -0.3085
      9 C           6.8885    0.3048    1.3741 C.3     1  UNL1        0.0235
     10 C           8.0406    1.1794    1.6649 C.3     1  UNL1       -0.0328
     11 C           8.2588   -0.0302    0.7766 C.3     1  UNL1       -0.0328
     12 C           2.1624    0.2120   -0.0624 C.ar    1  UNL1       -0.0415
     13 C           1.0834    0.5443   -0.8709 C.ar    1  UNL1       -0.0091
     14 C          -0.2656    0.0391   -0.6304 C.ar    1  UNL1        0.0476
     15 C          -0.6095   -1.1488   -1.2408 C.ar    1  UNL1       -0.0367
     16 C          -1.8718   -1.6654   -1.0435 C.ar    1  UNL1        0.0381
     17 C          -2.4607   -2.8151   -1.5278 C.ar    1  UNL1        0.0591
     18 N          -3.6966   -2.8219   -1.0181 N.ar    1  UNL1       -0.1721
     19 N          -3.8880   -1.7525   -0.2601 N.ar    1  UNL1       -0.2100
     20 C          -5.1056   -1.4931    0.4113 C.ar    1  UNL1        0.1377
     21 C          -5.9676   -0.5323   -0.0487 C.ar    1  UNL1        0.1516
     22 F          -5.6520    0.1841   -1.1518 F       1  UNL1       -0.2032
     23 C          -7.1448   -0.2949    0.6025 C.ar    1  UNL1       -0.0242
     24 C          -7.5074   -1.0013    1.7308 C.ar    1  UNL1       -0.0562
     25 C          -6.6183   -1.9677    2.1760 C.ar    1  UNL1       -0.0242
     26 C          -5.4361   -2.2125    1.5298 C.ar    1  UNL1        0.1516
     27 F          -4.5881   -3.1775    2.0058 F       1  UNL1       -0.2032
     28 C          -2.7767   -0.9990   -0.2444 C.ar    1  UNL1        0.1469
     29 N          -2.4076    0.1547    0.3339 N.ar    1  UNL1       -0.2953
     30 C          -3.3529    0.8728    1.1821 C.3     1  UNL1        0.0167
     31 C          -1.1753    0.6881    0.1597 C.ar    1  UNL1        0.2603
     32 O          -0.8246    1.7645    0.6966 O.2     1  UNL1       -0.2670
     33 H           0.3842    2.5862   -3.4732 H       1  UNL1        0.0278
     34 H          -0.2737    0.8684   -3.3777 H       1  UNL1        0.0278
     35 H          -0.7556    2.1115   -2.1992 H       1  UNL1        0.0278
     36 H           2.6954    2.5391   -3.0493 H       1  UNL1        0.0621
     37 H           4.5789    1.9174   -1.5814 H       1  UNL1        0.0625
     38 H           6.0869    1.3684   -0.3368 H       1  UNL1        0.1493
     39 H           6.5594   -0.3728    2.1860 H       1  UNL1        0.0498
     40 H           8.5373    1.0746    2.6537 H       1  UNL1        0.0284
     41 H           8.1324    2.1937    1.2388 H       1  UNL1        0.0284
     42 H           8.8052   -0.9034    1.1705 H       1  UNL1        0.0284
     43 H           8.3700    0.1437   -0.3207 H       1  UNL1        0.0284
     44 H           2.0093   -0.4464    0.7819 H       1  UNL1        0.0631
     45 H           0.0798   -1.6862   -1.8684 H       1  UNL1        0.0633
     46 H          -2.0216   -3.5564   -2.1807 H       1  UNL1        0.0855
     47 H          -7.8200    0.4613    0.2378 H       1  UNL1        0.0647
     48 H          -8.4368   -0.8225    2.2553 H       1  UNL1        0.0619
     49 H          -6.8815   -2.5369    3.0623 H       1  UNL1        0.0647
     50 H          -4.0432    1.5081    0.5972 H       1  UNL1        0.0457
     51 H          -2.7832    1.5609    1.8552 H       1  UNL1        0.0457
     52 H          -3.9094    0.1978    1.8498 H       1  UNL1        0.0457
@<TRIPOS>BOND
     1     1     2    1
     2     2     3   ar
     3     3     4   ar
     4     4     5   ar
     5     5     6    1
     6     6     7    2
     7     6     8   am
     8     8     9    1
     9     9    10    1
    10    10    11    1
    11     5    12   ar
    12    12    13   ar
    13    13    14    1
    14    14    15   ar
    15    15    16   ar
    16    16    17   ar
    17    17    18   ar
    18    18    19   ar
    19    19    20    1
    20    20    21   ar
    21    21    22    1
    22    21    23   ar
    23    23    24   ar
    24    24    25   ar
    25    25    26   ar
    26    26    27    1
    27    19    28   ar
    28    28    29   ar
    29    29    30    1
    30    29    31   ar
    31    31    32    2
    32    13     2   ar
    33    31    14   ar
    34    11     9    1
    35    28    16   ar
    36    26    20   ar
    37     1    33    1
    38     1    34    1
    39     1    35    1
    40     3    36    1
    41     4    37    1
    42     8    38    1
    43     9    39    1
    44    10    40    1
    45    10    41    1
    46    11    42    1
    47    11    43    1
    48    12    44    1
    49    15    45    1
    50    17    46    1
    51    23    47    1
    52    24    48    1
    53    25    49    1
    54    30    50    1
    55    30    51    1
    56    30    52    1
