
     RDKit          3D

 68 73  0  0  0  0  0  0  0  0999 V2000
   -6.6315    0.7097   -2.5933 C   0  0  0  0  0  0  0  0  0  0  0  0
   -6.3104    0.1232   -1.1995 C   0  0  1  0  0  0  0  0  0  0  0  0
   -5.0924    0.3253   -0.7769 O   0  0  0  0  0  0  0  0  0  0  0  0
   -3.9549   -0.2154   -0.2152 C   0  0  0  0  0  0  0  0  0  0  0  0
   -2.8428    0.6003   -0.1066 C   0  0  0  0  0  0  0  0  0  0  0  0
   -1.7133    0.1379    0.4222 C   0  0  0  0  0  0  0  0  0  0  0  0
   -0.4197    0.6952    0.6698 N   0  0  0  0  0  0  0  0  0  0  0  0
   -0.1624    1.9729    0.9726 C   0  0  0  0  0  0  0  0  0  0  0  0
    1.1595    2.0953    1.1283 N   0  0  0  0  0  0  0  0  0  0  0  0
    1.7239    0.9053    0.9248 C   0  0  0  0  0  0  0  0  0  0  0  0
    3.0368    0.4699    0.9597 C   0  0  0  0  0  0  0  0  0  0  0  0
    3.3976   -0.8354    0.7128 C   0  0  0  0  0  0  0  0  0  0  0  0
    4.7871   -1.2432    0.7571 C   0  0  0  0  0  0  0  0  0  0  0  0
    5.1724   -2.5050    1.1410 C   0  0  0  0  0  0  0  0  0  0  0  0
    6.5311   -2.8348    1.1475 C   0  0  0  0  0  0  0  0  0  0  0  0
    7.4524   -1.9370    0.7850 N   0  0  0  0  0  0  0  0  0  0  0  0
    7.1032   -0.6742    0.3979 C   0  0  0  0  0  0  0  0  0  0  0  0
    8.1086    0.2359    0.0186 N   0  0  0  0  0  0  0  0  0  0  0  0
    7.8552    1.5644   -0.4572 C   0  0  0  0  0  0  0  0  0  0  0  0
    8.8417    2.0230   -1.5217 C   0  0  0  0  0  0  0  0  0  0  0  0
   10.1251    1.5900   -1.2632 O   0  0  0  0  0  0  0  0  0  0  0  0
   10.1312    0.2046   -1.2325 C   0  0  0  0  0  0  0  0  0  0  0  0
    9.5085   -0.1809    0.1089 C   0  0  0  0  0  0  0  0  0  0  0  0
    5.7657   -0.3464    0.3910 C   0  0  0  0  0  0  0  0  0  0  0  0
    2.3798   -1.7303    0.4191 C   0  0  0  0  0  0  0  0  0  0  0  0
    1.0714   -1.3088    0.3815 C   0  0  0  0  0  0  0  0  0  0  0  0
    0.7151    0.0195    0.6339 C   0  0  0  0  0  0  0  0  0  0  0  0
   -2.1538   -1.5954    0.8374 S   0  0  0  0  0  0  0  0  0  0  0  0
   -3.8400   -1.4913    0.2406 C   0  0  0  0  0  0  0  0  0  0  0  0
   -4.7004   -2.6158    0.4056 C   0  0  0  0  0  0  0  0  0  0  0  0
   -4.1142   -3.9178    0.6153 N   0  0  0  0  0  0  0  0  0  0  0  0
   -5.9178   -2.5764    0.3839 O   0  0  0  0  0  0  0  0  0  0  0  0
   -7.4410    0.4261   -0.2725 C   0  0  0  0  0  0  0  0  0  0  0  0
   -8.4113   -0.5423    0.0251 C   0  0  0  0  0  0  0  0  0  0  0  0
   -9.4670   -0.3108    0.8709 C   0  0  0  0  0  0  0  0  0  0  0  0
   -9.6052    0.9175    1.4680 C   0  0  0  0  0  0  0  0  0  0  0  0
   -8.6699    1.8624    1.1857 C   0  0  0  0  0  0  0  0  0  0  0  0
   -7.5742    1.6498    0.3189 C   0  0  0  0  0  0  0  0  0  0  0  0
   -6.6275    2.7361    0.0767 C   0  0  0  0  0  0  0  0  0  0  0  0
   -5.3388    2.5258    0.4336 F   0  0  0  0  0  0  0  0  0  0  0  0
   -6.7280    3.2588   -1.2261 F   0  0  0  0  0  0  0  0  0  0  0  0
   -7.0323    3.8404    0.8606 F   0  0  0  0  0  0  0  0  0  0  0  0
   -7.6443    1.1240   -2.5707 H   0  0  0  0  0  0  0  0  0  0  0  0
   -5.8374    1.4011   -2.9312 H   0  0  0  0  0  0  0  0  0  0  0  0
   -6.6510   -0.0954   -3.3533 H   0  0  0  0  0  0  0  0  0  0  0  0
   -6.4475   -0.9919   -1.4130 H   0  0  0  0  0  0  0  0  0  0  0  0
   -2.8682    1.6898   -0.4666 H   0  0  0  0  0  0  0  0  0  0  0  0
   -0.9211    2.7733    1.0726 H   0  0  0  0  0  0  0  0  0  0  0  0
    3.8056    1.2044    1.1939 H   0  0  0  0  0  0  0  0  0  0  0  0
    4.4623   -3.2580    1.4403 H   0  0  0  0  0  0  0  0  0  0  0  0
    6.8413   -3.8236    1.4478 H   0  0  0  0  0  0  0  0  0  0  0  0
    6.8591    1.7021   -0.8999 H   0  0  0  0  0  0  0  0  0  0  0  0
    7.9313    2.2856    0.4065 H   0  0  0  0  0  0  0  0  0  0  0  0
    8.5047    1.5541   -2.4759 H   0  0  0  0  0  0  0  0  0  0  0  0
    8.7682    3.1336   -1.5453 H   0  0  0  0  0  0  0  0  0  0  0  0
   11.1121   -0.2549   -1.3948 H   0  0  0  0  0  0  0  0  0  0  0  0
    9.3988   -0.1655   -1.9998 H   0  0  0  0  0  0  0  0  0  0  0  0
    9.6173   -1.2731    0.2190 H   0  0  0  0  0  0  0  0  0  0  0  0
   10.0255    0.3213    0.9420 H   0  0  0  0  0  0  0  0  0  0  0  0
    5.5041    0.6749    0.0823 H   0  0  0  0  0  0  0  0  0  0  0  0
    2.6601   -2.7637    0.2229 H   0  0  0  0  0  0  0  0  0  0  0  0
    0.2610   -1.9881    0.1540 H   0  0  0  0  0  0  0  0  0  0  0  0
   -3.3215   -4.2070   -0.0165 H   0  0  0  0  0  0  0  0  0  0  0  0
   -4.5028   -4.4915    1.3705 H   0  0  0  0  0  0  0  0  0  0  0  0
   -8.3015   -1.5083   -0.4489 H   0  0  0  0  0  0  0  0  0  0  0  0
  -10.1864   -1.0791    1.0709 H   0  0  0  0  0  0  0  0  0  0  0  0
  -10.4165    1.1606    2.1447 H   0  0  0  0  0  0  0  0  0  0  0  0
   -8.7707    2.8471    1.6574 H   0  0  0  0  0  0  0  0  0  0  0  0
  1  2  1  0
  2  3  1  0
  3  4  1  0
  4  5  1  0
  5  6  2  0
  6  7  1  0
  7  8  1  0
  8  9  2  0
  9 10  1  0
 10 11  2  0
 11 12  1  0
 12 13  1  0
 13 14  2  0
 14 15  1  0
 15 16  2  0
 16 17  1  0
 17 18  1  0
 18 19  1  0
 19 20  1  0
 20 21  1  0
 21 22  1  0
 22 23  1  0
 17 24  2  0
 12 25  2  0
 25 26  1  0
 26 27  2  0
  6 28  1  0
 28 29  1  0
 29 30  1  0
 30 31  1  0
 30 32  2  0
  2 33  1  0
 33 34  2  0
 34 35  1  0
 35 36  2  0
 36 37  1  0
 37 38  2  0
 38 39  1  0
 39 40  1  0
 39 41  1  0
 39 42  1  0
 29  4  2  0
 38 33  1  0
 27  7  1  0
 27 10  1  0
 24 13  1  0
 23 18  1  0
  1 43  1  0
  1 44  1  0
  1 45  1  0
  2 46  1  6
  5 47  1  0
  8 48  1  0
 11 49  1  0
 14 50  1  0
 15 51  1  0
 19 52  1  0
 19 53  1  0
 20 54  1  0
 20 55  1  0
 22 56  1  0
 22 57  1  0
 23 58  1  0
 23 59  1  0
 24 60  1  0
 25 61  1  0
 26 62  1  0
 31 63  1  0
 31 64  1  0
 34 65  1  0
 35 66  1  0
 36 67  1  0
 37 68  1  0
M  END
$$$$
