@<TRIPOS>MOLECULE
*****
 68 73 0 0 0
SMALL
GASTEIGER

@<TRIPOS>ATOM
      1 C          -6.6315    0.7097   -2.5933 C.3     1  UNL1       -0.0235
      2 C          -6.3104    0.1232   -1.1995 C.3     1  UNL1        0.1229
      3 O          -5.0924    0.3253   -0.7769 O.3     1  UNL1       -0.4831
      4 C          -3.9549   -0.2154   -0.2152 C.ar    1  UNL1        0.1426
      5 C          -2.8428    0.6003   -0.1066 C.ar    1  UNL1        0.0121
      6 C          -1.7133    0.1379    0.4222 C.ar    1  UNL1        0.0901
      7 N          -0.4197    0.6952    0.6698 N.ar    1  UNL1       -0.2924
      8 C          -0.1624    1.9729    0.9726 C.ar    1  UNL1        0.1019
      9 N           1.1595    2.0953    1.1283 N.ar    1  UNL1       -0.2353
     10 C           1.7239    0.9053    0.9248 C.ar    1  UNL1        0.0899
     11 C           3.0368    0.4699    0.9597 C.ar    1  UNL1       -0.0265
     12 C           3.3976   -0.8354    0.7128 C.ar    1  UNL1       -0.0156
     13 C           4.7871   -1.2432    0.7571 C.ar    1  UNL1       -0.0131
     14 C           5.1724   -2.5050    1.1410 C.ar    1  UNL1       -0.0357
     15 C           6.5311   -2.8348    1.1475 C.ar    1  UNL1        0.0303
     16 N           7.4524   -1.9370    0.7850 N.ar    1  UNL1       -0.2403
     17 C           7.1032   -0.6742    0.3979 C.ar    1  UNL1        0.1219
     18 N           8.1086    0.2359    0.0186 N.pl3   1  UNL1       -0.3108
     19 C           7.8552    1.5644   -0.4572 C.3     1  UNL1        0.0370
     20 C           8.8417    2.0230   -1.5217 C.3     1  UNL1        0.0634
     21 O          10.1251    1.5900   -1.2632 O.3     1  UNL1       -0.3767
     22 C          10.1312    0.2046   -1.2325 C.3     1  UNL1        0.0634
     23 C           9.5085   -0.1809    0.1089 C.3     1  UNL1        0.0370
     24 C           5.7657   -0.3464    0.3910 C.ar    1  UNL1       -0.0140
     25 C           2.3798   -1.7303    0.4191 C.ar    1  UNL1       -0.0519
     26 C           1.0714   -1.3088    0.3815 C.ar    1  UNL1       -0.0351
     27 C           0.7151    0.0195    0.6339 C.ar    1  UNL1        0.0738
     28 S          -2.1538   -1.5954    0.8374 S.2     1  UNL1       -0.0624
     29 C          -3.8400   -1.4913    0.2406 C.ar    1  UNL1        0.1172
     30 C          -4.7004   -2.6158    0.4056 C.2     1  UNL1        0.2518
     31 N          -4.1142   -3.9178    0.6153 N.am    1  UNL1       -0.3248
     32 O          -5.9178   -2.5764    0.3839 O.2     1  UNL1       -0.2697
     33 C          -7.4410    0.4261   -0.2725 C.ar    1  UNL1        0.0040
     34 C          -8.4113   -0.5423    0.0251 C.ar    1  UNL1       -0.0546
     35 C          -9.4670   -0.3108    0.8709 C.ar    1  UNL1       -0.0614
     36 C          -9.6052    0.9175    1.4680 C.ar    1  UNL1       -0.0612
     37 C          -8.6699    1.8624    1.1857 C.ar    1  UNL1       -0.0497
     38 C          -7.5742    1.6498    0.3189 C.ar    1  UNL1        0.0614
     39 C          -6.6275    2.7361    0.0767 C.3     1  UNL1        0.4178
     40 F          -5.3388    2.5258    0.4336 F       1  UNL1       -0.1659
     41 F          -6.7280    3.2588   -1.2261 F       1  UNL1       -0.1659
     42 F          -7.0323    3.8404    0.8606 F       1  UNL1       -0.1659
     43 H          -7.6443    1.1240   -2.5707 H       1  UNL1        0.0269
     44 H          -5.8374    1.4011   -2.9312 H       1  UNL1        0.0269
     45 H          -6.6510   -0.0954   -3.3533 H       1  UNL1        0.0269
     46 H          -6.4475   -0.9919   -1.4130 H       1  UNL1        0.0781
     47 H          -2.8682    1.6898   -0.4666 H       1  UNL1        0.0681
     48 H          -0.9211    2.7733    1.0726 H       1  UNL1        0.1033
     49 H           3.8056    1.2044    1.1939 H       1  UNL1        0.0645
     50 H           4.4623   -3.2580    1.4403 H       1  UNL1        0.0639
     51 H           6.8413   -3.8236    1.4478 H       1  UNL1        0.0830
     52 H           6.8591    1.7021   -0.8999 H       1  UNL1        0.0487
     53 H           7.9313    2.2856    0.4065 H       1  UNL1        0.0487
     54 H           8.5047    1.5541   -2.4759 H       1  UNL1        0.0575
     55 H           8.7682    3.1336   -1.5453 H       1  UNL1        0.0575
     56 H          11.1121   -0.2549   -1.3948 H       1  UNL1        0.0575
     57 H           9.3988   -0.1655   -1.9998 H       1  UNL1        0.0575
     58 H           9.6173   -1.2731    0.2190 H       1  UNL1        0.0487
     59 H          10.0255    0.3213    0.9420 H       1  UNL1        0.0487
     60 H           5.5041    0.6749    0.0823 H       1  UNL1        0.0658
     61 H           2.6601   -2.7637    0.2229 H       1  UNL1        0.0624
     62 H           0.2610   -1.9881    0.1540 H       1  UNL1        0.0639
     63 H          -3.3215   -4.2070   -0.0165 H       1  UNL1        0.1453
     64 H          -4.5028   -4.4915    1.3705 H       1  UNL1        0.1453
     65 H          -8.3015   -1.5083   -0.4489 H       1  UNL1        0.0622
     66 H         -10.1864   -1.0791    1.0709 H       1  UNL1        0.0618
     67 H         -10.4165    1.1606    2.1447 H       1  UNL1        0.0618
     68 H          -8.7707    2.8471    1.6574 H       1  UNL1        0.0623
@<TRIPOS>BOND
     1     1     2    1
     2     2     3    1
     3     3     4    1
     4     4     5   ar
     5     5     6   ar
     6     6     7    1
     7     7     8   ar
     8     8     9   ar
     9     9    10   ar
    10    10    11   ar
    11    11    12   ar
    12    12    13    1
    13    13    14   ar
    14    14    15   ar
    15    15    16   ar
    16    16    17   ar
    17    17    18    1
    18    18    19    1
    19    19    20    1
    20    20    21    1
    21    21    22    1
    22    22    23    1
    23    17    24   ar
    24    12    25   ar
    25    25    26   ar
    26    26    27   ar
    27     6    28   ar
    28    28    29   ar
    29    29    30    1
    30    30    31   am
    31    30    32    2
    32     2    33    1
    33    33    34   ar
    34    34    35   ar
    35    35    36   ar
    36    36    37   ar
    37    37    38   ar
    38    38    39    1
    39    39    40    1
    40    39    41    1
    41    39    42    1
    42    29     4   ar
    43    38    33   ar
    44    27     7   ar
    45    27    10   ar
    46    24    13   ar
    47    23    18    1
    48     1    43    1
    49     1    44    1
    50     1    45    1
    51     2    46    1
    52     5    47    1
    53     8    48    1
    54    11    49    1
    55    14    50    1
    56    15    51    1
    57    19    52    1
    58    19    53    1
    59    20    54    1
    60    20    55    1
    61    22    56    1
    62    22    57    1
    63    23    58    1
    64    23    59    1
    65    24    60    1
    66    25    61    1
    67    26    62    1
    68    31    63    1
    69    31    64    1
    70    34    65    1
    71    35    66    1
    72    36    67    1
    73    37    68    1
