
     RDKit          3D

 46 48  0  0  0  0  0  0  0  0999 V2000
   -4.1834    0.0460    1.2054 C   0  0  0  0  0  0  0  0  0  0  0  0
   -3.2867    0.9703    0.4108 C   0  0  0  0  0  0  0  0  0  0  0  0
   -4.1266    1.7231   -0.6037 C   0  0  0  0  0  0  0  0  0  0  0  0
   -2.2962    0.2601   -0.3071 O   0  0  0  0  0  0  0  0  0  0  0  0
   -0.9126    0.4612   -0.0882 C   0  0  0  0  0  0  0  0  0  0  0  0
   -0.6835    1.3208    0.7942 O   0  0  0  0  0  0  0  0  0  0  0  0
    0.0979   -0.2873   -0.8450 C   0  0  0  0  0  0  0  0  0  0  0  0
    1.4997    0.0483   -0.4714 C   0  0  0  0  0  0  0  0  0  0  0  0
    1.8076    1.4706   -0.3150 C   0  0  0  0  0  0  0  0  0  0  0  0
    1.9961    2.2696   -1.4209 C   0  0  0  0  0  0  0  0  0  0  0  0
    2.3130    3.6227   -1.3065 C   0  0  0  0  0  0  0  0  0  0  0  0
    2.4431    4.1835   -0.0554 C   0  0  0  0  0  0  0  0  0  0  0  0
    2.2594    3.4035    1.0620 C   0  0  0  0  0  0  0  0  0  0  0  0
    1.9449    2.0602    0.9195 C   0  0  0  0  0  0  0  0  0  0  0  0
    2.0323   -0.8006    0.6755 C   0  0  0  0  0  0  0  0  0  0  0  0
    1.8956   -2.2636    0.3209 C   0  0  0  0  0  0  0  0  0  0  0  0
    0.8581   -2.8445    1.2654 C   0  0  0  0  0  0  0  0  0  0  0  0
   -0.3908   -2.0955    0.7882 C   0  0  0  0  0  0  0  0  0  0  0  0
   -0.0706   -1.8030   -0.6548 C   0  0  0  0  0  0  0  0  0  0  0  0
    1.2097   -2.3859   -0.9496 N   0  0  0  0  0  0  0  0  0  0  0  0
    1.1500   -3.7176   -1.4425 C   0  0  0  0  0  0  0  0  0  0  0  0
   -3.5887   -0.7213    1.7395 H   0  0  0  0  0  0  0  0  0  0  0  0
   -4.7126    0.6344    1.9838 H   0  0  0  0  0  0  0  0  0  0  0  0
   -4.9706   -0.3925    0.5554 H   0  0  0  0  0  0  0  0  0  0  0  0
   -2.8405    1.6803    1.1421 H   0  0  0  0  0  0  0  0  0  0  0  0
   -3.6678    1.6829   -1.6256 H   0  0  0  0  0  0  0  0  0  0  0  0
   -5.1122    1.2124   -0.7085 H   0  0  0  0  0  0  0  0  0  0  0  0
   -4.2250    2.7997   -0.3578 H   0  0  0  0  0  0  0  0  0  0  0  0
   -0.0137   -0.1169   -1.9595 H   0  0  0  0  0  0  0  0  0  0  0  0
    2.1147   -0.3069   -1.3765 H   0  0  0  0  0  0  0  0  0  0  0  0
    1.9026    1.8662   -2.4151 H   0  0  0  0  0  0  0  0  0  0  0  0
    2.4619    4.2538   -2.1689 H   0  0  0  0  0  0  0  0  0  0  0  0
    2.6876    5.2280    0.0930 H   0  0  0  0  0  0  0  0  0  0  0  0
    2.3579    3.8283    2.0555 H   0  0  0  0  0  0  0  0  0  0  0  0
    1.8119    1.4502    1.8012 H   0  0  0  0  0  0  0  0  0  0  0  0
    3.1276   -0.5479    0.7433 H   0  0  0  0  0  0  0  0  0  0  0  0
    1.5743   -0.5653    1.6358 H   0  0  0  0  0  0  0  0  0  0  0  0
    2.8322   -2.8216    0.3703 H   0  0  0  0  0  0  0  0  0  0  0  0
    1.0758   -2.6466    2.3187 H   0  0  0  0  0  0  0  0  0  0  0  0
    0.7352   -3.9356    1.1169 H   0  0  0  0  0  0  0  0  0  0  0  0
   -0.4136   -1.1431    1.3722 H   0  0  0  0  0  0  0  0  0  0  0  0
   -1.2967   -2.6991    0.8967 H   0  0  0  0  0  0  0  0  0  0  0  0
   -0.8303   -2.2037   -1.3477 H   0  0  0  0  0  0  0  0  0  0  0  0
    2.1721   -4.1446   -1.4269 H   0  0  0  0  0  0  0  0  0  0  0  0
    0.8416   -3.6762   -2.5137 H   0  0  0  0  0  0  0  0  0  0  0  0
    0.4196   -4.3564   -0.9060 H   0  0  0  0  0  0  0  0  0  0  0  0
  1  2  1  0
  2  3  1  0
  2  4  1  0
  4  5  1  0
  5  6  2  0
  5  7  1  0
  7  8  1  0
  8  9  1  0
  9 10  2  0
 10 11  1  0
 11 12  2  0
 12 13  1  0
 13 14  2  0
  8 15  1  0
 15 16  1  0
 16 17  1  0
 17 18  1  0
 18 19  1  0
 19 20  1  0
 20 21  1  0
 19  7  1  0
 14  9  1  0
 20 16  1  0
  1 22  1  0
  1 23  1  0
  1 24  1  0
  2 25  1  0
  3 26  1  0
  3 27  1  0
  3 28  1  0
  7 29  1  0
  8 30  1  0
 10 31  1  0
 11 32  1  0
 12 33  1  0
 13 34  1  0
 14 35  1  0
 15 36  1  0
 15 37  1  0
 16 38  1  0
 17 39  1  0
 17 40  1  0
 18 41  1  0
 18 42  1  0
 19 43  1  0
 21 44  1  0
 21 45  1  0
 21 46  1  0
M  END
$$$$
