@<TRIPOS>MOLECULE
*****
 46 48 0 0 0
SMALL
GASTEIGER

@<TRIPOS>ATOM
      1 C          -4.1834    0.0460    1.2054 C.3     1  UNL1       -0.0280
      2 C          -3.2867    0.9703    0.4108 C.3     1  UNL1        0.0975
      3 C          -4.1266    1.7231   -0.6037 C.3     1  UNL1       -0.0280
      4 O          -2.2962    0.2601   -0.3071 O.3     1  UNL1       -0.4617
      5 C          -0.9126    0.4612   -0.0882 C.2     1  UNL1        0.3125
      6 O          -0.6835    1.3208    0.7942 O.2     1  UNL1       -0.2504
      7 C           0.0979   -0.2873   -0.8450 C.3     1  UNL1        0.0787
      8 C           1.4997    0.0483   -0.4714 C.3     1  UNL1       -0.0001
      9 C           1.8076    1.4706   -0.3150 C.ar    1  UNL1       -0.0434
     10 C           1.9961    2.2696   -1.4209 C.ar    1  UNL1       -0.0583
     11 C           2.3130    3.6227   -1.3065 C.ar    1  UNL1       -0.0615
     12 C           2.4431    4.1835   -0.0554 C.ar    1  UNL1       -0.0617
     13 C           2.2594    3.4035    1.0620 C.ar    1  UNL1       -0.0615
     14 C           1.9449    2.0602    0.9195 C.ar    1  UNL1       -0.0583
     15 C           2.0323   -0.8006    0.6755 C.3     1  UNL1       -0.0297
     16 C           1.8956   -2.2636    0.3209 C.3     1  UNL1        0.0110
     17 C           0.8581   -2.8445    1.2654 C.3     1  UNL1       -0.0359
     18 C          -0.3908   -2.0955    0.7882 C.3     1  UNL1       -0.0351
     19 C          -0.0706   -1.8030   -0.6548 C.3     1  UNL1        0.0239
     20 N           1.2097   -2.3859   -0.9496 N.3     1  UNL1       -0.2986
     21 C           1.1500   -3.7176   -1.4425 C.3     1  UNL1       -0.0122
     22 H          -3.5887   -0.7213    1.7395 H       1  UNL1        0.0265
     23 H          -4.7126    0.6344    1.9838 H       1  UNL1        0.0265
     24 H          -4.9706   -0.3925    0.5554 H       1  UNL1        0.0265
     25 H          -2.8405    1.6803    1.1421 H       1  UNL1        0.0728
     26 H          -3.6678    1.6829   -1.6256 H       1  UNL1        0.0265
     27 H          -5.1122    1.2124   -0.7085 H       1  UNL1        0.0265
     28 H          -4.2250    2.7997   -0.3578 H       1  UNL1        0.0265
     29 H          -0.0137   -0.1169   -1.9595 H       1  UNL1        0.0435
     30 H           2.1147   -0.3069   -1.3765 H       1  UNL1        0.0358
     31 H           1.9026    1.8662   -2.4151 H       1  UNL1        0.0620
     32 H           2.4619    4.2538   -2.1689 H       1  UNL1        0.0618
     33 H           2.6876    5.2280    0.0930 H       1  UNL1        0.0618
     34 H           2.3579    3.8283    2.0555 H       1  UNL1        0.0618
     35 H           1.8119    1.4502    1.8012 H       1  UNL1        0.0620
     36 H           3.1276   -0.5479    0.7433 H       1  UNL1        0.0286
     37 H           1.5743   -0.5653    1.6358 H       1  UNL1        0.0286
     38 H           2.8322   -2.8216    0.3703 H       1  UNL1        0.0463
     39 H           1.0758   -2.6466    2.3187 H       1  UNL1        0.0281
     40 H           0.7352   -3.9356    1.1169 H       1  UNL1        0.0281
     41 H          -0.4136   -1.1431    1.3722 H       1  UNL1        0.0281
     42 H          -1.2967   -2.6991    0.8967 H       1  UNL1        0.0281
     43 H          -0.8303   -2.2037   -1.3477 H       1  UNL1        0.0471
     44 H           2.1721   -4.1446   -1.4269 H       1  UNL1        0.0391
     45 H           0.8416   -3.6762   -2.5137 H       1  UNL1        0.0391
     46 H           0.4196   -4.3564   -0.9060 H       1  UNL1        0.0391
@<TRIPOS>BOND
     1     1     2    1
     2     2     3    1
     3     2     4    1
     4     4     5    1
     5     5     6    2
     6     5     7    1
     7     7     8    1
     8     8     9    1
     9     9    10   ar
    10    10    11   ar
    11    11    12   ar
    12    12    13   ar
    13    13    14   ar
    14     8    15    1
    15    15    16    1
    16    16    17    1
    17    17    18    1
    18    18    19    1
    19    19    20    1
    20    20    21    1
    21    19     7    1
    22    14     9   ar
    23    20    16    1
    24     1    22    1
    25     1    23    1
    26     1    24    1
    27     2    25    1
    28     3    26    1
    29     3    27    1
    30     3    28    1
    31     7    29    1
    32     8    30    1
    33    10    31    1
    34    11    32    1
    35    12    33    1
    36    13    34    1
    37    14    35    1
    38    15    36    1
    39    15    37    1
    40    16    38    1
    41    17    39    1
    42    17    40    1
    43    18    41    1
    44    18    42    1
    45    19    43    1
    46    21    44    1
    47    21    45    1
    48    21    46    1
