
     RDKit          3D

 37 40  0  0  0  0  0  0  0  0999 V2000
   -4.1983   -1.8380   -3.7972 N   0  0  0  0  0  0  0  0  0  0  0  0
   -3.1249   -1.6925   -2.8127 C   0  0  0  0  0  0  0  0  0  0  0  0
   -2.7884   -1.0706   -1.9529 N   0  0  0  0  0  0  0  0  0  0  0  0
   -1.7122   -1.1244   -1.1510 C   0  0  0  0  0  0  0  0  0  0  0  0
   -1.4814   -0.1103   -0.1159 C   0  0  0  0  0  0  0  0  0  0  0  0
   -2.2805    0.9842    0.1037 N   0  0  0  0  0  0  0  0  0  0  0  0
   -1.8333    1.7127    1.1225 C   0  0  0  0  0  0  0  0  0  0  0  0
   -2.2960    2.8855    1.6955 C   0  0  0  0  0  0  0  0  0  0  0  0
   -1.6053    3.4265    2.7598 C   0  0  0  0  0  0  0  0  0  0  0  0
   -0.4731    2.8468    3.2758 C   0  0  0  0  0  0  0  0  0  0  0  0
    0.4280    3.4876    4.6090 Cl  0  0  0  0  0  0  0  0  0  0  0  0
   -0.0171    1.6668    2.6913 C   0  0  0  0  0  0  0  0  0  0  0  0
   -0.7059    1.1263    1.6306 C   0  0  0  0  0  0  0  0  0  0  0  0
   -0.5040   -0.0349    0.8279 C   0  0  0  0  0  0  0  0  0  0  0  0
    0.7734   -1.1436    1.2012 S   0  0  0  0  0  6  0  0  0  0  0  0
    0.3646   -2.5830    1.1231 O   0  0  0  0  0  0  0  0  0  0  0  0
    1.1934   -0.9374    2.6952 O   0  0  0  0  0  0  0  0  0  0  0  0
    2.2036   -0.8952    0.2658 C   0  0  0  0  0  0  0  0  0  0  0  0
    2.8714    0.3031    0.4428 C   0  0  0  0  0  0  0  0  0  0  0  0
    4.0380    0.6109   -0.2102 C   0  0  0  0  0  0  0  0  0  0  0  0
    4.5318   -0.3401   -1.0693 C   0  0  0  0  0  0  0  0  0  0  0  0
    3.8914   -1.5335   -1.2625 C   0  0  0  0  0  0  0  0  0  0  0  0
    2.7285   -1.8064   -0.5926 C   0  0  0  0  0  0  0  0  0  0  0  0
   -0.8903   -2.1360   -1.4673 C   0  0  0  0  0  0  0  0  0  0  0  0
   -1.7340   -2.9723   -2.9319 S   0  0  0  0  0  0  0  0  0  0  0  0
   -4.5367   -2.8152   -4.0142 H   0  0  0  0  0  0  0  0  0  0  0  0
   -4.5990   -0.9989   -4.2542 H   0  0  0  0  0  0  0  0  0  0  0  0
   -3.1375    1.1814   -0.4930 H   0  0  0  0  0  0  0  0  0  0  0  0
   -3.1812    3.3110    1.2684 H   0  0  0  0  0  0  0  0  0  0  0  0
   -1.9625    4.3365    3.2063 H   0  0  0  0  0  0  0  0  0  0  0  0
    0.8670    1.1814    3.0495 H   0  0  0  0  0  0  0  0  0  0  0  0
    2.4846    1.0634    1.1240 H   0  0  0  0  0  0  0  0  0  0  0  0
    4.5557    1.5566   -0.0637 H   0  0  0  0  0  0  0  0  0  0  0  0
    5.4604   -0.0798   -1.5813 H   0  0  0  0  0  0  0  0  0  0  0  0
    4.3366   -2.2388   -1.9552 H   0  0  0  0  0  0  0  0  0  0  0  0
    2.2808   -2.7850   -0.7809 H   0  0  0  0  0  0  0  0  0  0  0  0
    0.0525   -2.5446   -1.1548 H   0  0  0  0  0  0  0  0  0  0  0  0
  1  2  1  0
  2  3  2  0
  3  4  1  0
  4  5  1  0
  5  6  1  0
  6  7  1  0
  7  8  2  0
  8  9  1  0
  9 10  2  0
 10 11  1  0
 10 12  1  0
 12 13  2  0
 13 14  1  0
 14 15  1  0
 15 16  2  0
 15 17  2  0
 15 18  1  0
 18 19  2  0
 19 20  1  0
 20 21  2  0
 21 22  1  0
 22 23  2  0
  4 24  2  0
 24 25  1  0
 25  2  1  0
 14  5  2  0
 23 18  1  0
 13  7  1  0
  1 26  1  0
  1 27  1  0
  6 28  1  0
  8 29  1  0
  9 30  1  0
 12 31  1  0
 19 32  1  0
 20 33  1  0
 21 34  1  0
 22 35  1  0
 23 36  1  0
 24 37  1  0
M  END
$$$$
