@<TRIPOS>MOLECULE
*****
 37 40 0 0 0
SMALL
GASTEIGER

@<TRIPOS>ATOM
      1 N          -4.1983   -1.8380   -3.7972 N.pl3   1  UNL1       -0.3375
      2 C          -3.1249   -1.6925   -2.8127 C.ar    1  UNL1        0.1562
      3 N          -2.7884   -1.0706   -1.9529 N.ar    1  UNL1       -0.2236
      4 C          -1.7122   -1.1244   -1.1510 C.ar    1  UNL1        0.0982
      5 C          -1.4814   -0.1103   -0.1159 C.ar    1  UNL1        0.0921
      6 N          -2.2805    0.9842    0.1037 N.ar    1  UNL1       -0.3514
      7 C          -1.8333    1.7127    1.1225 C.ar    1  UNL1        0.0489
      8 C          -2.2960    2.8855    1.6955 C.ar    1  UNL1       -0.0363
      9 C          -1.6053    3.4265    2.7598 C.ar    1  UNL1       -0.0414
     10 C          -0.4731    2.8468    3.2758 C.ar    1  UNL1        0.0417
     11 CL          0.4280    3.4876    4.6090 Cl      1  UNL1       -0.0835
     12 C          -0.0171    1.6668    2.6913 C.ar    1  UNL1       -0.0324
     13 C          -0.7059    1.1263    1.6306 C.ar    1  UNL1        0.0270
     14 C          -0.5040   -0.0349    0.8279 C.ar    1  UNL1        0.1279
     15 S           0.7734   -1.1436    1.2012 S.O2    1  UNL1        0.0277
     16 O           0.3646   -2.5830    1.1231 O.2     1  UNL1       -0.1642
     17 O           1.1934   -0.9374    2.6952 O.2     1  UNL1       -0.1642
     18 C           2.2036   -0.8952    0.2658 C.ar    1  UNL1        0.0937
     19 C           2.8714    0.3031    0.4428 C.ar    1  UNL1       -0.0365
     20 C           4.0380    0.6109   -0.2102 C.ar    1  UNL1       -0.0599
     21 C           4.5318   -0.3401   -1.0693 C.ar    1  UNL1       -0.0616
     22 C           3.8914   -1.5335   -1.2625 C.ar    1  UNL1       -0.0599
     23 C           2.7285   -1.8064   -0.5926 C.ar    1  UNL1       -0.0365
     24 C          -0.8903   -2.1360   -1.4673 C.ar    1  UNL1        0.0064
     25 S          -1.7340   -2.9723   -2.9319 S.2     1  UNL1       -0.0604
     26 H          -4.5367   -2.8152   -4.0142 H       1  UNL1        0.1442
     27 H          -4.5990   -0.9989   -4.2542 H       1  UNL1        0.1442
     28 H          -3.1375    1.1814   -0.4930 H       1  UNL1        0.1660
     29 H          -3.1812    3.3110    1.2684 H       1  UNL1        0.0639
     30 H          -1.9625    4.3365    3.2063 H       1  UNL1        0.0633
     31 H           0.8670    1.1814    3.0495 H       1  UNL1        0.0639
     32 H           2.4846    1.0634    1.1240 H       1  UNL1        0.0637
     33 H           4.5557    1.5566   -0.0637 H       1  UNL1        0.0618
     34 H           5.4604   -0.0798   -1.5813 H       1  UNL1        0.0618
     35 H           4.3366   -2.2388   -1.9552 H       1  UNL1        0.0618
     36 H           2.2808   -2.7850   -0.7809 H       1  UNL1        0.0637
     37 H           0.0525   -2.5446   -1.1548 H       1  UNL1        0.0716
@<TRIPOS>BOND
     1     1     2    1
     2     2     3   ar
     3     3     4   ar
     4     4     5    1
     5     5     6   ar
     6     6     7   ar
     7     7     8   ar
     8     8     9   ar
     9     9    10   ar
    10    10    11    1
    11    10    12   ar
    12    12    13   ar
    13    13    14   ar
    14    14    15    1
    15    15    16    2
    16    15    17    2
    17    15    18    1
    18    18    19   ar
    19    19    20   ar
    20    20    21   ar
    21    21    22   ar
    22    22    23   ar
    23     4    24   ar
    24    24    25   ar
    25    25     2   ar
    26    14     5   ar
    27    23    18   ar
    28    13     7   ar
    29     1    26    1
    30     1    27    1
    31     6    28    1
    32     8    29    1
    33     9    30    1
    34    12    31    1
    35    19    32    1
    36    20    33    1
    37    21    34    1
    38    22    35    1
    39    23    36    1
    40    24    37    1
