@<TRIPOS>MOLECULE
*****
 54 57 0 0 0
SMALL
GASTEIGER

@<TRIPOS>ATOM
      1 C          -1.5312   -1.2641   -2.6057 C.3     1  UNL1       -0.0352
      2 C          -1.1469   -0.6504   -1.2530 C.3     1  UNL1        0.0950
      3 C           0.0747    0.1818   -1.5461 C.ar    1  UNL1        0.0168
      4 C           1.3217   -0.1192   -1.0445 C.ar    1  UNL1       -0.0323
      5 C           2.4331    0.6680   -1.3320 C.ar    1  UNL1        0.0342
      6 N           3.6721    0.2862   -0.7763 N.am    1  UNL1       -0.2802
      7 C           4.1345    0.7486    0.5035 C.2     1  UNL1        0.2666
      8 O           3.3593    1.5284    1.1149 O.2     1  UNL1       -0.2682
      9 C           5.4125    0.3391    1.0487 C.ar    1  UNL1        0.1258
     10 C           5.8166    0.8006    2.2696 C.ar    1  UNL1       -0.0285
     11 C           7.0494    0.4190    2.8195 C.ar    1  UNL1       -0.0228
     12 C           7.8335   -0.4357    2.0838 C.ar    1  UNL1        0.1414
     13 F           9.0243   -0.8180    2.5907 F       1  UNL1       -0.2039
     14 C           7.4117   -0.8931    0.8526 C.ar    1  UNL1        0.0636
     15 N           6.2168   -0.4929    0.3733 N.ar    1  UNL1       -0.2475
     16 C           2.2192    1.7534   -2.1375 C.ar    1  UNL1       -0.0377
     17 C           0.9931    2.0985   -2.6648 C.ar    1  UNL1       -0.0243
     18 C          -0.0966    1.2806   -2.3508 C.ar    1  UNL1        0.1290
     19 F          -1.2951    1.6248   -2.8711 F       1  UNL1       -0.2051
     20 C          -2.2171    0.2467   -0.7607 C.3     1  UNL1        0.0166
     21 C          -3.0986   -0.3701    0.3001 C.3     1  UNL1        0.1164
     22 C          -3.4987    0.7618    1.2401 C.3     1  UNL1       -0.0073
     23 C          -4.4700    1.6800    0.5345 C.3     1  UNL1        0.0144
     24 C          -5.7518    0.8576    0.3486 C.3     1  UNL1        0.2492
     25 F          -6.6881    1.7008   -0.2104 F       1  UNL1       -0.2057
     26 F          -6.1449    0.3842    1.5786 F       1  UNL1       -0.2057
     27 C          -5.4321   -0.2256   -0.6283 C.3     1  UNL1        0.0144
     28 C          -4.2799   -1.0830   -0.2703 C.3     1  UNL1       -0.0073
     29 O          -2.3856   -1.2988    1.0945 O.2     1  UNL1       -0.4592
     30 C          -1.2982   -2.0164    0.6727 C.2     1  UNL1        0.2765
     31 N          -0.8169   -3.1163    1.4824 N.pl3   1  UNL1       -0.3133
     32 N          -0.7287   -1.7089   -0.4184 N.2     1  UNL1       -0.2257
     33 H          -1.9783   -2.2604   -2.4069 H       1  UNL1        0.0256
     34 H          -2.2101   -0.5708   -3.1301 H       1  UNL1        0.0256
     35 H          -0.6054   -1.4334   -3.1918 H       1  UNL1        0.0256
     36 H           1.4162   -0.9880   -0.4178 H       1  UNL1        0.0640
     37 H           4.3471   -0.3704   -1.2689 H       1  UNL1        0.1552
     38 H           5.2129    1.4744    2.8640 H       1  UNL1        0.0641
     39 H           7.3353    0.8032    3.7856 H       1  UNL1        0.0647
     40 H           8.0755   -1.5634    0.3241 H       1  UNL1        0.0859
     41 H           3.0604    2.3863   -2.3809 H       1  UNL1        0.0637
     42 H           0.8335    2.9581   -3.3003 H       1  UNL1        0.0647
     43 H          -2.8986    0.4834   -1.6264 H       1  UNL1        0.0330
     44 H          -1.8053    1.2318   -0.4479 H       1  UNL1        0.0330
     45 H          -3.9949    0.3642    2.1412 H       1  UNL1        0.0305
     46 H          -2.5716    1.3223    1.4698 H       1  UNL1        0.0305
     47 H          -4.0903    1.8887   -0.4658 H       1  UNL1        0.0324
     48 H          -4.6412    2.6025    1.0840 H       1  UNL1        0.0324
     49 H          -5.3442    0.2313   -1.6378 H       1  UNL1        0.0324
     50 H          -6.3442   -0.8896   -0.6887 H       1  UNL1        0.0324
     51 H          -3.9455   -1.6187   -1.1930 H       1  UNL1        0.0305
     52 H          -4.6248   -1.9104    0.4169 H       1  UNL1        0.0305
     53 H           0.1747   -3.2034    1.7132 H       1  UNL1        0.1466
     54 H          -1.4937   -3.8055    1.8186 H       1  UNL1        0.1466
@<TRIPOS>BOND
     1     2     1    1
     2     2     3    1
     3     3     4   ar
     4     4     5   ar
     5     5     6    1
     6     6     7   am
     7     7     8    2
     8     7     9    1
     9     9    10   ar
    10    10    11   ar
    11    11    12   ar
    12    12    13    1
    13    12    14   ar
    14    14    15   ar
    15     5    16   ar
    16    16    17   ar
    17    17    18   ar
    18    18    19    1
    19     2    20    1
    20    20    21    1
    21    21    22    1
    22    22    23    1
    23    23    24    1
    24    24    25    1
    25    24    26    1
    26    24    27    1
    27    27    28    1
    28    21    29    1
    29    29    30    1
    30    30    31    1
    31    30    32    2
    32    32     2    1
    33    18     3   ar
    34    28    21    1
    35    15     9   ar
    36     1    33    1
    37     1    34    1
    38     1    35    1
    39     4    36    1
    40     6    37    1
    41    10    38    1
    42    11    39    1
    43    14    40    1
    44    16    41    1
    45    17    42    1
    46    20    43    1
    47    20    44    1
    48    22    45    1
    49    22    46    1
    50    23    47    1
    51    23    48    1
    52    27    49    1
    53    27    50    1
    54    28    51    1
    55    28    52    1
    56    31    53    1
    57    31    54    1
