
     RDKit          3D

 54 57  0  0  0  0  0  0  0  0999 V2000
   -1.5312   -1.2641   -2.6057 C   0  0  0  0  0  0  0  0  0  0  0  0
   -1.1469   -0.6504   -1.2530 C   0  0  1  0  0  0  0  0  0  0  0  0
    0.0747    0.1818   -1.5461 C   0  0  0  0  0  0  0  0  0  0  0  0
    1.3217   -0.1192   -1.0445 C   0  0  0  0  0  0  0  0  0  0  0  0
    2.4331    0.6680   -1.3320 C   0  0  0  0  0  0  0  0  0  0  0  0
    3.6721    0.2862   -0.7763 N   0  0  0  0  0  0  0  0  0  0  0  0
    4.1345    0.7486    0.5035 C   0  0  0  0  0  0  0  0  0  0  0  0
    3.3593    1.5284    1.1149 O   0  0  0  0  0  0  0  0  0  0  0  0
    5.4125    0.3391    1.0487 C   0  0  0  0  0  0  0  0  0  0  0  0
    5.8166    0.8006    2.2696 C   0  0  0  0  0  0  0  0  0  0  0  0
    7.0494    0.4190    2.8195 C   0  0  0  0  0  0  0  0  0  0  0  0
    7.8335   -0.4357    2.0838 C   0  0  0  0  0  0  0  0  0  0  0  0
    9.0243   -0.8180    2.5907 F   0  0  0  0  0  0  0  0  0  0  0  0
    7.4117   -0.8931    0.8526 C   0  0  0  0  0  0  0  0  0  0  0  0
    6.2168   -0.4929    0.3733 N   0  0  0  0  0  0  0  0  0  0  0  0
    2.2192    1.7534   -2.1375 C   0  0  0  0  0  0  0  0  0  0  0  0
    0.9931    2.0985   -2.6648 C   0  0  0  0  0  0  0  0  0  0  0  0
   -0.0966    1.2806   -2.3508 C   0  0  0  0  0  0  0  0  0  0  0  0
   -1.2951    1.6248   -2.8711 F   0  0  0  0  0  0  0  0  0  0  0  0
   -2.2171    0.2467   -0.7607 C   0  0  0  0  0  0  0  0  0  0  0  0
   -3.0986   -0.3701    0.3001 C   0  0  0  0  0  0  0  0  0  0  0  0
   -3.4987    0.7618    1.2401 C   0  0  0  0  0  0  0  0  0  0  0  0
   -4.4700    1.6800    0.5345 C   0  0  0  0  0  0  0  0  0  0  0  0
   -5.7518    0.8576    0.3486 C   0  0  0  0  0  0  0  0  0  0  0  0
   -6.6881    1.7008   -0.2104 F   0  0  0  0  0  0  0  0  0  0  0  0
   -6.1449    0.3842    1.5786 F   0  0  0  0  0  0  0  0  0  0  0  0
   -5.4321   -0.2256   -0.6283 C   0  0  0  0  0  0  0  0  0  0  0  0
   -4.2799   -1.0830   -0.2703 C   0  0  0  0  0  0  0  0  0  0  0  0
   -2.3856   -1.2988    1.0945 O   0  0  0  0  0  0  0  0  0  0  0  0
   -1.2982   -2.0164    0.6727 C   0  0  0  0  0  0  0  0  0  0  0  0
   -0.8169   -3.1163    1.4824 N   0  0  0  0  0  0  0  0  0  0  0  0
   -0.7287   -1.7089   -0.4184 N   0  0  0  0  0  0  0  0  0  0  0  0
   -1.9783   -2.2604   -2.4069 H   0  0  0  0  0  0  0  0  0  0  0  0
   -2.2101   -0.5708   -3.1301 H   0  0  0  0  0  0  0  0  0  0  0  0
   -0.6054   -1.4334   -3.1918 H   0  0  0  0  0  0  0  0  0  0  0  0
    1.4162   -0.9880   -0.4178 H   0  0  0  0  0  0  0  0  0  0  0  0
    4.3471   -0.3704   -1.2689 H   0  0  0  0  0  0  0  0  0  0  0  0
    5.2129    1.4744    2.8640 H   0  0  0  0  0  0  0  0  0  0  0  0
    7.3353    0.8032    3.7856 H   0  0  0  0  0  0  0  0  0  0  0  0
    8.0755   -1.5634    0.3241 H   0  0  0  0  0  0  0  0  0  0  0  0
    3.0604    2.3863   -2.3809 H   0  0  0  0  0  0  0  0  0  0  0  0
    0.8335    2.9581   -3.3003 H   0  0  0  0  0  0  0  0  0  0  0  0
   -2.8986    0.4834   -1.6264 H   0  0  0  0  0  0  0  0  0  0  0  0
   -1.8053    1.2318   -0.4479 H   0  0  0  0  0  0  0  0  0  0  0  0
   -3.9949    0.3642    2.1412 H   0  0  0  0  0  0  0  0  0  0  0  0
   -2.5716    1.3223    1.4698 H   0  0  0  0  0  0  0  0  0  0  0  0
   -4.0903    1.8887   -0.4658 H   0  0  0  0  0  0  0  0  0  0  0  0
   -4.6412    2.6025    1.0840 H   0  0  0  0  0  0  0  0  0  0  0  0
   -5.3442    0.2313   -1.6378 H   0  0  0  0  0  0  0  0  0  0  0  0
   -6.3442   -0.8896   -0.6887 H   0  0  0  0  0  0  0  0  0  0  0  0
   -3.9455   -1.6187   -1.1930 H   0  0  0  0  0  0  0  0  0  0  0  0
   -4.6248   -1.9104    0.4169 H   0  0  0  0  0  0  0  0  0  0  0  0
    0.1747   -3.2034    1.7132 H   0  0  0  0  0  0  0  0  0  0  0  0
   -1.4937   -3.8055    1.8186 H   0  0  0  0  0  0  0  0  0  0  0  0
  2  1  1  6
  2  3  1  0
  3  4  2  0
  4  5  1  0
  5  6  1  0
  6  7  1  0
  7  8  2  0
  7  9  1  0
  9 10  2  0
 10 11  1  0
 11 12  2  0
 12 13  1  0
 12 14  1  0
 14 15  2  0
  5 16  2  0
 16 17  1  0
 17 18  2  0
 18 19  1  0
  2 20  1  0
 20 21  1  0
 21 22  1  0
 22 23  1  0
 23 24  1  0
 24 25  1  0
 24 26  1  0
 24 27  1  0
 27 28  1  0
 21 29  1  0
 29 30  1  0
 30 31  1  0
 30 32  2  0
 32  2  1  0
 18  3  1  0
 28 21  1  0
 15  9  1  0
  1 33  1  0
  1 34  1  0
  1 35  1  0
  4 36  1  0
  6 37  1  0
 10 38  1  0
 11 39  1  0
 14 40  1  0
 16 41  1  0
 17 42  1  0
 20 43  1  0
 20 44  1  0
 22 45  1  0
 22 46  1  0
 23 47  1  0
 23 48  1  0
 27 49  1  0
 27 50  1  0
 28 51  1  0
 28 52  1  0
 31 53  1  0
 31 54  1  0
M  END
$$$$
