@<TRIPOS>MOLECULE
*****
 31 32 0 0 0
SMALL
GASTEIGER

@<TRIPOS>ATOM
      1 C           5.0968    1.4644   -0.6423 C.3     1  UNL1       -0.0397
      2 C           3.7925    0.8139   -0.3867 C.ar    1  UNL1       -0.0504
      3 C           3.7176   -0.0083    0.7298 C.ar    1  UNL1       -0.0582
      4 C           2.5585   -0.6764    1.0657 C.ar    1  UNL1       -0.0507
      5 C           1.4415   -0.5278    0.2745 C.ar    1  UNL1        0.0223
      6 C           1.5863    0.2981   -0.8105 C.ar    1  UNL1       -0.0507
      7 C           2.7030    0.9951   -1.2074 C.ar    1  UNL1       -0.0582
      8 C           0.2105   -1.2467    0.5726 C.2     1  UNL1        0.1935
      9 O           0.4663   -2.3478    1.1789 O.2     1  UNL1       -0.2866
     10 C          -1.1869   -0.9024    0.2885 C.ar    1  UNL1        0.0324
     11 C          -1.5487    0.4187    0.1232 C.ar    1  UNL1        0.0304
     12 C          -2.8800    0.6204   -0.1834 C.ar    1  UNL1        0.3184
     13 C          -3.8382   -0.3891   -0.3312 C.ar    1  UNL1        0.2370
     14 O          -5.1522   -0.2151   -0.6360 O.3     1  UNL1       -0.4989
     15 C          -3.3603   -1.6951   -0.1401 C.ar    1  UNL1        0.1659
     16 O          -4.2345   -2.7717   -0.2634 O.3     1  UNL1       -0.5031
     17 C          -2.0467   -1.9713    0.1693 C.ar    1  UNL1       -0.0053
     18 N          -3.4058    1.9290   -0.3618 N.pl3   1  UNL1        0.0836
     19 O          -4.4791    2.4152   -1.1100 O.co2   1  UNL1       -0.5759
     20 O          -3.0100    3.0261    0.1412 O.2     1  UNL1        0.0416
     21 H           5.7741    1.3814    0.2324 H       1  UNL1        0.0278
     22 H           4.9092    2.5236   -0.9003 H       1  UNL1        0.0278
     23 H           5.5130    0.9646   -1.5394 H       1  UNL1        0.0278
     24 H           4.5684   -0.1770    1.4108 H       1  UNL1        0.0620
     25 H           2.5248   -1.3188    1.9560 H       1  UNL1        0.0625
     26 H           0.7119    0.4422   -1.4646 H       1  UNL1        0.0625
     27 H           2.7502    1.6327   -2.0748 H       1  UNL1        0.0620
     28 H          -0.8651    1.2563    0.2224 H       1  UNL1        0.0694
     29 H          -5.9190    0.0127   -0.0522 H       1  UNL1        0.2925
     30 H          -4.7053   -2.9418   -1.1367 H       1  UNL1        0.2923
     31 H          -1.6928   -3.0050    0.3131 H       1  UNL1        0.0662
@<TRIPOS>UNITY_ATOM_ATTR
18 1
charge 1
19 1
charge -1
@<TRIPOS>BOND
     1     1     2    1
     2     2     3   ar
     3     3     4   ar
     4     4     5   ar
     5     5     6   ar
     6     6     7   ar
     7     5     8    1
     8     8     9    2
     9     8    10    1
    10    10    11   ar
    11    11    12   ar
    12    12    13   ar
    13    13    14    1
    14    13    15   ar
    15    15    16    1
    16    15    17   ar
    17    12    18    1
    18    18    19    1
    19    18    20    2
    20     7     2   ar
    21    17    10   ar
    22     1    21    1
    23     1    22    1
    24     1    23    1
    25     3    24    1
    26     4    25    1
    27     6    26    1
    28     7    27    1
    29    11    28    1
    30    14    29    1
    31    16    30    1
    32    17    31    1
