
     RDKit          3D

 31 32  0  0  0  0  0  0  0  0999 V2000
    5.0968    1.4644   -0.6423 C   0  0  0  0  0  0  0  0  0  0  0  0
    3.7925    0.8139   -0.3867 C   0  0  0  0  0  0  0  0  0  0  0  0
    3.7176   -0.0083    0.7298 C   0  0  0  0  0  0  0  0  0  0  0  0
    2.5585   -0.6764    1.0657 C   0  0  0  0  0  0  0  0  0  0  0  0
    1.4415   -0.5278    0.2745 C   0  0  0  0  0  0  0  0  0  0  0  0
    1.5863    0.2981   -0.8105 C   0  0  0  0  0  0  0  0  0  0  0  0
    2.7030    0.9951   -1.2074 C   0  0  0  0  0  0  0  0  0  0  0  0
    0.2105   -1.2467    0.5726 C   0  0  0  0  0  0  0  0  0  0  0  0
    0.4663   -2.3478    1.1789 O   0  0  0  0  0  0  0  0  0  0  0  0
   -1.1869   -0.9024    0.2885 C   0  0  0  0  0  0  0  0  0  0  0  0
   -1.5487    0.4187    0.1232 C   0  0  0  0  0  0  0  0  0  0  0  0
   -2.8800    0.6204   -0.1834 C   0  0  0  0  0  0  0  0  0  0  0  0
   -3.8382   -0.3891   -0.3312 C   0  0  0  0  0  0  0  0  0  0  0  0
   -5.1522   -0.2151   -0.6360 O   0  0  0  0  0  0  0  0  0  0  0  0
   -3.3603   -1.6951   -0.1401 C   0  0  0  0  0  0  0  0  0  0  0  0
   -4.2345   -2.7717   -0.2634 O   0  0  0  0  0  0  0  0  0  0  0  0
   -2.0467   -1.9713    0.1693 C   0  0  0  0  0  0  0  0  0  0  0  0
   -3.4058    1.9290   -0.3618 N   0  0  0  0  0  4  0  0  0  0  0  0
   -4.4791    2.4152   -1.1100 O   0  0  0  0  0  1  0  0  0  0  0  0
   -3.0100    3.0261    0.1412 O   0  0  0  0  0  0  0  0  0  0  0  0
    5.7741    1.3814    0.2324 H   0  0  0  0  0  0  0  0  0  0  0  0
    4.9092    2.5236   -0.9003 H   0  0  0  0  0  0  0  0  0  0  0  0
    5.5130    0.9646   -1.5394 H   0  0  0  0  0  0  0  0  0  0  0  0
    4.5684   -0.1770    1.4108 H   0  0  0  0  0  0  0  0  0  0  0  0
    2.5248   -1.3188    1.9560 H   0  0  0  0  0  0  0  0  0  0  0  0
    0.7119    0.4422   -1.4646 H   0  0  0  0  0  0  0  0  0  0  0  0
    2.7502    1.6327   -2.0748 H   0  0  0  0  0  0  0  0  0  0  0  0
   -0.8651    1.2563    0.2224 H   0  0  0  0  0  0  0  0  0  0  0  0
   -5.9190    0.0127   -0.0522 H   0  0  0  0  0  0  0  0  0  0  0  0
   -4.7053   -2.9418   -1.1367 H   0  0  0  0  0  0  0  0  0  0  0  0
   -1.6928   -3.0050    0.3131 H   0  0  0  0  0  0  0  0  0  0  0  0
  1  2  1  0
  2  3  2  0
  3  4  1  0
  4  5  2  0
  5  6  1  0
  6  7  2  0
  5  8  1  0
  8  9  2  0
  8 10  1  0
 10 11  2  0
 11 12  1  0
 12 13  2  0
 13 14  1  0
 13 15  1  0
 15 16  1  0
 15 17  2  0
 12 18  1  0
 18 19  1  0
 18 20  2  0
  7  2  1  0
 17 10  1  0
  1 21  1  0
  1 22  1  0
  1 23  1  0
  3 24  1  0
  4 25  1  0
  6 26  1  0
  7 27  1  0
 11 28  1  0
 14 29  1  0
 16 30  1  0
 17 31  1  0
M  CHG  2  18   1  19  -1
M  END
$$$$
