
     RDKit          3D

 62 67  0  0  0  0  0  0  0  0999 V2000
   10.7763    0.6402   -1.1272 C   0  0  0  0  0  0  0  0  0  0  0  0
    9.5142    0.9883   -1.6645 O   0  0  0  0  0  0  0  0  0  0  0  0
    8.3667    0.5905   -0.9942 C   0  0  0  0  0  0  0  0  0  0  0  0
    8.4511   -0.1369    0.1838 C   0  0  0  0  0  0  0  0  0  0  0  0
    7.2885   -0.5190    0.8289 C   0  0  0  0  0  0  0  0  0  0  0  0
    6.0490   -0.1931    0.3272 C   0  0  0  0  0  0  0  0  0  0  0  0
    4.8384   -0.6356    1.0714 C   0  0  0  0  0  0  0  0  0  0  0  0
    4.9880   -1.2880    2.1264 O   0  0  0  0  0  0  0  0  0  0  0  0
    3.5524   -0.3343    0.6107 N   0  0  0  0  0  0  0  0  0  0  0  0
    2.3323   -0.6951    1.2225 C   0  0  0  0  0  0  0  0  0  0  0  0
    2.1701   -1.4057    2.3790 C   0  0  0  0  0  0  0  0  0  0  0  0
    0.9536   -1.7344    2.9376 C   0  0  0  0  0  0  0  0  0  0  0  0
   -0.1973   -1.3050    2.2646 C   0  0  0  0  0  0  0  0  0  0  0  0
   -0.1075   -0.5906    1.1058 C   0  0  0  0  0  0  0  0  0  0  0  0
    1.1451   -0.2958    0.6002 C   0  0  0  0  0  0  0  0  0  0  0  0
   -1.2960   -0.0590    0.3366 C   0  0  0  0  0  0  0  0  0  0  0  0
   -1.1613    1.4281    0.4327 C   0  0  0  0  0  0  0  0  0  0  0  0
   -1.8705    2.2760   -0.5378 C   0  0  0  0  0  0  0  0  0  0  0  0
   -1.6686    1.6387   -2.2138 S   0  0  0  0  0  0  0  0  0  0  0  0
   -1.3141   -0.1024   -2.0994 C   0  0  0  0  0  0  0  0  0  0  0  0
   -1.1786   -0.8374   -3.3279 N   0  0  0  0  0  0  0  0  0  0  0  0
   -1.1955   -0.6252   -0.9601 N   0  0  0  0  0  0  0  0  0  0  0  0
   -2.5522   -0.5030    0.9923 C   0  0  0  0  0  0  0  0  0  0  0  0
   -3.7844   -0.1630    0.4323 C   0  0  0  0  0  0  0  0  0  0  0  0
   -4.9546   -0.5231    1.0133 C   0  0  0  0  0  0  0  0  0  0  0  0
   -6.2610   -0.1928    0.4705 C   0  0  0  0  0  0  0  0  0  0  0  0
   -6.4356    0.4998   -0.6566 C   0  0  0  0  0  0  0  0  0  0  0  0
   -7.8724    0.7274   -1.0329 C   0  0  0  0  0  0  0  0  0  0  0  0
   -8.5426    1.2628    0.2167 C   0  0  0  0  0  0  0  0  0  0  0  0
   -8.4420    0.3930    1.2687 O   0  0  0  0  0  0  0  0  0  0  0  0
   -7.5166   -0.6082    1.1403 C   0  0  0  0  0  0  0  0  0  0  0  0
   -4.9301   -1.2257    2.1567 N   0  0  0  0  0  0  0  0  0  0  0  0
   -3.8096   -1.5846    2.7435 C   0  0  0  0  0  0  0  0  0  0  0  0
   -3.7967   -2.2898    3.8905 F   0  0  0  0  0  0  0  0  0  0  0  0
   -2.5851   -1.2240    2.1606 C   0  0  0  0  0  0  0  0  0  0  0  0
   -1.4168   -1.6120    2.7781 O   0  0  0  0  0  0  0  0  0  0  0  0
    5.9797    0.5028   -0.8000 N   0  0  0  0  0  0  0  0  0  0  0  0
    7.1007    0.8992   -1.4675 C   0  0  0  0  0  0  0  0  0  0  0  0
   10.8634   -0.4656   -0.9610 H   0  0  0  0  0  0  0  0  0  0  0  0
   11.6112    1.0511   -1.7043 H   0  0  0  0  0  0  0  0  0  0  0  0
   10.8091    1.1248   -0.1078 H   0  0  0  0  0  0  0  0  0  0  0  0
    9.4415   -0.3741    0.5472 H   0  0  0  0  0  0  0  0  0  0  0  0
    7.4172   -1.0883    1.7497 H   0  0  0  0  0  0  0  0  0  0  0  0
    3.5249    0.2298   -0.3038 H   0  0  0  0  0  0  0  0  0  0  0  0
    3.0412   -1.7469    2.9147 H   0  0  0  0  0  0  0  0  0  0  0  0
    0.8746   -2.2908    3.8422 H   0  0  0  0  0  0  0  0  0  0  0  0
    1.2243    0.2712   -0.3231 H   0  0  0  0  0  0  0  0  0  0  0  0
   -1.4092    1.6935    1.4942 H   0  0  0  0  0  0  0  0  0  0  0  0
   -0.0598    1.6910    0.3652 H   0  0  0  0  0  0  0  0  0  0  0  0
   -1.3269    3.2770   -0.5411 H   0  0  0  0  0  0  0  0  0  0  0  0
   -2.9309    2.5246   -0.2909 H   0  0  0  0  0  0  0  0  0  0  0  0
   -1.6794   -1.7104   -3.5306 H   0  0  0  0  0  0  0  0  0  0  0  0
   -0.5269   -0.4314   -4.0291 H   0  0  0  0  0  0  0  0  0  0  0  0
   -3.7759    0.3900   -0.4998 H   0  0  0  0  0  0  0  0  0  0  0  0
   -5.6064    0.8467   -1.2173 H   0  0  0  0  0  0  0  0  0  0  0  0
   -8.3577   -0.2685   -1.2320 H   0  0  0  0  0  0  0  0  0  0  0  0
   -7.9871    1.4031   -1.8775 H   0  0  0  0  0  0  0  0  0  0  0  0
   -9.5959    1.5390    0.0515 H   0  0  0  0  0  0  0  0  0  0  0  0
   -7.9554    2.1851    0.4973 H   0  0  0  0  0  0  0  0  0  0  0  0
   -7.9711   -1.5012    0.6319 H   0  0  0  0  0  0  0  0  0  0  0  0
   -7.2774   -0.9791    2.1797 H   0  0  0  0  0  0  0  0  0  0  0  0
    7.0357    1.4661   -2.3857 H   0  0  0  0  0  0  0  0  0  0  0  0
  1  2  1  0
  2  3  1  0
  3  4  2  0
  4  5  1  0
  5  6  2  0
  6  7  1  0
  7  8  2  0
  7  9  1  0
  9 10  1  0
 10 11  2  0
 11 12  1  0
 12 13  2  0
 13 14  1  0
 14 15  2  0
 14 16  1  0
 16 17  1  0
 17 18  1  0
 18 19  1  0
 19 20  1  0
 20 21  1  0
 20 22  2  0
 16 23  1  0
 23 24  2  0
 24 25  1  0
 25 26  1  0
 26 27  2  0
 27 28  1  0
 28 29  1  0
 29 30  1  0
 30 31  1  0
 25 32  2  0
 32 33  1  0
 33 34  1  0
 33 35  2  0
 35 36  1  0
  6 37  1  0
 37 38  2  0
 38  3  1  0
 15 10  1  0
 22 16  1  0
 35 23  1  0
 36 13  1  0
 31 26  1  0
  1 39  1  0
  1 40  1  0
  1 41  1  0
  4 42  1  0
  5 43  1  0
  9 44  1  0
 11 45  1  0
 12 46  1  0
 15 47  1  0
 17 48  1  0
 17 49  1  0
 18 50  1  0
 18 51  1  0
 21 52  1  0
 21 53  1  0
 24 54  1  0
 27 55  1  0
 28 56  1  0
 28 57  1  0
 29 58  1  0
 29 59  1  0
 31 60  1  0
 31 61  1  0
 38 62  1  0
M  END
$$$$
