@<TRIPOS>MOLECULE
*****
 62 67 0 0 0
SMALL
GASTEIGER

@<TRIPOS>ATOM
      1 C          10.7763    0.6402   -1.1272 C.3     1  UNL1        0.0789
      2 O           9.5142    0.9883   -1.6645 O.3     1  UNL1       -0.4936
      3 C           8.3667    0.5905   -0.9942 C.ar    1  UNL1        0.1381
      4 C           8.4511   -0.1369    0.1838 C.ar    1  UNL1       -0.0163
      5 C           7.2885   -0.5190    0.8289 C.ar    1  UNL1       -0.0277
      6 C           6.0490   -0.1931    0.3272 C.ar    1  UNL1        0.1259
      7 C           4.8384   -0.6356    1.0714 C.2     1  UNL1        0.2666
      8 O           4.9880   -1.2880    2.1264 O.2     1  UNL1       -0.2682
      9 N           3.5524   -0.3343    0.6107 N.am    1  UNL1       -0.2802
     10 C           2.3323   -0.6951    1.2225 C.ar    1  UNL1        0.0343
     11 C           2.1701   -1.4057    2.3790 C.ar    1  UNL1       -0.0370
     12 C           0.9536   -1.7344    2.9376 C.ar    1  UNL1       -0.0172
     13 C          -0.1973   -1.3050    2.2646 C.ar    1  UNL1        0.1346
     14 C          -0.1075   -0.5906    1.1058 C.ar    1  UNL1        0.0285
     15 C           1.1451   -0.2958    0.6002 C.ar    1  UNL1       -0.0312
     16 C          -1.2960   -0.0590    0.3366 C.3     1  UNL1        0.1217
     17 C          -1.1613    1.4281    0.4327 C.3     1  UNL1       -0.0096
     18 C          -1.8705    2.2760   -0.5378 C.3     1  UNL1        0.0037
     19 S          -1.6686    1.6387   -2.2138 S.3     1  UNL1       -0.0910
     20 C          -1.3141   -0.1024   -2.0994 C.2     1  UNL1        0.1478
     21 N          -1.1786   -0.8374   -3.3279 N.pl3   1  UNL1       -0.3380
     22 N          -1.1955   -0.6252   -0.9601 N.2     1  UNL1       -0.2472
     23 C          -2.5522   -0.5030    0.9923 C.ar    1  UNL1        0.0332
     24 C          -3.7844   -0.1630    0.4323 C.ar    1  UNL1       -0.0264
     25 C          -4.9546   -0.5231    1.0133 C.ar    1  UNL1        0.0726
     26 C          -6.2610   -0.1928    0.4705 C.2     1  UNL1       -0.0003
     27 C          -6.4356    0.4998   -0.6566 C.2     1  UNL1       -0.0745
     28 C          -7.8724    0.7274   -1.0329 C.3     1  UNL1       -0.0105
     29 C          -8.5426    1.2628    0.2167 C.3     1  UNL1        0.0515
     30 O          -8.4420    0.3930    1.2687 O.3     1  UNL1       -0.3748
     31 C          -7.5166   -0.6082    1.1403 C.3     1  UNL1        0.0744
     32 N          -4.9301   -1.2257    2.1567 N.ar    1  UNL1       -0.2163
     33 C          -3.8096   -1.5846    2.7435 C.ar    1  UNL1        0.2566
     34 F          -3.7967   -2.2898    3.8905 F       1  UNL1       -0.1799
     35 C          -2.5851   -1.2240    2.1606 C.ar    1  UNL1        0.1883
     36 O          -1.4168   -1.6120    2.7781 O.3     1  UNL1       -0.4508
     37 N           5.9797    0.5028   -0.8000 N.ar    1  UNL1       -0.2467
     38 C           7.1007    0.8992   -1.4675 C.ar    1  UNL1        0.0700
     39 H          10.8634   -0.4656   -0.9610 H       1  UNL1        0.0660
     40 H          11.6112    1.0511   -1.7043 H       1  UNL1        0.0660
     41 H          10.8091    1.1248   -0.1078 H       1  UNL1        0.0660
     42 H           9.4415   -0.3741    0.5472 H       1  UNL1        0.0655
     43 H           7.4172   -1.0883    1.7497 H       1  UNL1        0.0641
     44 H           3.5249    0.2298   -0.3038 H       1  UNL1        0.1552
     45 H           3.0412   -1.7469    2.9147 H       1  UNL1        0.0637
     46 H           0.8746   -2.2908    3.8422 H       1  UNL1        0.0655
     47 H           1.2243    0.2712   -0.3231 H       1  UNL1        0.0641
     48 H          -1.4092    1.6935    1.4942 H       1  UNL1        0.0303
     49 H          -0.0598    1.6910    0.3652 H       1  UNL1        0.0303
     50 H          -1.3269    3.2770   -0.5411 H       1  UNL1        0.0381
     51 H          -2.9309    2.5246   -0.2909 H       1  UNL1        0.0381
     52 H          -1.6794   -1.7104   -3.5306 H       1  UNL1        0.1442
     53 H          -0.5269   -0.4314   -4.0291 H       1  UNL1        0.1442
     54 H          -3.7759    0.3900   -0.4998 H       1  UNL1        0.0644
     55 H          -5.6064    0.8467   -1.2173 H       1  UNL1        0.0577
     56 H          -8.3577   -0.2685   -1.2320 H       1  UNL1        0.0330
     57 H          -7.9871    1.4031   -1.8775 H       1  UNL1        0.0330
     58 H          -9.5959    1.5390    0.0515 H       1  UNL1        0.0563
     59 H          -7.9554    2.1851    0.4973 H       1  UNL1        0.0563
     60 H          -7.9711   -1.5012    0.6319 H       1  UNL1        0.0610
     61 H          -7.2774   -0.9791    2.1797 H       1  UNL1        0.0610
     62 H           7.0357    1.4661   -2.3857 H       1  UNL1        0.0867
@<TRIPOS>BOND
     1     1     2    1
     2     2     3    1
     3     3     4   ar
     4     4     5   ar
     5     5     6   ar
     6     6     7    1
     7     7     8    2
     8     7     9   am
     9     9    10    1
    10    10    11   ar
    11    11    12   ar
    12    12    13   ar
    13    13    14   ar
    14    14    15   ar
    15    14    16    1
    16    16    17    1
    17    17    18    1
    18    18    19    1
    19    19    20    1
    20    20    21    1
    21    20    22    2
    22    16    23    1
    23    23    24   ar
    24    24    25   ar
    25    25    26    1
    26    26    27    2
    27    27    28    1
    28    28    29    1
    29    29    30    1
    30    30    31    1
    31    25    32   ar
    32    32    33   ar
    33    33    34    1
    34    33    35   ar
    35    35    36    1
    36     6    37   ar
    37    37    38   ar
    38    38     3   ar
    39    15    10   ar
    40    22    16    1
    41    35    23   ar
    42    36    13    1
    43    31    26    1
    44     1    39    1
    45     1    40    1
    46     1    41    1
    47     4    42    1
    48     5    43    1
    49     9    44    1
    50    11    45    1
    51    12    46    1
    52    15    47    1
    53    17    48    1
    54    17    49    1
    55    18    50    1
    56    18    51    1
    57    21    52    1
    58    21    53    1
    59    24    54    1
    60    27    55    1
    61    28    56    1
    62    28    57    1
    63    29    58    1
    64    29    59    1
    65    31    60    1
    66    31    61    1
    67    38    62    1
