@<TRIPOS>MOLECULE
*****
 13 12 0 0 0
SMALL
GASTEIGER

@<TRIPOS>ATOM
      1 CB         -0.6951    0.7689   -0.9406 C.3     1  ALA1       -0.0395
      2 CA         -0.2906   -0.4339   -0.1125 C.3     1  ALA1        0.1004
      3 N          -0.8727   -0.4311    1.2044 N.3     1  ALA1       -0.3186
      4 C           1.2131   -0.4124   -0.0573 C.2     1  ALA1        0.3214
      5 O           1.9535   -0.3920    1.1376 O.3     1  ALA1       -0.4795
      6 OXT         1.8064   -0.4133   -1.1624 O.2     1  ALA1       -0.2493
      7 HB1        -1.1567    0.4626   -1.9162 H       1  ALA1        0.0250
      8 HB2        -1.3840    1.3651   -0.3151 H       1  ALA1        0.0250
      9 HB3         0.1645    1.4178   -1.2183 H       1  ALA1        0.0250
     10 HA         -0.5820   -1.3901   -0.5952 H       1  ALA1        0.0571
     11 H1         -1.5552   -1.2138    1.3597 H       1  ALA1        0.1189
     12 H2         -1.3445    0.4428    1.4699 H       1  ALA1        0.1189
     13 H           2.7434    0.2293    1.1461 H       1  ALA1        0.2951
@<TRIPOS>BOND
     1     1     2    1
     2     2     3    1
     3     2     4    1
     4     4     5    1
     5     4     6    2
     6     1     7    1
     7     1     8    1
     8     1     9    1
     9     2    10    1
    10     3    11    1
    11     3    12    1
    12     5    13    1
