@<TRIPOS>MOLECULE
*****
 54 57 0 0 0
SMALL
GASTEIGER

@<TRIPOS>ATOM
      1 C          -6.1197    6.1633    0.2184 C.3     1  UNL1       -0.0319
      2 C          -4.9177    5.3093   -0.0445 C.ar    1  UNL1        0.0068
      3 C          -3.7144    5.5838   -0.5876 C.ar    1  UNL1        0.0383
      4 N          -2.8687    4.5841   -0.6737 N.ar    1  UNL1       -0.2471
      5 C          -3.0069    3.4736   -0.3439 C.ar    1  UNL1        0.1086
      6 C          -2.3414    2.1529   -0.2793 C.ar    1  UNL1        0.0113
      7 C          -2.9140    1.0321    0.2245 C.ar    1  UNL1       -0.0102
      8 C          -2.2183   -0.1882    0.2525 C.ar    1  UNL1        0.1224
      9 O          -2.8965   -1.2518    0.7839 O.3     1  UNL1       -0.4864
     10 C          -2.3584   -2.5167    0.8854 C.3     1  UNL1        0.1254
     11 C          -3.2031   -3.5668    0.1401 C.3     1  UNL1        0.0099
     12 C          -2.8268   -4.8055    0.8996 C.3     1  UNL1        0.0512
     13 O          -2.5247   -4.4506    2.1827 O.3     1  UNL1       -0.3760
     14 C          -2.4343   -3.0932    2.2860 C.3     1  UNL1        0.0846
     15 C          -0.9399   -0.1963   -0.2500 C.ar    1  UNL1       -0.0078
     16 C          -0.3262    0.9252   -0.7703 C.ar    1  UNL1        0.0408
     17 C           1.0169    0.9432   -1.3048 C.2     1  UNL1        0.2447
     18 O           1.4754    2.0339   -1.7570 O.2     1  UNL1       -0.2702
     19 N           1.8693   -0.1929   -1.3587 N.am    1  UNL1       -0.3032
     20 C           3.2176   -0.1371   -1.9048 C.3     1  UNL1        0.0646
     21 C           3.2713   -1.0397   -3.0945 C.3     1  UNL1       -0.0409
     22 C           4.2283   -0.5031   -0.8691 C.ar    1  UNL1        0.0835
     23 C           5.2702   -1.3649   -1.1432 C.ar    1  UNL1       -0.0348
     24 C           6.1915   -1.6858   -0.1630 C.ar    1  UNL1       -0.0281
     25 C           6.0724   -1.1428    1.0999 C.ar    1  UNL1        0.1658
     26 C           7.0582   -1.4774    2.1722 C.3     1  UNL1        0.4359
     27 F           8.2414   -1.9282    1.6358 F       1  UNL1       -0.1644
     28 F           6.5815   -2.4552    3.0230 F       1  UNL1       -0.1644
     29 F           7.3610   -0.3545    2.9304 F       1  UNL1       -0.1644
     30 N           5.0407   -0.3082    1.3194 N.ar    1  UNL1       -0.1449
     31 N           4.1617   -0.0042    0.3783 N.ar    1  UNL1       -0.1519
     32 C          -1.0689    2.0853   -0.7647 C.ar    1  UNL1       -0.0397
     33 S          -4.7771    3.5661    0.3320 S.2     1  UNL1       -0.0725
     34 H          -7.0273    5.5042    0.2570 H       1  UNL1        0.0283
     35 H          -6.0299    6.7171    1.1747 H       1  UNL1        0.0283
     36 H          -6.1863    6.8702   -0.6339 H       1  UNL1        0.0283
     37 H          -3.4742    6.6137   -0.9377 H       1  UNL1        0.0838
     38 H          -3.9296    1.0903    0.6110 H       1  UNL1        0.0661
     39 H          -1.3423   -2.6582    0.5203 H       1  UNL1        0.0757
     40 H          -2.8565   -3.6339   -0.9220 H       1  UNL1        0.0324
     41 H          -4.2826   -3.3285    0.2100 H       1  UNL1        0.0324
     42 H          -3.6314   -5.5880    0.8485 H       1  UNL1        0.0561
     43 H          -1.8829   -5.1961    0.4176 H       1  UNL1        0.0561
     44 H          -3.3966   -2.7135    2.7374 H       1  UNL1        0.0597
     45 H          -1.6132   -2.7285    2.9401 H       1  UNL1        0.0597
     46 H          -0.3808   -1.1089   -0.2444 H       1  UNL1        0.0662
     47 H           1.4948   -1.0894   -0.9879 H       1  UNL1        0.1497
     48 H           3.4332    0.8959   -2.2482 H       1  UNL1        0.0561
     49 H           4.1088   -0.6875   -3.7607 H       1  UNL1        0.0251
     50 H           2.2891   -0.9220   -3.6379 H       1  UNL1        0.0251
     51 H           3.3795   -2.0976   -2.8613 H       1  UNL1        0.0251
     52 H           5.3324   -1.7701   -2.1395 H       1  UNL1        0.0637
     53 H           7.0063   -2.3595   -0.3766 H       1  UNL1        0.0639
     54 H          -0.6109    3.0004   -1.1724 H       1  UNL1        0.0632
@<TRIPOS>BOND
     1     1     2    1
     2     2     3   ar
     3     3     4   ar
     4     4     5   ar
     5     5     6    1
     6     6     7   ar
     7     7     8   ar
     8     8     9    1
     9     9    10    1
    10    10    11    1
    11    11    12    1
    12    12    13    1
    13    13    14    1
    14     8    15   ar
    15    15    16   ar
    16    16    17    1
    17    17    18    2
    18    17    19   am
    19    19    20    1
    20    20    21    1
    21    20    22    1
    22    22    23   ar
    23    23    24   ar
    24    24    25   ar
    25    25    26    1
    26    26    27    1
    27    26    28    1
    28    26    29    1
    29    25    30   ar
    30    30    31   ar
    31    16    32   ar
    32     5    33   ar
    33    33     2   ar
    34    32     6   ar
    35    14    10    1
    36    31    22   ar
    37     1    34    1
    38     1    35    1
    39     1    36    1
    40     3    37    1
    41     7    38    1
    42    10    39    1
    43    11    40    1
    44    11    41    1
    45    12    42    1
    46    12    43    1
    47    14    44    1
    48    14    45    1
    49    15    46    1
    50    19    47    1
    51    20    48    1
    52    21    49    1
    53    21    50    1
    54    21    51    1
    55    23    52    1
    56    24    53    1
    57    32    54    1
