
     RDKit          3D

 54 57  0  0  0  0  0  0  0  0999 V2000
   -6.1197    6.1633    0.2184 C   0  0  0  0  0  0  0  0  0  0  0  0
   -4.9177    5.3093   -0.0445 C   0  0  0  0  0  0  0  0  0  0  0  0
   -3.7144    5.5838   -0.5876 C   0  0  0  0  0  0  0  0  0  0  0  0
   -2.8687    4.5841   -0.6737 N   0  0  0  0  0  0  0  0  0  0  0  0
   -3.0069    3.4736   -0.3439 C   0  0  0  0  0  0  0  0  0  0  0  0
   -2.3414    2.1529   -0.2793 C   0  0  0  0  0  0  0  0  0  0  0  0
   -2.9140    1.0321    0.2245 C   0  0  0  0  0  0  0  0  0  0  0  0
   -2.2183   -0.1882    0.2525 C   0  0  0  0  0  0  0  0  0  0  0  0
   -2.8965   -1.2518    0.7839 O   0  0  0  0  0  0  0  0  0  0  0  0
   -2.3584   -2.5167    0.8854 C   0  0  2  0  0  0  0  0  0  0  0  0
   -3.2031   -3.5668    0.1401 C   0  0  0  0  0  0  0  0  0  0  0  0
   -2.8268   -4.8055    0.8996 C   0  0  0  0  0  0  0  0  0  0  0  0
   -2.5247   -4.4506    2.1827 O   0  0  0  0  0  0  0  0  0  0  0  0
   -2.4343   -3.0932    2.2860 C   0  0  0  0  0  0  0  0  0  0  0  0
   -0.9399   -0.1963   -0.2500 C   0  0  0  0  0  0  0  0  0  0  0  0
   -0.3262    0.9252   -0.7703 C   0  0  0  0  0  0  0  0  0  0  0  0
    1.0169    0.9432   -1.3048 C   0  0  0  0  0  0  0  0  0  0  0  0
    1.4754    2.0339   -1.7570 O   0  0  0  0  0  0  0  0  0  0  0  0
    1.8693   -0.1929   -1.3587 N   0  0  0  0  0  0  0  0  0  0  0  0
    3.2176   -0.1371   -1.9048 C   0  0  2  0  0  0  0  0  0  0  0  0
    3.2713   -1.0397   -3.0945 C   0  0  0  0  0  0  0  0  0  0  0  0
    4.2283   -0.5031   -0.8691 C   0  0  0  0  0  0  0  0  0  0  0  0
    5.2702   -1.3649   -1.1432 C   0  0  0  0  0  0  0  0  0  0  0  0
    6.1915   -1.6858   -0.1630 C   0  0  0  0  0  0  0  0  0  0  0  0
    6.0724   -1.1428    1.0999 C   0  0  0  0  0  0  0  0  0  0  0  0
    7.0582   -1.4774    2.1722 C   0  0  0  0  0  0  0  0  0  0  0  0
    8.2414   -1.9282    1.6358 F   0  0  0  0  0  0  0  0  0  0  0  0
    6.5815   -2.4552    3.0230 F   0  0  0  0  0  0  0  0  0  0  0  0
    7.3610   -0.3545    2.9304 F   0  0  0  0  0  0  0  0  0  0  0  0
    5.0407   -0.3082    1.3194 N   0  0  0  0  0  0  0  0  0  0  0  0
    4.1617   -0.0042    0.3783 N   0  0  0  0  0  0  0  0  0  0  0  0
   -1.0689    2.0853   -0.7647 C   0  0  0  0  0  0  0  0  0  0  0  0
   -4.7771    3.5661    0.3320 S   0  0  0  0  0  0  0  0  0  0  0  0
   -7.0273    5.5042    0.2570 H   0  0  0  0  0  0  0  0  0  0  0  0
   -6.0299    6.7171    1.1747 H   0  0  0  0  0  0  0  0  0  0  0  0
   -6.1863    6.8702   -0.6339 H   0  0  0  0  0  0  0  0  0  0  0  0
   -3.4742    6.6137   -0.9377 H   0  0  0  0  0  0  0  0  0  0  0  0
   -3.9296    1.0903    0.6110 H   0  0  0  0  0  0  0  0  0  0  0  0
   -1.3423   -2.6582    0.5203 H   0  0  0  0  0  0  0  0  0  0  0  0
   -2.8565   -3.6339   -0.9220 H   0  0  0  0  0  0  0  0  0  0  0  0
   -4.2826   -3.3285    0.2100 H   0  0  0  0  0  0  0  0  0  0  0  0
   -3.6314   -5.5880    0.8485 H   0  0  0  0  0  0  0  0  0  0  0  0
   -1.8829   -5.1961    0.4176 H   0  0  0  0  0  0  0  0  0  0  0  0
   -3.3966   -2.7135    2.7374 H   0  0  0  0  0  0  0  0  0  0  0  0
   -1.6132   -2.7285    2.9401 H   0  0  0  0  0  0  0  0  0  0  0  0
   -0.3808   -1.1089   -0.2444 H   0  0  0  0  0  0  0  0  0  0  0  0
    1.4948   -1.0894   -0.9879 H   0  0  0  0  0  0  0  0  0  0  0  0
    3.4332    0.8959   -2.2482 H   0  0  0  0  0  0  0  0  0  0  0  0
    4.1088   -0.6875   -3.7607 H   0  0  0  0  0  0  0  0  0  0  0  0
    2.2891   -0.9220   -3.6379 H   0  0  0  0  0  0  0  0  0  0  0  0
    3.3795   -2.0976   -2.8613 H   0  0  0  0  0  0  0  0  0  0  0  0
    5.3324   -1.7701   -2.1395 H   0  0  0  0  0  0  0  0  0  0  0  0
    7.0063   -2.3595   -0.3766 H   0  0  0  0  0  0  0  0  0  0  0  0
   -0.6109    3.0004   -1.1724 H   0  0  0  0  0  0  0  0  0  0  0  0
  1  2  1  0
  2  3  2  0
  3  4  1  0
  4  5  2  0
  5  6  1  0
  6  7  2  0
  7  8  1  0
  8  9  1  0
  9 10  1  0
 10 11  1  0
 11 12  1  0
 12 13  1  0
 13 14  1  0
  8 15  2  0
 15 16  1  0
 16 17  1  0
 17 18  2  0
 17 19  1  0
 19 20  1  0
 20 21  1  0
 20 22  1  0
 22 23  2  0
 23 24  1  0
 24 25  2  0
 25 26  1  0
 26 27  1  0
 26 28  1  0
 26 29  1  0
 25 30  1  0
 30 31  2  0
 16 32  2  0
  5 33  1  0
 33  2  1  0
 32  6  1  0
 14 10  1  0
 31 22  1  0
  1 34  1  0
  1 35  1  0
  1 36  1  0
  3 37  1  0
  7 38  1  0
 10 39  1  6
 11 40  1  0
 11 41  1  0
 12 42  1  0
 12 43  1  0
 14 44  1  0
 14 45  1  0
 15 46  1  0
 19 47  1  0
 20 48  1  6
 21 49  1  0
 21 50  1  0
 21 51  1  0
 23 52  1  0
 24 53  1  0
 32 54  1  0
M  END
$$$$
