@<TRIPOS>MOLECULE
*****
 48 51 0 0 0
SMALL
GASTEIGER

@<TRIPOS>ATOM
      1 O          -3.1513    0.4113    1.2854 O.2     1  UNL1       -0.2523
      2 C          -2.4070    0.4075    0.2387 C.2     1  UNL1        0.3064
      3 N          -3.0630    0.0859   -0.9687 N.am    1  UNL1       -0.2693
      4 C          -4.4691   -0.2115   -0.9871 C.ar    1  UNL1        0.0348
      5 C          -5.3589    0.8220   -1.1727 C.ar    1  UNL1       -0.0399
      6 C          -6.7398    0.5885   -1.1993 C.ar    1  UNL1       -0.0484
      7 C          -7.2313   -0.6701   -1.0414 C.ar    1  UNL1        0.0549
      8 C          -8.7195   -0.8946   -1.0736 C.3     1  UNL1        0.4174
      9 F          -9.0738   -1.8115   -0.1277 F       1  UNL1       -0.1659
     10 F          -9.3604    0.3065   -0.7839 F       1  UNL1       -0.1659
     11 F          -9.0423   -1.3529   -2.3229 F       1  UNL1       -0.1659
     12 C          -6.3549   -1.7153   -0.8547 C.ar    1  UNL1       -0.0484
     13 C          -4.9812   -1.4758   -0.8294 C.ar    1  UNL1       -0.0399
     14 N          -1.0293    0.7116    0.3401 N.am    1  UNL1       -0.2853
     15 C          -0.1107    0.7370   -0.7450 C.3     1  UNL1        0.0168
     16 C           0.9811   -0.2836   -0.4929 C.3     1  UNL1       -0.0257
     17 C           1.3328   -0.4033    0.9729 C.3     1  UNL1        0.0410
     18 C           2.8122   -0.6473    1.0483 C.ar    1  UNL1        0.2309
     19 N           3.7898    0.1707    0.5781 N.ar    1  UNL1       -0.1898
     20 C           5.0016   -0.3633    0.8174 C.ar    1  UNL1        0.2204
     21 C           6.3149    0.1679    0.4876 C.ar    1  UNL1        0.1111
     22 C           7.4341   -0.6004    0.7321 C.ar    1  UNL1       -0.0325
     23 C           8.7079   -0.1565    0.4433 C.ar    1  UNL1       -0.0582
     24 C           8.8670    1.0954   -0.1073 C.ar    1  UNL1       -0.0436
     25 C           7.7425    1.8531   -0.3469 C.ar    1  UNL1        0.0284
     26 N           6.5210    1.3808   -0.0499 N.ar    1  UNL1       -0.2517
     27 N           4.7421   -1.5247    1.4436 N.ar    1  UNL1       -0.0545
     28 O           3.4492   -1.6691    1.5676 O.2     1  UNL1       -0.3374
     29 C           1.0244    0.9065    1.6623 C.3     1  UNL1       -0.0257
     30 C          -0.5010    1.0289    1.6763 C.3     1  UNL1        0.0168
     31 H          -2.5013    0.0696   -1.8475 H       1  UNL1        0.1564
     32 H          -4.9882    1.8176   -1.2982 H       1  UNL1        0.0636
     33 H          -7.4277    1.4086   -1.3458 H       1  UNL1        0.0624
     34 H          -6.7306   -2.7274   -0.7270 H       1  UNL1        0.0624
     35 H          -4.3311   -2.2997   -0.6839 H       1  UNL1        0.0636
     36 H           0.3199    1.7593   -0.8443 H       1  UNL1        0.0465
     37 H          -0.5581    0.4845   -1.7186 H       1  UNL1        0.0465
     38 H           1.8788    0.0703   -1.0347 H       1  UNL1        0.0288
     39 H           0.6751   -1.2802   -0.8698 H       1  UNL1        0.0288
     40 H           0.8091   -1.2461    1.4370 H       1  UNL1        0.0397
     41 H           7.2904   -1.5966    1.1716 H       1  UNL1        0.0640
     42 H           9.5932   -0.7416    0.6270 H       1  UNL1        0.0619
     43 H           9.8542    1.5024   -0.3583 H       1  UNL1        0.0633
     44 H           7.8984    2.8385   -0.7827 H       1  UNL1        0.0830
     45 H           1.4138    1.7229    1.0515 H       1  UNL1        0.0288
     46 H           1.4304    0.8602    2.6828 H       1  UNL1        0.0288
     47 H          -0.9243    0.2412    2.3501 H       1  UNL1        0.0465
     48 H          -0.8293    2.0290    2.0004 H       1  UNL1        0.0465
@<TRIPOS>BOND
     1     1     2    2
     2     2     3   am
     3     3     4    1
     4     4     5   ar
     5     5     6   ar
     6     6     7   ar
     7     7     8    1
     8     8     9    1
     9     8    10    1
    10     8    11    1
    11     7    12   ar
    12    12    13   ar
    13     2    14   am
    14    14    15    1
    15    15    16    1
    16    16    17    1
    17    17    18    1
    18    18    19   ar
    19    19    20   ar
    20    20    21    1
    21    21    22   ar
    22    22    23   ar
    23    23    24   ar
    24    24    25   ar
    25    25    26   ar
    26    20    27   ar
    27    27    28   ar
    28    17    29    1
    29    29    30    1
    30    13     4   ar
    31    30    14    1
    32    28    18   ar
    33    26    21   ar
    34     3    31    1
    35     5    32    1
    36     6    33    1
    37    12    34    1
    38    13    35    1
    39    15    36    1
    40    15    37    1
    41    16    38    1
    42    16    39    1
    43    17    40    1
    44    22    41    1
    45    23    42    1
    46    24    43    1
    47    25    44    1
    48    29    45    1
    49    29    46    1
    50    30    47    1
    51    30    48    1
