
     RDKit          3D

 48 51  0  0  0  0  0  0  0  0999 V2000
   -3.1513    0.4113    1.2854 O   0  0  0  0  0  0  0  0  0  0  0  0
   -2.4070    0.4075    0.2387 C   0  0  0  0  0  0  0  0  0  0  0  0
   -3.0630    0.0859   -0.9687 N   0  0  0  0  0  0  0  0  0  0  0  0
   -4.4691   -0.2115   -0.9871 C   0  0  0  0  0  0  0  0  0  0  0  0
   -5.3589    0.8220   -1.1727 C   0  0  0  0  0  0  0  0  0  0  0  0
   -6.7398    0.5885   -1.1993 C   0  0  0  0  0  0  0  0  0  0  0  0
   -7.2313   -0.6701   -1.0414 C   0  0  0  0  0  0  0  0  0  0  0  0
   -8.7195   -0.8946   -1.0736 C   0  0  0  0  0  0  0  0  0  0  0  0
   -9.0738   -1.8115   -0.1277 F   0  0  0  0  0  0  0  0  0  0  0  0
   -9.3604    0.3065   -0.7839 F   0  0  0  0  0  0  0  0  0  0  0  0
   -9.0423   -1.3529   -2.3229 F   0  0  0  0  0  0  0  0  0  0  0  0
   -6.3549   -1.7153   -0.8547 C   0  0  0  0  0  0  0  0  0  0  0  0
   -4.9812   -1.4758   -0.8294 C   0  0  0  0  0  0  0  0  0  0  0  0
   -1.0293    0.7116    0.3401 N   0  0  0  0  0  0  0  0  0  0  0  0
   -0.1107    0.7370   -0.7450 C   0  0  0  0  0  0  0  0  0  0  0  0
    0.9811   -0.2836   -0.4929 C   0  0  0  0  0  0  0  0  0  0  0  0
    1.3328   -0.4033    0.9729 C   0  0  0  0  0  0  0  0  0  0  0  0
    2.8122   -0.6473    1.0483 C   0  0  0  0  0  0  0  0  0  0  0  0
    3.7898    0.1707    0.5781 N   0  0  0  0  0  0  0  0  0  0  0  0
    5.0016   -0.3633    0.8174 C   0  0  0  0  0  0  0  0  0  0  0  0
    6.3149    0.1679    0.4876 C   0  0  0  0  0  0  0  0  0  0  0  0
    7.4341   -0.6004    0.7321 C   0  0  0  0  0  0  0  0  0  0  0  0
    8.7079   -0.1565    0.4433 C   0  0  0  0  0  0  0  0  0  0  0  0
    8.8670    1.0954   -0.1073 C   0  0  0  0  0  0  0  0  0  0  0  0
    7.7425    1.8531   -0.3469 C   0  0  0  0  0  0  0  0  0  0  0  0
    6.5210    1.3808   -0.0499 N   0  0  0  0  0  0  0  0  0  0  0  0
    4.7421   -1.5247    1.4436 N   0  0  0  0  0  0  0  0  0  0  0  0
    3.4492   -1.6691    1.5676 O   0  0  0  0  0  0  0  0  0  0  0  0
    1.0244    0.9065    1.6623 C   0  0  0  0  0  0  0  0  0  0  0  0
   -0.5010    1.0289    1.6763 C   0  0  0  0  0  0  0  0  0  0  0  0
   -2.5013    0.0696   -1.8475 H   0  0  0  0  0  0  0  0  0  0  0  0
   -4.9882    1.8176   -1.2982 H   0  0  0  0  0  0  0  0  0  0  0  0
   -7.4277    1.4086   -1.3458 H   0  0  0  0  0  0  0  0  0  0  0  0
   -6.7306   -2.7274   -0.7270 H   0  0  0  0  0  0  0  0  0  0  0  0
   -4.3311   -2.2997   -0.6839 H   0  0  0  0  0  0  0  0  0  0  0  0
    0.3199    1.7593   -0.8443 H   0  0  0  0  0  0  0  0  0  0  0  0
   -0.5581    0.4845   -1.7186 H   0  0  0  0  0  0  0  0  0  0  0  0
    1.8788    0.0703   -1.0347 H   0  0  0  0  0  0  0  0  0  0  0  0
    0.6751   -1.2802   -0.8698 H   0  0  0  0  0  0  0  0  0  0  0  0
    0.8091   -1.2461    1.4370 H   0  0  0  0  0  0  0  0  0  0  0  0
    7.2904   -1.5966    1.1716 H   0  0  0  0  0  0  0  0  0  0  0  0
    9.5932   -0.7416    0.6270 H   0  0  0  0  0  0  0  0  0  0  0  0
    9.8542    1.5024   -0.3583 H   0  0  0  0  0  0  0  0  0  0  0  0
    7.8984    2.8385   -0.7827 H   0  0  0  0  0  0  0  0  0  0  0  0
    1.4138    1.7229    1.0515 H   0  0  0  0  0  0  0  0  0  0  0  0
    1.4304    0.8602    2.6828 H   0  0  0  0  0  0  0  0  0  0  0  0
   -0.9243    0.2412    2.3501 H   0  0  0  0  0  0  0  0  0  0  0  0
   -0.8293    2.0290    2.0004 H   0  0  0  0  0  0  0  0  0  0  0  0
  1  2  2  0
  2  3  1  0
  3  4  1  0
  4  5  2  0
  5  6  1  0
  6  7  2  0
  7  8  1  0
  8  9  1  0
  8 10  1  0
  8 11  1  0
  7 12  1  0
 12 13  2  0
  2 14  1  0
 14 15  1  0
 15 16  1  0
 16 17  1  0
 17 18  1  0
 18 19  2  0
 19 20  1  0
 20 21  1  0
 21 22  2  0
 22 23  1  0
 23 24  2  0
 24 25  1  0
 25 26  2  0
 20 27  2  0
 27 28  1  0
 17 29  1  0
 29 30  1  0
 13  4  1  0
 30 14  1  0
 28 18  1  0
 26 21  1  0
  3 31  1  0
  5 32  1  0
  6 33  1  0
 12 34  1  0
 13 35  1  0
 15 36  1  0
 15 37  1  0
 16 38  1  0
 16 39  1  0
 17 40  1  0
 22 41  1  0
 23 42  1  0
 24 43  1  0
 25 44  1  0
 29 45  1  0
 29 46  1  0
 30 47  1  0
 30 48  1  0
M  END
$$$$
