@<TRIPOS>MOLECULE
*****
 47 50 0 0 0
SMALL
GASTEIGER

@<TRIPOS>ATOM
      1 C           7.7822    0.2160   -0.9047 C.3     1  UNL1        0.0319
      2 N           6.5188   -0.2624   -0.3834 N.ar    1  UNL1       -0.2528
      3 C           5.4221   -0.6136   -1.0679 C.ar    1  UNL1        0.0722
      4 C           4.4239   -1.0184   -0.1858 C.ar    1  UNL1        0.2345
      5 S           2.8138   -1.5677   -0.5940 S.O2    1  UNL1        0.0813
      6 O           2.6268   -1.5550   -2.0769 O.2     1  UNL1       -0.1513
      7 O           2.5784   -2.9119    0.0106 O.2     1  UNL1       -0.1513
      8 N           1.7122   -0.4580    0.1869 N.3     1  UNL1       -0.1745
      9 C           2.0034   -0.6113    1.6231 C.3     1  UNL1        0.0237
     10 C           0.7438   -0.0179    2.2095 C.3     1  UNL1       -0.0208
     11 C           0.7639    1.4681    1.8827 C.3     1  UNL1       -0.0470
     12 C          -0.3500    1.6788    0.8537 C.3     1  UNL1       -0.0339
     13 C          -1.3045    0.5547    1.2768 C.3     1  UNL1        0.0278
     14 N          -2.4207    0.4199    0.4078 N.am    1  UNL1       -0.3081
     15 C          -3.7708    0.6215    0.8070 C.2     1  UNL1        0.2457
     16 O          -3.9310    0.9429    2.0349 O.2     1  UNL1       -0.2701
     17 C          -4.9078    0.4801   -0.0917 C.ar    1  UNL1        0.0551
     18 C          -5.1155    1.2433   -1.2192 C.ar    1  UNL1       -0.0468
     19 C          -6.2084    1.0766   -2.0472 C.ar    1  UNL1       -0.0426
     20 C          -7.1444    0.1069   -1.7470 C.ar    1  UNL1        0.0424
     21 CL         -8.5458   -0.1115   -2.8029 Cl      1  UNL1       -0.0835
     22 C          -6.9707   -0.6794   -0.6232 C.ar    1  UNL1       -0.0243
     23 C          -5.8558   -0.4814    0.1874 C.ar    1  UNL1        0.0544
     24 CL         -5.6847   -1.5113    1.6065 Cl      1  UNL1       -0.0827
     25 C          -0.3742   -0.6052    1.3325 C.3     1  UNL1       -0.0041
     26 C           0.3434   -0.8781    0.0375 C.3     1  UNL1        0.0254
     27 N           4.9810   -0.8892    1.0297 N.ar    1  UNL1       -0.1091
     28 N           6.2222   -0.4397    0.8852 N.ar    1  UNL1       -0.0640
     29 H           7.7010    1.2295   -1.3432 H       1  UNL1        0.0473
     30 H           8.5451    0.2653   -0.1103 H       1  UNL1        0.0473
     31 H           8.1119   -0.4514   -1.7390 H       1  UNL1        0.0473
     32 H           5.2987   -0.5969   -2.1391 H       1  UNL1        0.0863
     33 H           2.0879   -1.7010    1.8092 H       1  UNL1        0.0447
     34 H           2.8869   -0.0488    1.9250 H       1  UNL1        0.0447
     35 H           0.5983   -0.2289    3.2658 H       1  UNL1        0.0317
     36 H           0.4292    2.0312    2.7932 H       1  UNL1        0.0269
     37 H           1.7345    1.7980    1.4986 H       1  UNL1        0.0269
     38 H          -0.8187    2.6706    0.9670 H       1  UNL1        0.0283
     39 H          -0.0100    1.5149   -0.1716 H       1  UNL1        0.0283
     40 H          -1.5836    0.8192    2.3256 H       1  UNL1        0.0501
     41 H          -2.2439    0.1569   -0.5859 H       1  UNL1        0.1493
     42 H          -4.3768    1.9986   -1.4434 H       1  UNL1        0.0626
     43 H          -6.3698    1.6763   -2.9332 H       1  UNL1        0.0632
     44 H          -7.7166   -1.4215   -0.4209 H       1  UNL1        0.0647
     45 H          -0.8012   -1.5126    1.7677 H       1  UNL1        0.0335
     46 H          -0.1411   -0.4076   -0.8407 H       1  UNL1        0.0447
     47 H           0.3161   -1.9886   -0.1390 H       1  UNL1        0.0447
@<TRIPOS>BOND
     1     1     2    1
     2     2     3   ar
     3     3     4   ar
     4     4     5    1
     5     5     6    2
     6     5     7    2
     7     5     8    1
     8     8     9    1
     9     9    10    1
    10    10    11    1
    11    11    12    1
    12    12    13    1
    13    13    14    1
    14    14    15   am
    15    15    16    2
    16    15    17    1
    17    17    18   ar
    18    18    19   ar
    19    19    20   ar
    20    20    21    1
    21    20    22   ar
    22    22    23   ar
    23    23    24    1
    24    13    25    1
    25    25    26    1
    26     4    27   ar
    27    27    28   ar
    28    28     2   ar
    29    26     8    1
    30    25    10    1
    31    23    17   ar
    32     1    29    1
    33     1    30    1
    34     1    31    1
    35     3    32    1
    36     9    33    1
    37     9    34    1
    38    10    35    1
    39    11    36    1
    40    11    37    1
    41    12    38    1
    42    12    39    1
    43    13    40    1
    44    14    41    1
    45    18    42    1
    46    19    43    1
    47    22    44    1
    48    25    45    1
    49    26    46    1
    50    26    47    1
