@<TRIPOS>MOLECULE
*****
 39 40 0 0 0
SMALL
GASTEIGER

@<TRIPOS>ATOM
      1 N          -6.1418    0.4412   -1.9273 N.3     1  UNL1       -0.3285
      2 C          -4.7209    0.3251   -1.9791 C.3     1  UNL1        0.0087
      3 C          -4.0774    0.2824   -0.6113 C.3     1  UNL1        0.0241
      4 N          -2.6411    0.1657   -0.7506 N.pl3   1  UNL1       -0.3122
      5 C          -1.8024    0.1066    0.4026 C.ar    1  UNL1        0.2169
      6 N          -2.3115    0.1479    1.6412 N.ar    1  UNL1       -0.2221
      7 C          -1.5383    0.0950    2.7037 C.ar    1  UNL1        0.0466
      8 C          -0.1529   -0.0061    2.6054 C.ar    1  UNL1        0.0946
      9 C           0.6012   -0.0839    3.8324 C.2     1  UNL1        0.2463
     10 N          -0.0735    0.0188    5.0802 N.am    1  UNL1       -0.3252
     11 O           1.8286   -0.2383    3.8463 O.2     1  UNL1       -0.2702
     12 C           0.3872   -0.0487    1.3447 C.ar    1  UNL1        0.1402
     13 N           1.7814   -0.1054    1.1037 N.pl3   1  UNL1       -0.2987
     14 C           2.3625   -0.3386   -0.1689 C.ar    1  UNL1        0.0329
     15 C           1.7144   -0.9917   -1.1572 C.ar    1  UNL1       -0.0405
     16 C           2.3023   -1.1951   -2.4125 C.ar    1  UNL1       -0.0595
     17 C           3.5706   -0.7128   -2.6298 C.ar    1  UNL1       -0.0500
     18 C           4.2595   -0.0422   -1.6427 C.ar    1  UNL1        0.0566
     19 C           5.6405    0.4624   -1.9372 C.3     1  UNL1        0.4175
     20 F           5.7459    1.7631   -1.4488 F       1  UNL1       -0.1659
     21 F           6.5164   -0.3728   -1.2598 F       1  UNL1       -0.1659
     22 F           5.8780    0.4232   -3.2909 F       1  UNL1       -0.1659
     23 C           3.6561    0.1412   -0.4227 C.ar    1  UNL1       -0.0289
     24 N          -0.4842    0.0107    0.2986 N.ar    1  UNL1       -0.1987
     25 H          -6.5545    1.1457   -2.5436 H       1  UNL1        0.1183
     26 H          -6.5525    0.4121   -0.9680 H       1  UNL1        0.1183
     27 H          -4.3237    1.2057   -2.5439 H       1  UNL1        0.0437
     28 H          -4.4557   -0.5750   -2.5654 H       1  UNL1        0.0437
     29 H          -4.3431    1.1280    0.0188 H       1  UNL1        0.0474
     30 H          -4.4154   -0.6619   -0.1010 H       1  UNL1        0.0474
     31 H          -2.1857    0.1223   -1.6803 H       1  UNL1        0.1489
     32 H          -2.0208    0.1337    3.6835 H       1  UNL1        0.0839
     33 H          -0.7835   -0.6861    5.3351 H       1  UNL1        0.1453
     34 H           0.1407    0.7868    5.7264 H       1  UNL1        0.1453
     35 H           2.4444    0.0386    1.8756 H       1  UNL1        0.1536
     36 H           0.7216   -1.3973   -1.0296 H       1  UNL1        0.0636
     37 H           1.7595   -1.7283   -3.2055 H       1  UNL1        0.0618
     38 H           4.0718   -0.8427   -3.5841 H       1  UNL1        0.0623
     39 H           4.1965    0.6705    0.3623 H       1  UNL1        0.0642
@<TRIPOS>BOND
     1     1     2    1
     2     2     3    1
     3     3     4    1
     4     4     5    1
     5     5     6   ar
     6     6     7   ar
     7     7     8   ar
     8     8     9    1
     9     9    10   am
    10     9    11    2
    11     8    12   ar
    12    12    13    1
    13    13    14    1
    14    14    15   ar
    15    15    16   ar
    16    16    17   ar
    17    17    18   ar
    18    18    19    1
    19    19    20    1
    20    19    21    1
    21    19    22    1
    22    18    23   ar
    23    12    24   ar
    24    24     5   ar
    25    23    14   ar
    26     1    25    1
    27     1    26    1
    28     2    27    1
    29     2    28    1
    30     3    29    1
    31     3    30    1
    32     4    31    1
    33     7    32    1
    34    10    33    1
    35    10    34    1
    36    13    35    1
    37    15    36    1
    38    16    37    1
    39    17    38    1
    40    23    39    1
