
     RDKit          3D

 39 40  0  0  0  0  0  0  0  0999 V2000
   -6.1418    0.4412   -1.9273 N   0  0  0  0  0  0  0  0  0  0  0  0
   -4.7209    0.3251   -1.9791 C   0  0  0  0  0  0  0  0  0  0  0  0
   -4.0774    0.2824   -0.6113 C   0  0  0  0  0  0  0  0  0  0  0  0
   -2.6411    0.1657   -0.7506 N   0  0  0  0  0  0  0  0  0  0  0  0
   -1.8024    0.1066    0.4026 C   0  0  0  0  0  0  0  0  0  0  0  0
   -2.3115    0.1479    1.6412 N   0  0  0  0  0  0  0  0  0  0  0  0
   -1.5383    0.0950    2.7037 C   0  0  0  0  0  0  0  0  0  0  0  0
   -0.1529   -0.0061    2.6054 C   0  0  0  0  0  0  0  0  0  0  0  0
    0.6012   -0.0839    3.8324 C   0  0  0  0  0  0  0  0  0  0  0  0
   -0.0735    0.0188    5.0802 N   0  0  0  0  0  0  0  0  0  0  0  0
    1.8286   -0.2383    3.8463 O   0  0  0  0  0  0  0  0  0  0  0  0
    0.3872   -0.0487    1.3447 C   0  0  0  0  0  0  0  0  0  0  0  0
    1.7814   -0.1054    1.1037 N   0  0  0  0  0  0  0  0  0  0  0  0
    2.3625   -0.3386   -0.1689 C   0  0  0  0  0  0  0  0  0  0  0  0
    1.7144   -0.9917   -1.1572 C   0  0  0  0  0  0  0  0  0  0  0  0
    2.3023   -1.1951   -2.4125 C   0  0  0  0  0  0  0  0  0  0  0  0
    3.5706   -0.7128   -2.6298 C   0  0  0  0  0  0  0  0  0  0  0  0
    4.2595   -0.0422   -1.6427 C   0  0  0  0  0  0  0  0  0  0  0  0
    5.6405    0.4624   -1.9372 C   0  0  0  0  0  0  0  0  0  0  0  0
    5.7459    1.7631   -1.4488 F   0  0  0  0  0  0  0  0  0  0  0  0
    6.5164   -0.3728   -1.2598 F   0  0  0  0  0  0  0  0  0  0  0  0
    5.8780    0.4232   -3.2909 F   0  0  0  0  0  0  0  0  0  0  0  0
    3.6561    0.1412   -0.4227 C   0  0  0  0  0  0  0  0  0  0  0  0
   -0.4842    0.0107    0.2986 N   0  0  0  0  0  0  0  0  0  0  0  0
   -6.5545    1.1457   -2.5436 H   0  0  0  0  0  0  0  0  0  0  0  0
   -6.5525    0.4121   -0.9680 H   0  0  0  0  0  0  0  0  0  0  0  0
   -4.3237    1.2057   -2.5439 H   0  0  0  0  0  0  0  0  0  0  0  0
   -4.4557   -0.5750   -2.5654 H   0  0  0  0  0  0  0  0  0  0  0  0
   -4.3431    1.1280    0.0188 H   0  0  0  0  0  0  0  0  0  0  0  0
   -4.4154   -0.6619   -0.1010 H   0  0  0  0  0  0  0  0  0  0  0  0
   -2.1857    0.1223   -1.6803 H   0  0  0  0  0  0  0  0  0  0  0  0
   -2.0208    0.1337    3.6835 H   0  0  0  0  0  0  0  0  0  0  0  0
   -0.7835   -0.6861    5.3351 H   0  0  0  0  0  0  0  0  0  0  0  0
    0.1407    0.7868    5.7264 H   0  0  0  0  0  0  0  0  0  0  0  0
    2.4444    0.0386    1.8756 H   0  0  0  0  0  0  0  0  0  0  0  0
    0.7216   -1.3973   -1.0296 H   0  0  0  0  0  0  0  0  0  0  0  0
    1.7595   -1.7283   -3.2055 H   0  0  0  0  0  0  0  0  0  0  0  0
    4.0718   -0.8427   -3.5841 H   0  0  0  0  0  0  0  0  0  0  0  0
    4.1965    0.6705    0.3623 H   0  0  0  0  0  0  0  0  0  0  0  0
  1  2  1  0
  2  3  1  0
  3  4  1  0
  4  5  1  0
  5  6  2  0
  6  7  1  0
  7  8  2  0
  8  9  1  0
  9 10  1  0
  9 11  2  0
  8 12  1  0
 12 13  1  0
 13 14  1  0
 14 15  2  0
 15 16  1  0
 16 17  2  0
 17 18  1  0
 18 19  1  0
 19 20  1  0
 19 21  1  0
 19 22  1  0
 18 23  2  0
 12 24  2  0
 24  5  1  0
 23 14  1  0
  1 25  1  0
  1 26  1  0
  2 27  1  0
  2 28  1  0
  3 29  1  0
  3 30  1  0
  4 31  1  0
  7 32  1  0
 10 33  1  0
 10 34  1  0
 13 35  1  0
 15 36  1  0
 16 37  1  0
 17 38  1  0
 23 39  1  0
M  END
$$$$
