@<TRIPOS>MOLECULE
*****
 73 76 0 0 0
SMALL
GASTEIGER

@<TRIPOS>ATOM
      1 C          -1.1448   -0.8826    0.7262 C.3     1  UNL1       -0.0266
      2 C          -0.8888   -1.7611    1.9098 C.3     1  UNL1       -0.0426
      3 C           0.6021   -1.5315    2.0960 C.3     1  UNL1        0.0042
      4 C           1.0498   -1.7742    3.5062 C.3     1  UNL1       -0.0583
      5 C           0.9374   -0.2311    1.4884 C.3     1  UNL1        0.1821
      6 O           1.5570   -0.5050    0.2183 O.3     1  UNL1       -0.4494
      7 C           2.7331   -1.2789    0.3074 C.2     1  UNL1        0.3078
      8 O           3.2922   -1.7480    1.3584 O.2     1  UNL1       -0.2508
      9 C           3.3763   -1.5663   -1.0028 C.3     1  UNL1        0.0421
     10 C           4.6318   -2.3953   -0.8304 C.3     1  UNL1       -0.0552
     11 C           1.7442    0.7190    2.2321 C.2     1  UNL1        0.2144
     12 O           1.3437    1.0513    3.3632 O.2     1  UNL1       -0.2895
     13 C           3.0094    1.4869    2.0505 C.3     1  UNL1        0.1542
     14 O           3.6364    1.2790    0.8099 O.3     1  UNL1       -0.4568
     15 C           4.8078    1.8813    0.4249 C.2     1  UNL1        0.3072
     16 O           5.3449    2.6691    1.2462 O.2     1  UNL1       -0.2509
     17 C           5.4329    1.6322   -0.8936 C.3     1  UNL1        0.0421
     18 C           6.7027    2.4157   -1.0639 C.3     1  UNL1       -0.0552
     19 C          -0.4429    0.3706    1.1886 C.3     1  UNL1        0.0207
     20 C          -1.1111    0.8795    2.4093 C.3     1  UNL1       -0.0551
     21 C          -0.4082    1.3195    0.0437 C.3     1  UNL1       -0.0154
     22 C          -1.8513    1.6346   -0.3403 C.3     1  UNL1        0.0762
     23 O          -2.3425    2.3652    0.6772 O.3     1  UNL1       -0.3900
     24 C          -2.5097    0.3953   -0.7733 C.3     1  UNL1        0.0864
     25 CL         -1.4094   -0.3261   -2.0054 Cl      1  UNL1       -0.1139
     26 C          -2.5504   -0.6807    0.3226 C.3     1  UNL1       -0.0146
     27 C          -3.0113   -1.9812   -0.3263 C.3     1  UNL1       -0.0445
     28 C          -4.4195   -1.7139   -0.8345 C.3     1  UNL1       -0.0301
     29 C          -4.2504   -0.7886   -1.9949 C.2     1  UNL1       -0.0545
     30 C          -4.4864   -1.2159   -3.2245 C.2     1  UNL1       -0.0148
     31 C          -4.2770   -0.1975   -4.2446 C.2     1  UNL1        0.1787
     32 O          -4.4755   -0.5058   -5.4469 O.2     1  UNL1       -0.2879
     33 C          -3.8480    1.1531   -3.9060 C.2     1  UNL1       -0.0180
     34 C          -3.6504    1.4359   -2.6303 C.2     1  UNL1       -0.0688
     35 C          -3.8187    0.5159   -1.4795 C.3     1  UNL1        0.0294
     36 C          -4.9383    1.0752   -0.6511 C.3     1  UNL1       -0.0506
     37 H          -0.5740   -1.2818   -0.1290 H       1  UNL1        0.0311
     38 H          -1.1475   -2.8019    1.6299 H       1  UNL1        0.0272
     39 H          -1.4914   -1.5349    2.7974 H       1  UNL1        0.0272
     40 H           1.0537   -2.3975    1.5190 H       1  UNL1        0.0341
     41 H           1.8655   -1.1624    3.8737 H       1  UNL1        0.0234
     42 H           1.3884   -2.8384    3.6893 H       1  UNL1        0.0234
     43 H           0.1529   -1.6857    4.1662 H       1  UNL1        0.0234
     44 H           3.6809   -0.6005   -1.4537 H       1  UNL1        0.0375
     45 H           2.6786   -2.0901   -1.6919 H       1  UNL1        0.0375
     46 H           4.9954   -2.6773   -1.8325 H       1  UNL1        0.0235
     47 H           4.3780   -3.3462   -0.2803 H       1  UNL1        0.0235
     48 H           5.4105   -1.8513   -0.2956 H       1  UNL1        0.0235
     49 H           2.8365    2.5828    2.1175 H       1  UNL1        0.0780
     50 H           3.7236    1.1596    2.8382 H       1  UNL1        0.0780
     51 H           5.7392    0.5477   -0.9753 H       1  UNL1        0.0375
     52 H           4.7806    1.8121   -1.7504 H       1  UNL1        0.0375
     53 H           7.0575    2.2836   -2.1018 H       1  UNL1        0.0235
     54 H           6.5603    3.5078   -0.9235 H       1  UNL1        0.0235
     55 H           7.5075    2.0111   -0.4144 H       1  UNL1        0.0235
     56 H          -0.8648    1.9560    2.6353 H       1  UNL1        0.0237
     57 H          -0.8516    0.3161    3.3271 H       1  UNL1        0.0237
     58 H          -2.2360    0.7691    2.3735 H       1  UNL1        0.0237
     59 H           0.1121    0.8215   -0.7975 H       1  UNL1        0.0297
     60 H           0.0405    2.3059    0.3064 H       1  UNL1        0.0297
     61 H          -1.7603    2.2966   -1.2317 H       1  UNL1        0.0611
     62 H          -3.2654    2.3691    0.9121 H       1  UNL1        0.2099
     63 H          -3.2651   -0.4587    1.1140 H       1  UNL1        0.0322
     64 H          -2.9341   -2.8274    0.3543 H       1  UNL1        0.0272
     65 H          -2.3757   -2.1653   -1.2294 H       1  UNL1        0.0272
     66 H          -4.9890   -1.2839   -0.0019 H       1  UNL1        0.0310
     67 H          -4.8614   -2.6653   -1.2084 H       1  UNL1        0.0310
     68 H          -4.8016   -2.2302   -3.4016 H       1  UNL1        0.0656
     69 H          -3.7135    1.8542   -4.7158 H       1  UNL1        0.0653
     70 H          -3.3326    2.4811   -2.4954 H       1  UNL1        0.0582
     71 H          -5.0096    2.1867   -0.7238 H       1  UNL1        0.0242
     72 H          -5.8832    0.7272   -1.1218 H       1  UNL1        0.0242
     73 H          -4.9719    0.7150    0.3911 H       1  UNL1        0.0242
@<TRIPOS>BOND
     1     1     2    1
     2     2     3    1
     3     3     4    1
     4     3     5    1
     5     5     6    1
     6     6     7    1
     7     7     8    2
     8     7     9    1
     9     9    10    1
    10     5    11    1
    11    11    12    2
    12    11    13    1
    13    13    14    1
    14    14    15    1
    15    15    16    2
    16    15    17    1
    17    17    18    1
    18     5    19    1
    19    19    20    1
    20    19    21    1
    21    21    22    1
    22    22    23    1
    23    22    24    1
    24    24    25    1
    25    24    26    1
    26    26    27    1
    27    27    28    1
    28    28    29    1
    29    29    30    2
    30    30    31    1
    31    31    32    2
    32    31    33    1
    33    33    34    2
    34    34    35    1
    35    35    36    1
    36    19     1    1
    37    35    24    1
    38    26     1    1
    39    35    29    1
    40     1    37    1
    41     2    38    1
    42     2    39    1
    43     3    40    1
    44     4    41    1
    45     4    42    1
    46     4    43    1
    47     9    44    1
    48     9    45    1
    49    10    46    1
    50    10    47    1
    51    10    48    1
    52    13    49    1
    53    13    50    1
    54    17    51    1
    55    17    52    1
    56    18    53    1
    57    18    54    1
    58    18    55    1
    59    20    56    1
    60    20    57    1
    61    20    58    1
    62    21    59    1
    63    21    60    1
    64    22    61    1
    65    23    62    1
    66    26    63    1
    67    27    64    1
    68    27    65    1
    69    28    66    1
    70    28    67    1
    71    30    68    1
    72    33    69    1
    73    34    70    1
    74    36    71    1
    75    36    72    1
    76    36    73    1
