
     RDKit          3D

 73 76  0  0  0  0  0  0  0  0999 V2000
   -1.1448   -0.8826    0.7262 C   0  0  2  0  0  0  0  0  0  0  0  0
   -0.8888   -1.7611    1.9098 C   0  0  0  0  0  0  0  0  0  0  0  0
    0.6021   -1.5315    2.0960 C   0  0  2  0  0  0  0  0  0  0  0  0
    1.0498   -1.7742    3.5062 C   0  0  0  0  0  0  0  0  0  0  0  0
    0.9374   -0.2311    1.4884 C   0  0  2  0  0  0  0  0  0  0  0  0
    1.5570   -0.5050    0.2183 O   0  0  0  0  0  0  0  0  0  0  0  0
    2.7331   -1.2789    0.3074 C   0  0  0  0  0  0  0  0  0  0  0  0
    3.2922   -1.7480    1.3584 O   0  0  0  0  0  0  0  0  0  0  0  0
    3.3763   -1.5663   -1.0028 C   0  0  0  0  0  0  0  0  0  0  0  0
    4.6318   -2.3953   -0.8304 C   0  0  0  0  0  0  0  0  0  0  0  0
    1.7442    0.7190    2.2321 C   0  0  0  0  0  0  0  0  0  0  0  0
    1.3437    1.0513    3.3632 O   0  0  0  0  0  0  0  0  0  0  0  0
    3.0094    1.4869    2.0505 C   0  0  0  0  0  0  0  0  0  0  0  0
    3.6364    1.2790    0.8099 O   0  0  0  0  0  0  0  0  0  0  0  0
    4.8078    1.8813    0.4249 C   0  0  0  0  0  0  0  0  0  0  0  0
    5.3449    2.6691    1.2462 O   0  0  0  0  0  0  0  0  0  0  0  0
    5.4329    1.6322   -0.8936 C   0  0  0  0  0  0  0  0  0  0  0  0
    6.7027    2.4157   -1.0639 C   0  0  0  0  0  0  0  0  0  0  0  0
   -0.4429    0.3706    1.1886 C   0  0  2  0  0  0  0  0  0  0  0  0
   -1.1111    0.8795    2.4093 C   0  0  0  0  0  0  0  0  0  0  0  0
   -0.4082    1.3195    0.0437 C   0  0  0  0  0  0  0  0  0  0  0  0
   -1.8513    1.6346   -0.3403 C   0  0  2  0  0  0  0  0  0  0  0  0
   -2.3425    2.3652    0.6772 O   0  0  0  0  0  0  0  0  0  0  0  0
   -2.5097    0.3953   -0.7733 C   0  0  1  0  0  0  0  0  0  0  0  0
   -1.4094   -0.3261   -2.0054 Cl  0  0  0  0  0  0  0  0  0  0  0  0
   -2.5504   -0.6807    0.3226 C   0  0  1  0  0  0  0  0  0  0  0  0
   -3.0113   -1.9812   -0.3263 C   0  0  0  0  0  0  0  0  0  0  0  0
   -4.4195   -1.7139   -0.8345 C   0  0  0  0  0  0  0  0  0  0  0  0
   -4.2504   -0.7886   -1.9949 C   0  0  0  0  0  0  0  0  0  0  0  0
   -4.4864   -1.2159   -3.2245 C   0  0  0  0  0  0  0  0  0  0  0  0
   -4.2770   -0.1975   -4.2446 C   0  0  0  0  0  0  0  0  0  0  0  0
   -4.4755   -0.5058   -5.4469 O   0  0  0  0  0  0  0  0  0  0  0  0
   -3.8480    1.1531   -3.9060 C   0  0  0  0  0  0  0  0  0  0  0  0
   -3.6504    1.4359   -2.6303 C   0  0  0  0  0  0  0  0  0  0  0  0
   -3.8187    0.5159   -1.4795 C   0  0  2  0  0  0  0  0  0  0  0  0
   -4.9383    1.0752   -0.6511 C   0  0  0  0  0  0  0  0  0  0  0  0
   -0.5740   -1.2818   -0.1290 H   0  0  0  0  0  0  0  0  0  0  0  0
   -1.1475   -2.8019    1.6299 H   0  0  0  0  0  0  0  0  0  0  0  0
   -1.4914   -1.5349    2.7974 H   0  0  0  0  0  0  0  0  0  0  0  0
    1.0537   -2.3975    1.5190 H   0  0  0  0  0  0  0  0  0  0  0  0
    1.8655   -1.1624    3.8737 H   0  0  0  0  0  0  0  0  0  0  0  0
    1.3884   -2.8384    3.6893 H   0  0  0  0  0  0  0  0  0  0  0  0
    0.1529   -1.6857    4.1662 H   0  0  0  0  0  0  0  0  0  0  0  0
    3.6809   -0.6005   -1.4537 H   0  0  0  0  0  0  0  0  0  0  0  0
    2.6786   -2.0901   -1.6919 H   0  0  0  0  0  0  0  0  0  0  0  0
    4.9954   -2.6773   -1.8325 H   0  0  0  0  0  0  0  0  0  0  0  0
    4.3780   -3.3462   -0.2803 H   0  0  0  0  0  0  0  0  0  0  0  0
    5.4105   -1.8513   -0.2956 H   0  0  0  0  0  0  0  0  0  0  0  0
    2.8365    2.5828    2.1175 H   0  0  0  0  0  0  0  0  0  0  0  0
    3.7236    1.1596    2.8382 H   0  0  0  0  0  0  0  0  0  0  0  0
    5.7392    0.5477   -0.9753 H   0  0  0  0  0  0  0  0  0  0  0  0
    4.7806    1.8121   -1.7504 H   0  0  0  0  0  0  0  0  0  0  0  0
    7.0575    2.2836   -2.1018 H   0  0  0  0  0  0  0  0  0  0  0  0
    6.5603    3.5078   -0.9235 H   0  0  0  0  0  0  0  0  0  0  0  0
    7.5075    2.0111   -0.4144 H   0  0  0  0  0  0  0  0  0  0  0  0
   -0.8648    1.9560    2.6353 H   0  0  0  0  0  0  0  0  0  0  0  0
   -0.8516    0.3161    3.3271 H   0  0  0  0  0  0  0  0  0  0  0  0
   -2.2360    0.7691    2.3735 H   0  0  0  0  0  0  0  0  0  0  0  0
    0.1121    0.8215   -0.7975 H   0  0  0  0  0  0  0  0  0  0  0  0
    0.0405    2.3059    0.3064 H   0  0  0  0  0  0  0  0  0  0  0  0
   -1.7603    2.2966   -1.2317 H   0  0  0  0  0  0  0  0  0  0  0  0
   -3.2654    2.3691    0.9121 H   0  0  0  0  0  0  0  0  0  0  0  0
   -3.2651   -0.4587    1.1140 H   0  0  0  0  0  0  0  0  0  0  0  0
   -2.9341   -2.8274    0.3543 H   0  0  0  0  0  0  0  0  0  0  0  0
   -2.3757   -2.1653   -1.2294 H   0  0  0  0  0  0  0  0  0  0  0  0
   -4.9890   -1.2839   -0.0019 H   0  0  0  0  0  0  0  0  0  0  0  0
   -4.8614   -2.6653   -1.2084 H   0  0  0  0  0  0  0  0  0  0  0  0
   -4.8016   -2.2302   -3.4016 H   0  0  0  0  0  0  0  0  0  0  0  0
   -3.7135    1.8542   -4.7158 H   0  0  0  0  0  0  0  0  0  0  0  0
   -3.3326    2.4811   -2.4954 H   0  0  0  0  0  0  0  0  0  0  0  0
   -5.0096    2.1867   -0.7238 H   0  0  0  0  0  0  0  0  0  0  0  0
   -5.8832    0.7272   -1.1218 H   0  0  0  0  0  0  0  0  0  0  0  0
   -4.9719    0.7150    0.3911 H   0  0  0  0  0  0  0  0  0  0  0  0
  1  2  1  0
  2  3  1  0
  3  4  1  0
  3  5  1  0
  5  6  1  6
  6  7  1  0
  7  8  2  0
  7  9  1  0
  9 10  1  0
  5 11  1  0
 11 12  2  0
 11 13  1  0
 13 14  1  0
 14 15  1  0
 15 16  2  0
 15 17  1  0
 17 18  1  0
  5 19  1  0
 19 20  1  1
 19 21  1  0
 21 22  1  0
 22 23  1  0
 22 24  1  0
 24 25  1  6
 24 26  1  0
 26 27  1  0
 27 28  1  0
 28 29  1  0
 29 30  2  0
 30 31  1  0
 31 32  2  0
 31 33  1  0
 33 34  2  0
 34 35  1  0
 35 36  1  1
 19  1  1  0
 35 24  1  0
 26  1  1  0
 35 29  1  0
  1 37  1  6
  2 38  1  0
  2 39  1  0
  3 40  1  6
  4 41  1  0
  4 42  1  0
  4 43  1  0
  9 44  1  0
  9 45  1  0
 10 46  1  0
 10 47  1  0
 10 48  1  0
 13 49  1  0
 13 50  1  0
 17 51  1  0
 17 52  1  0
 18 53  1  0
 18 54  1  0
 18 55  1  0
 20 56  1  0
 20 57  1  0
 20 58  1  0
 21 59  1  0
 21 60  1  0
 22 61  1  6
 23 62  1  0
 26 63  1  1
 27 64  1  0
 27 65  1  0
 28 66  1  0
 28 67  1  0
 30 68  1  0
 33 69  1  0
 34 70  1  0
 36 71  1  0
 36 72  1  0
 36 73  1  0
M  END
$$$$
