@<TRIPOS>MOLECULE
*****
 52 54 0 0 0
SMALL
GASTEIGER

@<TRIPOS>ATOM
      1 C          -2.6652    0.5412   -1.3646 C.3     1  UNL1       -0.0121
      2 N          -2.4442    0.6157   -0.0136 N.3     1  UNL1       -0.2974
      3 C          -1.4322    1.4532    0.5298 C.3     1  UNL1        0.0174
      4 C          -0.0257    1.1616    0.4006 C.2     1  UNL1       -0.0695
      5 C           0.5791    0.1685   -0.2300 C.2     1  UNL1       -0.0573
      6 C           2.0070    0.0234   -0.2498 C.ar    1  UNL1       -0.0252
      7 C           2.6204   -0.9008   -1.0735 C.ar    1  UNL1       -0.0540
      8 C           4.0130   -1.0288   -1.0800 C.ar    1  UNL1       -0.0535
      9 C           4.8264   -0.2528   -0.2742 C.ar    1  UNL1       -0.0178
     10 C           6.2811   -0.4231   -0.3309 C.ar    1  UNL1       -0.0179
     11 C           6.8362   -1.6717   -0.5937 C.ar    1  UNL1       -0.0540
     12 C           8.1991   -1.8603   -0.6868 C.ar    1  UNL1       -0.0612
     13 C           9.0875   -0.8142   -0.5254 C.ar    1  UNL1       -0.0617
     14 C           8.5499    0.4513   -0.2598 C.ar    1  UNL1       -0.0612
     15 C           7.1651    0.6216   -0.1660 C.ar    1  UNL1       -0.0540
     16 C           4.2038    0.6483    0.5315 C.ar    1  UNL1       -0.0535
     17 C           2.8154    0.7959    0.5514 C.ar    1  UNL1       -0.0540
     18 C          -3.2877    0.0702    0.9860 C.3     1  UNL1        0.0276
     19 C          -4.6338    0.6436    1.0181 C.ar    1  UNL1        0.0121
     20 C          -5.0041    1.9576    1.3419 C.ar    1  UNL1        0.0975
     21 O          -6.3046    2.0568    1.1921 O.2     1  UNL1       -0.4626
     22 C          -6.8540    0.9434    0.7991 C.ar    1  UNL1        0.1351
     23 C          -8.1769    0.5686    0.5237 C.ar    1  UNL1       -0.0188
     24 C          -8.4612   -0.7107    0.1289 C.ar    1  UNL1       -0.0582
     25 C          -7.4660   -1.6479   -0.0046 C.ar    1  UNL1       -0.0610
     26 C          -6.1703   -1.2778    0.2663 C.ar    1  UNL1       -0.0507
     27 C          -5.8285    0.0193    0.6722 C.ar    1  UNL1        0.0245
     28 CL          0.6893    0.0000    0.0000 Cl      2  UNL2       -0.1454
     29 H          -1.9810   -0.0589   -2.0235 H       1  UNL1        0.0391
     30 H          -2.6687    1.5817   -1.8095 H       1  UNL1        0.0391
     31 H          -3.6772    0.1134   -1.5973 H       1  UNL1        0.0391
     32 H          -1.6560    1.5655    1.6249 H       1  UNL1        0.0470
     33 H          -1.5854    2.4695    0.0369 H       1  UNL1        0.0470
     34 H           0.6402    1.9075    0.9051 H       1  UNL1        0.0585
     35 H          -0.0989   -0.5541   -0.7293 H       1  UNL1        0.0621
     36 H           2.0504   -1.5370   -1.7355 H       1  UNL1        0.0624
     37 H           4.5028   -1.7502   -1.7284 H       1  UNL1        0.0624
     38 H           6.1153   -2.4690   -0.7114 H       1  UNL1        0.0624
     39 H           8.5722   -2.8795   -0.9155 H       1  UNL1        0.0618
     40 H          10.1430   -1.0104   -0.6050 H       1  UNL1        0.0618
     41 H           9.2110    1.2860   -0.1423 H       1  UNL1        0.0618
     42 H           6.7540    1.6047    0.0490 H       1  UNL1        0.0624
     43 H           4.7929    1.2742    1.1795 H       1  UNL1        0.0624
     44 H           2.4432    1.5587    1.2462 H       1  UNL1        0.0624
     45 H          -3.3765   -1.0458    0.7481 H       1  UNL1        0.0477
     46 H          -2.7874    0.1090    2.0041 H       1  UNL1        0.0477
     47 H          -4.2944    2.7377    1.6572 H       1  UNL1        0.1033
     48 H          -8.9394    1.3336    0.6474 H       1  UNL1        0.0654
     49 H          -9.5332   -0.9403   -0.0700 H       1  UNL1        0.0619
     50 H          -7.7359   -2.6414   -0.3095 H       1  UNL1        0.0618
     51 H          -5.3206   -1.9881    0.1895 H       1  UNL1        0.0625
     52 H          -0.6893    0.0000    0.0000 H       1  UNL1        0.1454
@<TRIPOS>BOND
     1     1     2    1
     2     2     3    1
     3     3     4    1
     4     4     5    2
     5     5     6    1
     6     6     7   ar
     7     7     8   ar
     8     8     9   ar
     9     9    10    1
    10    10    11   ar
    11    11    12   ar
    12    12    13   ar
    13    13    14   ar
    14    14    15   ar
    15     9    16   ar
    16    16    17   ar
    17     2    18    1
    18    18    19    1
    19    19    20   ar
    20    20    21   ar
    21    21    22   ar
    22    22    23   ar
    23    23    24   ar
    24    24    25   ar
    25    25    26   ar
    26    26    27   ar
    27    17     6   ar
    28    27    19   ar
    29    15    10   ar
    30    27    22   ar
    31     1    29    1
    32     1    30    1
    33     1    31    1
    34     3    32    1
    35     3    33    1
    36     4    34    1
    37     5    35    1
    38     7    36    1
    39     8    37    1
    40    11    38    1
    41    12    39    1
    42    13    40    1
    43    14    41    1
    44    15    42    1
    45    16    43    1
    46    17    44    1
    47    18    45    1
    48    18    46    1
    49    20    47    1
    50    23    48    1
    51    24    49    1
    52    25    50    1
    53    26    51    1
    54    28    52    1
