@<TRIPOS>MOLECULE
*****
 48 53 0 0 0
SMALL
GASTEIGER

@<TRIPOS>ATOM
      1 C          -3.7018   -1.6507    1.2996 C.3     1  UNL1       -0.0203
      2 C          -3.1067   -0.4642    0.6474 C.ar    1  UNL1        0.0660
      3 N          -3.7741    0.5289    0.0524 N.ar    1  UNL1       -0.1752
      4 N          -2.9085    1.4019   -0.4093 N.ar    1  UNL1       -0.2556
      5 C          -3.2431    2.6054   -1.1104 C.3     1  UNL1        0.0537
      6 C          -4.7028    3.0090   -1.1489 C.3     1  UNL1       -0.0285
      7 C          -3.7131    3.8187   -0.3583 C.3     1  UNL1       -0.0285
      8 C          -1.6688    0.9868   -0.1200 C.ar    1  UNL1        0.1297
      9 C          -1.7849   -0.1931    0.5483 C.ar    1  UNL1        0.0305
     10 C          -0.4431   -0.7203    0.8991 C.3     1  UNL1        0.0867
     11 C          -0.3107   -2.0663    0.3171 C.ar    1  UNL1       -0.0220
     12 C          -0.3990   -3.1648    1.1252 C.ar    1  UNL1       -0.0551
     13 C          -0.2758   -4.4505    0.5910 C.ar    1  UNL1       -0.0431
     14 C          -0.0640   -4.5986   -0.7620 C.ar    1  UNL1        0.0410
     15 CL          0.0864   -6.2140   -1.4049 Cl      1  UNL1       -0.0835
     16 C           0.0276   -3.5048   -1.5904 C.ar    1  UNL1       -0.0431
     17 C          -0.0988   -2.2479   -1.0288 C.ar    1  UNL1       -0.0551
     18 N           0.5126    0.2395    0.4092 N.am    1  UNL1       -0.2389
     19 C           1.9273    0.2299    0.4929 C.ar    1  UNL1        0.1311
     20 C           2.5568   -0.8089    1.1335 C.ar    1  UNL1       -0.0191
     21 C           3.9412   -0.8759    1.2468 C.ar    1  UNL1       -0.0276
     22 C           4.7000    0.1535    0.6860 C.ar    1  UNL1        0.1316
     23 N           6.0196    0.3996    0.6128 N.ar    1  UNL1       -0.1278
     24 N           6.2063    1.5347   -0.0403 N.ar    1  UNL1       -0.0635
     25 N           5.0194    2.0159   -0.3850 N.ar    1  UNL1       -0.2297
     26 C           4.8140    3.2508   -1.1174 C.3     1  UNL1        0.0341
     27 C           4.0444    1.1928    0.0437 C.ar    1  UNL1        0.1800
     28 N           2.6940    1.2000   -0.0328 N.ar    1  UNL1       -0.2109
     29 C          -0.2529    1.2861   -0.2251 C.2     1  UNL1        0.2711
     30 O           0.2668    2.2894   -0.7747 O.2     1  UNL1       -0.2679
     31 H          -3.4177   -2.5725    0.7755 H       1  UNL1        0.0293
     32 H          -4.8006   -1.6015    1.3425 H       1  UNL1        0.0293
     33 H          -3.3544   -1.6829    2.3631 H       1  UNL1        0.0293
     34 H          -2.7347    2.7637   -2.0921 H       1  UNL1        0.0545
     35 H          -5.4458    2.3812   -0.5949 H       1  UNL1        0.0286
     36 H          -5.0980    3.5357   -2.0430 H       1  UNL1        0.0286
     37 H          -3.4348    4.8317   -0.7170 H       1  UNL1        0.0286
     38 H          -3.7588    3.7492    0.7581 H       1  UNL1        0.0286
     39 H          -0.3569   -0.7495    1.9986 H       1  UNL1        0.0606
     40 H          -0.5649   -3.0150    2.1782 H       1  UNL1        0.0621
     41 H          -0.3555   -5.2741    1.2854 H       1  UNL1        0.0632
     42 H           0.1940   -3.6594   -2.6452 H       1  UNL1        0.0632
     43 H          -0.0318   -1.3671   -1.6521 H       1  UNL1        0.0621
     44 H           1.9807   -1.6084    1.5718 H       1  UNL1        0.0653
     45 H           4.4545   -1.6785    1.7431 H       1  UNL1        0.0642
     46 H           3.8248    3.6901   -0.8610 H       1  UNL1        0.0474
     47 H           5.6081    3.9861   -0.7959 H       1  UNL1        0.0474
     48 H           4.9236    3.0885   -2.2118 H       1  UNL1        0.0474
@<TRIPOS>BOND
     1     1     2    1
     2     2     3   ar
     3     3     4   ar
     4     4     5    1
     5     5     6    1
     6     6     7    1
     7     4     8   ar
     8     8     9   ar
     9     9    10    1
    10    10    11    1
    11    11    12   ar
    12    12    13   ar
    13    13    14   ar
    14    14    15    1
    15    14    16   ar
    16    16    17   ar
    17    10    18    1
    18    18    19    1
    19    19    20   ar
    20    20    21   ar
    21    21    22   ar
    22    22    23   ar
    23    23    24   ar
    24    24    25   ar
    25    25    26    1
    26    25    27   ar
    27    27    28   ar
    28    18    29   am
    29    29    30    2
    30     9     2   ar
    31    17    11   ar
    32    28    19   ar
    33     7     5    1
    34    29     8    1
    35    27    22   ar
    36     1    31    1
    37     1    32    1
    38     1    33    1
    39     5    34    1
    40     6    35    1
    41     6    36    1
    42     7    37    1
    43     7    38    1
    44    10    39    1
    45    12    40    1
    46    13    41    1
    47    16    42    1
    48    17    43    1
    49    20    44    1
    50    21    45    1
    51    26    46    1
    52    26    47    1
    53    26    48    1
