
     RDKit          3D

 48 51  0  0  0  0  0  0  0  0999 V2000
   -0.0266    0.3358   -1.5811 O   0  0  0  0  0  0  0  0  0  0  0  0
    0.5359    0.6699   -0.5119 C   0  0  0  0  0  0  0  0  0  0  0  0
    1.9600    0.8371   -0.5208 N   0  0  0  0  0  0  0  0  0  0  0  0
    2.7590    0.6388   -1.6945 C   0  0  0  0  0  0  0  0  0  0  0  0
    4.1782    0.8869   -1.3775 C   0  0  0  0  0  0  0  0  0  0  0  0
    5.0455   -0.0418   -0.9474 N   0  0  0  0  0  0  0  0  0  0  0  0
    6.2416    0.5051   -0.7542 C   0  0  0  0  0  0  0  0  0  0  0  0
    7.4560   -0.1937   -0.2836 C   0  0  0  0  0  0  0  0  0  0  0  0
    7.4428   -1.5355    0.0066 C   0  0  0  0  0  0  0  0  0  0  0  0
    8.5723   -2.2033    0.4482 C   0  0  0  0  0  0  0  0  0  0  0  0
    9.7582   -1.4849    0.6012 C   0  0  0  0  0  0  0  0  0  0  0  0
    9.7645   -0.1336    0.3071 C   0  0  0  0  0  0  0  0  0  0  0  0
    8.6199    0.4996   -0.1308 C   0  0  0  0  0  0  0  0  0  0  0  0
    6.1313    1.8287   -1.0727 C   0  0  0  0  0  0  0  0  0  0  0  0
    4.8462    2.0559   -1.4586 N   0  0  0  0  0  0  0  0  0  0  0  0
   -0.2150    0.8692    0.6430 N   0  0  0  0  0  0  0  0  0  0  0  0
   -1.6596    0.6675    0.5236 C   0  0  0  0  0  0  0  0  0  0  0  0
   -2.5114   -0.1118    0.6091 N   0  0  0  0  0  0  0  0  0  0  0  0
   -3.8068    0.0425    0.4229 C   0  0  0  0  0  0  0  0  0  0  0  0
   -4.1867    1.3087    0.0799 C   0  0  0  0  0  0  0  0  0  0  0  0
   -5.8060    2.0860   -0.2908 S   0  0  0  0  0  0  0  0  0  0  0  0
   -7.0168    0.8150   -0.1306 C   0  0  0  0  0  0  0  0  0  0  0  0
   -7.6164    0.5977    1.0841 C   0  0  0  0  0  0  0  0  0  0  0  0
   -8.5787   -0.3934    1.2641 C   0  0  0  0  0  0  0  0  0  0  0  0
   -8.9225   -1.1663    0.1746 C   0  0  0  0  0  0  0  0  0  0  0  0
   -9.9263   -2.2313    0.2765 C   0  0  0  0  0  0  0  0  0  0  0  0
  -10.2216   -2.9144   -0.7118 O   0  0  0  0  0  0  0  0  0  0  0  0
  -10.5519   -2.4817    1.4784 O   0  0  0  0  0  0  0  0  0  0  0  0
   -8.3061   -0.9318   -1.0433 C   0  0  0  0  0  0  0  0  0  0  0  0
   -7.3571    0.0494   -1.2099 C   0  0  0  0  0  0  0  0  0  0  0  0
   -2.6317    2.2025    0.0487 S   0  0  0  0  0  0  0  0  0  0  0  0
    2.4070    1.1177    0.3892 H   0  0  0  0  0  0  0  0  0  0  0  0
    2.6543   -0.4356   -2.0173 H   0  0  0  0  0  0  0  0  0  0  0  0
    2.3760    1.3239   -2.4933 H   0  0  0  0  0  0  0  0  0  0  0  0
    6.5149   -2.0831   -0.1163 H   0  0  0  0  0  0  0  0  0  0  0  0
    8.5013   -3.2593    0.6607 H   0  0  0  0  0  0  0  0  0  0  0  0
   10.6432   -2.0016    0.9458 H   0  0  0  0  0  0  0  0  0  0  0  0
   10.6973    0.4001    0.4344 H   0  0  0  0  0  0  0  0  0  0  0  0
    8.6147    1.5534   -0.3628 H   0  0  0  0  0  0  0  0  0  0  0  0
    6.9330    2.5464   -1.0200 H   0  0  0  0  0  0  0  0  0  0  0  0
    4.4430    2.9629   -1.7625 H   0  0  0  0  0  0  0  0  0  0  0  0
    0.2290    1.1453    1.5364 H   0  0  0  0  0  0  0  0  0  0  0  0
   -4.4996   -0.8230    0.5471 H   0  0  0  0  0  0  0  0  0  0  0  0
   -7.3841    1.1777    1.9793 H   0  0  0  0  0  0  0  0  0  0  0  0
   -9.0707   -0.5937    2.2001 H   0  0  0  0  0  0  0  0  0  0  0  0
  -11.5370   -2.7401    1.5138 H   0  0  0  0  0  0  0  0  0  0  0  0
   -8.5751   -1.5371   -1.8969 H   0  0  0  0  0  0  0  0  0  0  0  0
   -6.9172    0.1734   -2.1985 H   0  0  0  0  0  0  0  0  0  0  0  0
  1  2  2  0
  2  3  1  0
  3  4  1  0
  4  5  1  0
  5  6  2  0
  6  7  1  0
  7  8  1  0
  8  9  2  0
  9 10  1  0
 10 11  2  0
 11 12  1  0
 12 13  2  0
  7 14  2  0
 14 15  1  0
  2 16  1  0
 16 17  1  0
 17 18  2  0
 18 19  1  0
 19 20  2  0
 20 21  1  0
 21 22  1  0
 22 23  2  0
 23 24  1  0
 24 25  2  0
 25 26  1  0
 26 27  2  0
 26 28  1  0
 25 29  1  0
 29 30  2  0
 20 31  1  0
 15  5  1  0
 31 17  1  0
 13  8  1  0
 30 22  1  0
  3 32  1  0
  4 33  1  0
  4 34  1  0
  9 35  1  0
 10 36  1  0
 11 37  1  0
 12 38  1  0
 13 39  1  0
 14 40  1  0
 15 41  1  0
 16 42  1  0
 19 43  1  0
 23 44  1  0
 24 45  1  0
 28 46  1  0
 29 47  1  0
 30 48  1  0
M  END
$$$$
