@<TRIPOS>MOLECULE
*****
 48 51 0 0 0
SMALL
GASTEIGER

@<TRIPOS>ATOM
      1 O          -0.0266    0.3358   -1.5811 O.2     1  UNL1       -0.2524
      2 C           0.5359    0.6699   -0.5119 C.2     1  UNL1        0.3057
      3 N           1.9600    0.8371   -0.5208 N.am    1  UNL1       -0.2920
      4 C           2.7590    0.6388   -1.6945 C.3     1  UNL1        0.0711
      5 C           4.1782    0.8869   -1.3775 C.ar    1  UNL1        0.1251
      6 N           5.0455   -0.0418   -0.9474 N.ar    1  UNL1       -0.2309
      7 C           6.2416    0.5051   -0.7542 C.ar    1  UNL1        0.0889
      8 C           7.4560   -0.1937   -0.2836 C.ar    1  UNL1        0.0018
      9 C           7.4428   -1.5355    0.0066 C.ar    1  UNL1       -0.0525
     10 C           8.5723   -2.2033    0.4482 C.ar    1  UNL1       -0.0611
     11 C           9.7582   -1.4849    0.6012 C.ar    1  UNL1       -0.0617
     12 C           9.7645   -0.1336    0.3071 C.ar    1  UNL1       -0.0611
     13 C           8.6199    0.4996   -0.1308 C.ar    1  UNL1       -0.0525
     14 C           6.1313    1.8287   -1.0727 C.ar    1  UNL1        0.0293
     15 N           4.8462    2.0559   -1.4586 N.ar    1  UNL1       -0.3464
     16 N          -0.2150    0.8692    0.6430 N.am    1  UNL1       -0.2485
     17 C          -1.6596    0.6675    0.5236 C.ar    1  UNL1        0.1666
     18 N          -2.5114   -0.1118    0.6091 N.ar    1  UNL1       -0.2318
     19 C          -3.8068    0.0425    0.4229 C.ar    1  UNL1        0.0507
     20 C          -4.1867    1.3087    0.0799 C.ar    1  UNL1        0.0710
     21 S          -5.8060    2.0860   -0.2908 S.3     1  UNL1       -0.0806
     22 C          -7.0168    0.8150   -0.1306 C.ar    1  UNL1        0.0133
     23 C          -7.6164    0.5977    1.0841 C.ar    1  UNL1       -0.0472
     24 C          -8.5787   -0.3934    1.2641 C.ar    1  UNL1       -0.0467
     25 C          -8.9225   -1.1663    0.1746 C.ar    1  UNL1        0.0589
     26 C          -9.9263   -2.2313    0.2765 C.2     1  UNL1        0.3368
     27 O         -10.2216   -2.9144   -0.7118 O.2     1  UNL1       -0.2451
     28 O         -10.5519   -2.4817    1.4784 O.3     1  UNL1       -0.4771
     29 C          -8.3061   -0.9318   -1.0433 C.ar    1  UNL1       -0.0467
     30 C          -7.3571    0.0494   -1.2099 C.ar    1  UNL1       -0.0472
     31 S          -2.6317    2.2025    0.0487 S.2     1  UNL1       -0.0454
     32 H           2.4070    1.1177    0.3892 H       1  UNL1        0.1507
     33 H           2.6543   -0.4356   -2.0173 H       1  UNL1        0.0543
     34 H           2.3760    1.3239   -2.4933 H       1  UNL1        0.0543
     35 H           6.5149   -2.0831   -0.1163 H       1  UNL1        0.0624
     36 H           8.5013   -3.2593    0.6607 H       1  UNL1        0.0618
     37 H          10.6432   -2.0016    0.9458 H       1  UNL1        0.0618
     38 H          10.6973    0.4001    0.4344 H       1  UNL1        0.0618
     39 H           8.6147    1.5534   -0.3628 H       1  UNL1        0.0624
     40 H           6.9330    2.5464   -1.0200 H       1  UNL1        0.0829
     41 H           4.4430    2.9629   -1.7625 H       1  UNL1        0.1666
     42 H           0.2290    1.1453    1.5364 H       1  UNL1        0.1583
     43 H          -4.4996   -0.8230    0.5471 H       1  UNL1        0.0847
     44 H          -7.3841    1.1777    1.9793 H       1  UNL1        0.0629
     45 H          -9.0707   -0.5937    2.2001 H       1  UNL1        0.0626
     46 H         -11.5370   -2.7401    1.5138 H       1  UNL1        0.2954
     47 H          -8.5751   -1.5371   -1.8969 H       1  UNL1        0.0626
     48 H          -6.9172    0.1734   -2.1985 H       1  UNL1        0.0629
@<TRIPOS>BOND
     1     1     2    2
     2     2     3   am
     3     3     4    1
     4     4     5    1
     5     5     6   ar
     6     6     7   ar
     7     7     8    1
     8     8     9   ar
     9     9    10   ar
    10    10    11   ar
    11    11    12   ar
    12    12    13   ar
    13     7    14   ar
    14    14    15   ar
    15     2    16   am
    16    16    17    1
    17    17    18   ar
    18    18    19   ar
    19    19    20   ar
    20    20    21    1
    21    21    22    1
    22    22    23   ar
    23    23    24   ar
    24    24    25   ar
    25    25    26    1
    26    26    27    2
    27    26    28    1
    28    25    29   ar
    29    29    30   ar
    30    20    31   ar
    31    15     5   ar
    32    31    17   ar
    33    13     8   ar
    34    30    22   ar
    35     3    32    1
    36     4    33    1
    37     4    34    1
    38     9    35    1
    39    10    36    1
    40    11    37    1
    41    12    38    1
    42    13    39    1
    43    14    40    1
    44    15    41    1
    45    16    42    1
    46    19    43    1
    47    23    44    1
    48    24    45    1
    49    28    46    1
    50    29    47    1
    51    30    48    1
