@<TRIPOS>MOLECULE
*****
 50 53 0 0 0
SMALL
GASTEIGER

@<TRIPOS>ATOM
      1 C          -1.7482    0.8361   -3.9775 C.3     1  UNL1        0.0364
      2 O          -2.8213    1.1199   -3.1794 O.3     1  UNL1       -0.3829
      3 C          -2.6201    0.7685   -1.8156 C.3     1  UNL1        0.0481
      4 C          -2.3615   -0.6668   -1.6397 C.3     1  UNL1       -0.0159
      5 C          -2.1940   -1.2506   -0.3057 C.3     1  UNL1        0.0668
      6 C          -3.3933   -1.0638    0.5792 C.2     1  UNL1        0.3085
      7 O          -3.2273   -0.4374    1.6449 O.2     1  UNL1       -0.2507
      8 O          -4.6536   -1.5358    0.2923 O.3     1  UNL1       -0.4804
      9 C          -0.9218   -1.0605    0.4377 C.3     1  UNL1        0.0161
     10 C          -1.0965   -1.8358    1.7375 C.ar    1  UNL1       -0.0385
     11 C          -1.5120   -3.1538    1.8412 C.ar    1  UNL1       -0.0580
     12 C          -1.6310   -3.7550    3.0956 C.ar    1  UNL1       -0.0615
     13 C          -1.3163   -2.9634    4.1722 C.ar    1  UNL1       -0.0615
     14 C          -0.9043   -1.6557    4.0700 C.ar    1  UNL1       -0.0582
     15 C          -0.7903   -1.0718    2.8104 C.ar    1  UNL1       -0.0421
     16 C          -0.3825    0.2704    2.4146 C.3     1  UNL1       -0.0083
     17 C          -0.5407    0.2876    0.8835 C.3     1  UNL1        0.0350
     18 N           0.8144    0.5550    0.3731 N.am    1  UNL1       -0.3064
     19 C           1.1780    1.8140   -0.2141 C.2     1  UNL1        0.2606
     20 O           0.2765    2.6888   -0.2741 O.2     1  UNL1       -0.2686
     21 C           2.5273    2.0524   -0.7116 C.ar    1  UNL1        0.1033
     22 C           2.9178    3.2289   -1.3206 C.ar    1  UNL1       -0.0175
     23 C           4.2583    3.0395   -1.6230 C.ar    1  UNL1        0.0405
     24 S           5.7556    3.7414   -2.3440 S.2     1  UNL1       -0.0737
     25 C           6.8465    2.2811   -2.0368 C.ar    1  UNL1        0.0989
     26 CL          8.4966    2.1947   -2.4666 Cl      1  UNL1       -0.0742
     27 C           5.9599    1.4179   -1.4210 C.ar    1  UNL1        0.0902
     28 CL          6.6813   -0.1872   -0.9416 Cl      1  UNL1       -0.0793
     29 C           4.6937    1.7815   -1.2157 C.ar    1  UNL1        0.0742
     30 N           3.5593    1.1989   -0.6458 N.ar    1  UNL1       -0.3490
     31 H          -1.9931    1.1615   -5.0346 H       1  UNL1        0.0523
     32 H          -1.6352   -0.2723   -4.0891 H       1  UNL1        0.0523
     33 H          -0.8189    1.3452   -3.7114 H       1  UNL1        0.0523
     34 H          -3.4300    1.2165   -1.2574 H       1  UNL1        0.0560
     35 H          -1.6703    1.3474   -1.5837 H       1  UNL1        0.0560
     36 H          -3.1722   -1.2147   -2.2218 H       1  UNL1        0.0295
     37 H          -1.4314   -0.9616   -2.2334 H       1  UNL1        0.0295
     38 H          -2.2154   -2.3912   -0.4878 H       1  UNL1        0.0421
     39 H          -5.5151   -1.1226    0.6335 H       1  UNL1        0.2951
     40 H          -0.1192   -1.5743   -0.1722 H       1  UNL1        0.0375
     41 H          -1.7509   -3.7444    0.9678 H       1  UNL1        0.0620
     42 H          -1.9546   -4.7759    3.1380 H       1  UNL1        0.0618
     43 H          -1.4056   -3.4167    5.1578 H       1  UNL1        0.0618
     44 H          -0.6754   -1.1032    4.9707 H       1  UNL1        0.0620
     45 H          -0.9494    1.1033    2.8705 H       1  UNL1        0.0331
     46 H           0.6726    0.4082    2.7157 H       1  UNL1        0.0331
     47 H          -1.1711    1.1342    0.6263 H       1  UNL1        0.0508
     48 H           1.5747   -0.1615    0.4154 H       1  UNL1        0.1494
     49 H           2.3456    4.1272   -1.5370 H       1  UNL1        0.0651
     50 H           3.4643    0.2559   -0.2201 H       1  UNL1        0.1661
@<TRIPOS>BOND
     1     1     2    1
     2     2     3    1
     3     3     4    1
     4     4     5    1
     5     5     6    1
     6     6     7    2
     7     6     8    1
     8     5     9    1
     9     9    10    1
    10    10    11   ar
    11    11    12   ar
    12    12    13   ar
    13    13    14   ar
    14    14    15   ar
    15    15    16    1
    16    16    17    1
    17    17    18    1
    18    18    19   am
    19    19    20    2
    20    19    21    1
    21    21    22   ar
    22    22    23   ar
    23    23    24   ar
    24    24    25   ar
    25    25    26    1
    26    25    27   ar
    27    27    28    1
    28    27    29   ar
    29    29    30   ar
    30    17     9    1
    31    30    21   ar
    32    15    10   ar
    33    29    23   ar
    34     1    31    1
    35     1    32    1
    36     1    33    1
    37     3    34    1
    38     3    35    1
    39     4    36    1
    40     4    37    1
    41     5    38    1
    42     8    39    1
    43     9    40    1
    44    11    41    1
    45    12    42    1
    46    13    43    1
    47    14    44    1
    48    16    45    1
    49    16    46    1
    50    17    47    1
    51    18    48    1
    52    22    49    1
    53    30    50    1
