
     RDKit          3D

 50 53  0  0  0  0  0  0  0  0999 V2000
   -1.7482    0.8361   -3.9775 C   0  0  0  0  0  0  0  0  0  0  0  0
   -2.8213    1.1199   -3.1794 O   0  0  0  0  0  0  0  0  0  0  0  0
   -2.6201    0.7685   -1.8156 C   0  0  0  0  0  0  0  0  0  0  0  0
   -2.3615   -0.6668   -1.6397 C   0  0  0  0  0  0  0  0  0  0  0  0
   -2.1940   -1.2506   -0.3057 C   0  0  0  0  0  0  0  0  0  0  0  0
   -3.3933   -1.0638    0.5792 C   0  0  0  0  0  0  0  0  0  0  0  0
   -3.2273   -0.4374    1.6449 O   0  0  0  0  0  0  0  0  0  0  0  0
   -4.6536   -1.5358    0.2923 O   0  0  0  0  0  0  0  0  0  0  0  0
   -0.9218   -1.0605    0.4377 C   0  0  2  0  0  0  0  0  0  0  0  0
   -1.0965   -1.8358    1.7375 C   0  0  0  0  0  0  0  0  0  0  0  0
   -1.5120   -3.1538    1.8412 C   0  0  0  0  0  0  0  0  0  0  0  0
   -1.6310   -3.7550    3.0956 C   0  0  0  0  0  0  0  0  0  0  0  0
   -1.3163   -2.9634    4.1722 C   0  0  0  0  0  0  0  0  0  0  0  0
   -0.9043   -1.6557    4.0700 C   0  0  0  0  0  0  0  0  0  0  0  0
   -0.7903   -1.0718    2.8104 C   0  0  0  0  0  0  0  0  0  0  0  0
   -0.3825    0.2704    2.4146 C   0  0  0  0  0  0  0  0  0  0  0  0
   -0.5407    0.2876    0.8835 C   0  0  1  0  0  0  0  0  0  0  0  0
    0.8144    0.5550    0.3731 N   0  0  0  0  0  0  0  0  0  0  0  0
    1.1780    1.8140   -0.2141 C   0  0  0  0  0  0  0  0  0  0  0  0
    0.2765    2.6888   -0.2741 O   0  0  0  0  0  0  0  0  0  0  0  0
    2.5273    2.0524   -0.7116 C   0  0  0  0  0  0  0  0  0  0  0  0
    2.9178    3.2289   -1.3206 C   0  0  0  0  0  0  0  0  0  0  0  0
    4.2583    3.0395   -1.6230 C   0  0  0  0  0  0  0  0  0  0  0  0
    5.7556    3.7414   -2.3440 S   0  0  0  0  0  0  0  0  0  0  0  0
    6.8465    2.2811   -2.0368 C   0  0  0  0  0  0  0  0  0  0  0  0
    8.4966    2.1947   -2.4666 Cl  0  0  0  0  0  0  0  0  0  0  0  0
    5.9599    1.4179   -1.4210 C   0  0  0  0  0  0  0  0  0  0  0  0
    6.6813   -0.1872   -0.9416 Cl  0  0  0  0  0  0  0  0  0  0  0  0
    4.6937    1.7815   -1.2157 C   0  0  0  0  0  0  0  0  0  0  0  0
    3.5593    1.1989   -0.6458 N   0  0  0  0  0  0  0  0  0  0  0  0
   -1.9931    1.1615   -5.0346 H   0  0  0  0  0  0  0  0  0  0  0  0
   -1.6352   -0.2723   -4.0891 H   0  0  0  0  0  0  0  0  0  0  0  0
   -0.8189    1.3452   -3.7114 H   0  0  0  0  0  0  0  0  0  0  0  0
   -3.4300    1.2165   -1.2574 H   0  0  0  0  0  0  0  0  0  0  0  0
   -1.6703    1.3474   -1.5837 H   0  0  0  0  0  0  0  0  0  0  0  0
   -3.1722   -1.2147   -2.2218 H   0  0  0  0  0  0  0  0  0  0  0  0
   -1.4314   -0.9616   -2.2334 H   0  0  0  0  0  0  0  0  0  0  0  0
   -2.2154   -2.3912   -0.4878 H   0  0  0  0  0  0  0  0  0  0  0  0
   -5.5151   -1.1226    0.6335 H   0  0  0  0  0  0  0  0  0  0  0  0
   -0.1192   -1.5743   -0.1722 H   0  0  0  0  0  0  0  0  0  0  0  0
   -1.7509   -3.7444    0.9678 H   0  0  0  0  0  0  0  0  0  0  0  0
   -1.9546   -4.7759    3.1380 H   0  0  0  0  0  0  0  0  0  0  0  0
   -1.4056   -3.4167    5.1578 H   0  0  0  0  0  0  0  0  0  0  0  0
   -0.6754   -1.1032    4.9707 H   0  0  0  0  0  0  0  0  0  0  0  0
   -0.9494    1.1033    2.8705 H   0  0  0  0  0  0  0  0  0  0  0  0
    0.6726    0.4082    2.7157 H   0  0  0  0  0  0  0  0  0  0  0  0
   -1.1711    1.1342    0.6263 H   0  0  0  0  0  0  0  0  0  0  0  0
    1.5747   -0.1615    0.4154 H   0  0  0  0  0  0  0  0  0  0  0  0
    2.3456    4.1272   -1.5370 H   0  0  0  0  0  0  0  0  0  0  0  0
    3.4643    0.2559   -0.2201 H   0  0  0  0  0  0  0  0  0  0  0  0
  1  2  1  0
  2  3  1  0
  3  4  1  0
  4  5  1  0
  5  6  1  0
  6  7  2  0
  6  8  1  0
  5  9  1  0
  9 10  1  0
 10 11  2  0
 11 12  1  0
 12 13  2  0
 13 14  1  0
 14 15  2  0
 15 16  1  0
 16 17  1  0
 17 18  1  0
 18 19  1  0
 19 20  2  0
 19 21  1  0
 21 22  2  0
 22 23  1  0
 23 24  1  0
 24 25  1  0
 25 26  1  0
 25 27  2  0
 27 28  1  0
 27 29  1  0
 29 30  1  0
 17  9  1  0
 30 21  1  0
 15 10  1  0
 29 23  2  0
  1 31  1  0
  1 32  1  0
  1 33  1  0
  3 34  1  0
  3 35  1  0
  4 36  1  0
  4 37  1  0
  5 38  1  0
  8 39  1  0
  9 40  1  6
 11 41  1  0
 12 42  1  0
 13 43  1  0
 14 44  1  0
 16 45  1  0
 16 46  1  0
 17 47  1  1
 18 48  1  0
 22 49  1  0
 30 50  1  0
M  END
$$$$
