
     RDKit          3D

 52 55  0  0  0  0  0  0  0  0999 V2000
   -1.9159    0.4939   -2.1279 C   0  0  0  0  0  0  0  0  0  0  0  0
   -1.4101   -0.0499   -0.8132 C   0  0  0  0  0  0  0  0  0  0  0  0
   -0.2855    0.7971   -0.3904 C   0  0  0  0  0  0  0  0  0  0  0  0
    0.9688    0.2646   -0.3002 C   0  0  0  0  0  0  0  0  0  0  0  0
    2.0857    1.0242    0.0987 C   0  0  0  0  0  0  0  0  0  0  0  0
    3.3550    0.4218    0.1736 N   0  0  0  0  0  0  0  0  0  0  0  0
    4.5815    0.9708    0.5381 C   0  0  0  0  0  0  0  0  0  0  0  0
    4.6440    2.1693    0.8590 O   0  0  0  0  0  0  0  0  0  0  0  0
    5.8302    0.1873    0.5626 C   0  0  0  0  0  0  0  0  0  0  0  0
    6.9909    0.8140    0.9354 C   0  0  0  0  0  0  0  0  0  0  0  0
    8.2113    0.1570    0.9875 C   0  0  0  0  0  0  0  0  0  0  0  0
    8.2249   -1.1779    0.6452 C   0  0  0  0  0  0  0  0  0  0  0  0
    9.7659   -2.0287    0.7054 Cl  0  0  0  0  0  0  0  0  0  0  0  0
    7.0621   -1.7909    0.2755 C   0  0  0  0  0  0  0  0  0  0  0  0
    5.8868   -1.1143    0.2367 N   0  0  0  0  0  0  0  0  0  0  0  0
    1.9008    2.3394    0.4046 C   0  0  0  0  0  0  0  0  0  0  0  0
    0.6192    2.8697    0.3088 C   0  0  0  0  0  0  0  0  0  0  0  0
   -0.4552    2.1199   -0.0798 C   0  0  0  0  0  0  0  0  0  0  0  0
   -1.6950    2.7221   -0.1495 F   0  0  0  0  0  0  0  0  0  0  0  0
   -2.4784   -0.1326    0.2398 C   0  0  0  0  0  0  0  0  0  0  0  0
   -3.8123   -0.5708   -0.2499 C   0  0  0  0  0  0  0  0  0  0  0  0
   -4.6342    0.4821   -0.8997 C   0  0  0  0  0  0  0  0  0  0  0  0
   -6.1036    0.2834   -0.5028 C   0  0  0  0  0  0  0  0  0  0  0  0
   -6.3277    0.5600    0.8214 O   0  0  0  0  0  0  0  0  0  0  0  0
   -5.2423    0.1468    1.5959 C   0  0  0  0  0  0  0  0  0  0  0  0
   -4.5982   -1.0724    0.9687 C   0  0  0  0  0  0  0  0  0  0  0  0
   -3.5590   -2.0312   -1.3097 S   0  0  0  0  0  0  0  0  0  0  0  0
   -1.7991   -2.3474   -1.3087 C   0  0  0  0  0  0  0  0  0  0  0  0
   -1.3655   -3.6753   -1.5699 N   0  0  0  0  0  0  0  0  0  0  0  0
   -0.9462   -1.4076   -1.0795 N   0  0  0  0  0  0  0  0  0  0  0  0
   -2.4525   -0.2319   -2.7371 H   0  0  0  0  0  0  0  0  0  0  0  0
   -2.4363    1.4485   -1.9574 H   0  0  0  0  0  0  0  0  0  0  0  0
   -0.9898    0.7661   -2.7177 H   0  0  0  0  0  0  0  0  0  0  0  0
    1.1772   -0.7702   -0.5295 H   0  0  0  0  0  0  0  0  0  0  0  0
    3.4067   -0.6220   -0.0865 H   0  0  0  0  0  0  0  0  0  0  0  0
    6.9802    1.8717    1.2067 H   0  0  0  0  0  0  0  0  0  0  0  0
    9.1117    0.6728    1.2843 H   0  0  0  0  0  0  0  0  0  0  0  0
    7.0972   -2.8369    0.0117 H   0  0  0  0  0  0  0  0  0  0  0  0
    2.7147    3.0052    0.7242 H   0  0  0  0  0  0  0  0  0  0  0  0
    0.4808    3.9035    0.5505 H   0  0  0  0  0  0  0  0  0  0  0  0
   -2.1291   -0.8991    0.9851 H   0  0  0  0  0  0  0  0  0  0  0  0
   -2.5968    0.8032    0.8191 H   0  0  0  0  0  0  0  0  0  0  0  0
   -4.6266    0.4696   -2.0034 H   0  0  0  0  0  0  0  0  0  0  0  0
   -4.3399    1.4867   -0.4971 H   0  0  0  0  0  0  0  0  0  0  0  0
   -6.3989   -0.7453   -0.8102 H   0  0  0  0  0  0  0  0  0  0  0  0
   -6.7018    0.9851   -1.1210 H   0  0  0  0  0  0  0  0  0  0  0  0
   -4.4892    0.9550    1.6614 H   0  0  0  0  0  0  0  0  0  0  0  0
   -5.6130   -0.0328    2.6140 H   0  0  0  0  0  0  0  0  0  0  0  0
   -3.9188   -1.5035    1.7284 H   0  0  0  0  0  0  0  0  0  0  0  0
   -5.3417   -1.7958    0.5829 H   0  0  0  0  0  0  0  0  0  0  0  0
   -1.5773   -4.4186   -0.8452 H   0  0  0  0  0  0  0  0  0  0  0  0
   -0.8557   -3.9356   -2.4353 H   0  0  0  0  0  0  0  0  0  0  0  0
  1  2  1  0
  2  3  1  0
  3  4  2  0
  4  5  1  0
  5  6  1  0
  6  7  1  0
  7  8  2  0
  7  9  1  0
  9 10  2  0
 10 11  1  0
 11 12  2  0
 12 13  1  0
 12 14  1  0
 14 15  2  0
  5 16  2  0
 16 17  1  0
 17 18  2  0
 18 19  1  0
  2 20  1  0
 20 21  1  0
 21 22  1  0
 22 23  1  0
 23 24  1  0
 24 25  1  0
 25 26  1  0
 21 27  1  0
 27 28  1  0
 28 29  1  0
 28 30  2  0
 30  2  1  0
 18  3  1  0
 26 21  1  0
 15  9  1  0
  1 31  1  0
  1 32  1  0
  1 33  1  0
  4 34  1  0
  6 35  1  0
 10 36  1  0
 11 37  1  0
 14 38  1  0
 16 39  1  0
 17 40  1  0
 20 41  1  0
 20 42  1  0
 22 43  1  0
 22 44  1  0
 23 45  1  0
 23 46  1  0
 25 47  1  0
 25 48  1  0
 26 49  1  0
 26 50  1  0
 29 51  1  0
 29 52  1  0
M  END
$$$$
