@<TRIPOS>MOLECULE
*****
 52 55 0 0 0
SMALL
GASTEIGER

@<TRIPOS>ATOM
      1 C          -1.9159    0.4939   -2.1279 C.3     1  UNL1       -0.0354
      2 C          -1.4101   -0.0499   -0.8132 C.3     1  UNL1        0.0903
      3 C          -0.2855    0.7971   -0.3904 C.ar    1  UNL1        0.0167
      4 C           0.9688    0.2646   -0.3002 C.ar    1  UNL1       -0.0323
      5 C           2.0857    1.0242    0.0987 C.ar    1  UNL1        0.0342
      6 N           3.3550    0.4218    0.1736 N.am    1  UNL1       -0.2802
      7 C           4.5815    0.9708    0.5381 C.2     1  UNL1        0.2666
      8 O           4.6440    2.1693    0.8590 O.2     1  UNL1       -0.2682
      9 C           5.8302    0.1873    0.5626 C.ar    1  UNL1        0.1257
     10 C           6.9909    0.8140    0.9354 C.ar    1  UNL1       -0.0298
     11 C           8.2113    0.1570    0.9875 C.ar    1  UNL1       -0.0397
     12 C           8.2249   -1.1779    0.6452 C.ar    1  UNL1        0.0591
     13 CL          9.7659   -2.0287    0.7054 Cl      1  UNL1       -0.0820
     14 C           7.0621   -1.7909    0.2755 C.ar    1  UNL1        0.0467
     15 N           5.8868   -1.1143    0.2367 N.ar    1  UNL1       -0.2489
     16 C           1.9008    2.3394    0.4046 C.ar    1  UNL1       -0.0377
     17 C           0.6192    2.8697    0.3088 C.ar    1  UNL1       -0.0243
     18 C          -0.4552    2.1199   -0.0798 C.ar    1  UNL1        0.1290
     19 F          -1.6950    2.7221   -0.1495 F       1  UNL1       -0.2051
     20 C          -2.4784   -0.1326    0.2398 C.3     1  UNL1       -0.0084
     21 C          -3.8123   -0.5708   -0.2499 C.3     1  UNL1        0.0305
     22 C          -4.6342    0.4821   -0.8997 C.3     1  UNL1       -0.0142
     23 C          -6.1036    0.2834   -0.5028 C.3     1  UNL1        0.0489
     24 O          -6.3277    0.5600    0.8214 O.3     1  UNL1       -0.3797
     25 C          -5.2423    0.1468    1.5959 C.3     1  UNL1        0.0489
     26 C          -4.5982   -1.0724    0.9687 C.3     1  UNL1       -0.0142
     27 S          -3.5590   -2.0312   -1.3097 S.3     1  UNL1       -0.0841
     28 C          -1.7991   -2.3474   -1.3087 C.2     1  UNL1        0.1480
     29 N          -1.3655   -3.6753   -1.5699 N.pl3   1  UNL1       -0.3380
     30 N          -0.9462   -1.4076   -1.0795 N.2     1  UNL1       -0.2524
     31 H          -2.4525   -0.2319   -2.7371 H       1  UNL1        0.0256
     32 H          -2.4363    1.4485   -1.9574 H       1  UNL1        0.0256
     33 H          -0.9898    0.7661   -2.7177 H       1  UNL1        0.0256
     34 H           1.1772   -0.7702   -0.5295 H       1  UNL1        0.0640
     35 H           3.4067   -0.6220   -0.0865 H       1  UNL1        0.1552
     36 H           6.9802    1.8717    1.2067 H       1  UNL1        0.0641
     37 H           9.1117    0.6728    1.2843 H       1  UNL1        0.0633
     38 H           7.0972   -2.8369    0.0117 H       1  UNL1        0.0844
     39 H           2.7147    3.0052    0.7242 H       1  UNL1        0.0637
     40 H           0.4808    3.9035    0.5505 H       1  UNL1        0.0647
     41 H          -2.1291   -0.8991    0.9851 H       1  UNL1        0.0305
     42 H          -2.5968    0.8032    0.8191 H       1  UNL1        0.0305
     43 H          -4.6266    0.4696   -2.0034 H       1  UNL1        0.0301
     44 H          -4.3399    1.4867   -0.4971 H       1  UNL1        0.0301
     45 H          -6.3989   -0.7453   -0.8102 H       1  UNL1        0.0560
     46 H          -6.7018    0.9851   -1.1210 H       1  UNL1        0.0560
     47 H          -4.4892    0.9550    1.6614 H       1  UNL1        0.0560
     48 H          -5.6130   -0.0328    2.6140 H       1  UNL1        0.0560
     49 H          -3.9188   -1.5035    1.7284 H       1  UNL1        0.0301
     50 H          -5.3417   -1.7958    0.5829 H       1  UNL1        0.0301
     51 H          -1.5773   -4.4186   -0.8452 H       1  UNL1        0.1442
     52 H          -0.8557   -3.9356   -2.4353 H       1  UNL1        0.1442
@<TRIPOS>BOND
     1     1     2    1
     2     2     3    1
     3     3     4   ar
     4     4     5   ar
     5     5     6    1
     6     6     7   am
     7     7     8    2
     8     7     9    1
     9     9    10   ar
    10    10    11   ar
    11    11    12   ar
    12    12    13    1
    13    12    14   ar
    14    14    15   ar
    15     5    16   ar
    16    16    17   ar
    17    17    18   ar
    18    18    19    1
    19     2    20    1
    20    20    21    1
    21    21    22    1
    22    22    23    1
    23    23    24    1
    24    24    25    1
    25    25    26    1
    26    21    27    1
    27    27    28    1
    28    28    29    1
    29    28    30    2
    30    30     2    1
    31    18     3   ar
    32    26    21    1
    33    15     9   ar
    34     1    31    1
    35     1    32    1
    36     1    33    1
    37     4    34    1
    38     6    35    1
    39    10    36    1
    40    11    37    1
    41    14    38    1
    42    16    39    1
    43    17    40    1
    44    20    41    1
    45    20    42    1
    46    22    43    1
    47    22    44    1
    48    23    45    1
    49    23    46    1
    50    25    47    1
    51    25    48    1
    52    26    49    1
    53    26    50    1
    54    29    51    1
    55    29    52    1
