
     RDKit          3D

 53 52  0  0  0  0  0  0  0  0999 V2000
   -6.8885    0.1396    2.0267 C   0  0  0  0  0  0  0  0  0  0  0  0
   -6.1315   -1.0349    1.4597 C   0  0  0  0  0  0  0  0  0  0  0  0
   -5.8807   -0.7940   -0.0131 C   0  0  0  0  0  0  0  0  0  0  0  0
   -5.0749    0.4492   -0.2569 C   0  0  0  0  0  0  0  0  0  0  0  0
   -3.7145    0.4240    0.3935 C   0  0  0  0  0  0  0  0  0  0  0  0
   -2.9016   -0.7357   -0.1331 C   0  0  0  0  0  0  0  0  0  0  0  0
   -1.5303   -0.7839    0.5049 C   0  0  0  0  0  0  0  0  0  0  0  0
   -0.7110    0.4495    0.2610 C   0  0  0  0  0  0  0  0  0  0  0  0
   -0.5307    0.6064   -1.2310 C   0  0  0  0  0  0  0  0  0  0  0  0
    0.2885    1.8303   -1.5724 C   0  0  0  0  0  0  0  0  0  0  0  0
    1.6783    1.7955   -0.9752 C   0  0  0  0  0  0  0  0  0  0  0  0
    2.4624    0.5981   -1.4687 C   0  0  0  0  0  0  0  0  0  0  0  0
    3.8346    0.6896   -0.7900 C   0  0  0  0  0  0  0  0  0  0  0  0
    4.7244   -0.4368   -1.1861 C   0  0  0  0  0  0  0  0  0  0  0  0
    6.0939   -0.4076   -0.5524 C   0  0  0  0  0  0  0  0  0  0  0  0
    6.0974   -0.4602    0.9342 C   0  0  0  0  0  0  0  0  0  0  0  0
    7.7974   -0.4164    1.5085 S   0  0  0  0  0  0  0  0  0  0  0  0
    8.5355    0.9922    0.9950 F   0  0  0  0  0  0  0  0  0  0  0  0
    8.5709   -1.5817    0.9789 O   0  0  0  0  0  0  0  0  0  0  0  0
    7.8519   -0.4458    3.0058 O   0  0  0  0  0  0  0  0  0  0  0  0
   -7.8751    0.1918    1.5005 H   0  0  0  0  0  0  0  0  0  0  0  0
   -7.1151    0.0080    3.0952 H   0  0  0  0  0  0  0  0  0  0  0  0
   -6.2898    1.0491    1.9350 H   0  0  0  0  0  0  0  0  0  0  0  0
   -6.7294   -1.9415    1.5798 H   0  0  0  0  0  0  0  0  0  0  0  0
   -5.2105   -1.1403    2.0372 H   0  0  0  0  0  0  0  0  0  0  0  0
   -6.8638   -0.6388   -0.5069 H   0  0  0  0  0  0  0  0  0  0  0  0
   -5.3571   -1.6531   -0.4628 H   0  0  0  0  0  0  0  0  0  0  0  0
   -4.9448    0.5283   -1.3563 H   0  0  0  0  0  0  0  0  0  0  0  0
   -5.6114    1.3705    0.0383 H   0  0  0  0  0  0  0  0  0  0  0  0
   -3.7991    0.4100    1.4969 H   0  0  0  0  0  0  0  0  0  0  0  0
   -3.1919    1.3538    0.1100 H   0  0  0  0  0  0  0  0  0  0  0  0
   -3.3981   -1.7154    0.0930 H   0  0  0  0  0  0  0  0  0  0  0  0
   -2.8850   -0.6647   -1.2312 H   0  0  0  0  0  0  0  0  0  0  0  0
   -1.7186   -0.8290    1.6092 H   0  0  0  0  0  0  0  0  0  0  0  0
   -0.9835   -1.6946    0.2546 H   0  0  0  0  0  0  0  0  0  0  0  0
   -1.2346    1.3196    0.6705 H   0  0  0  0  0  0  0  0  0  0  0  0
    0.2565    0.3001    0.7850 H   0  0  0  0  0  0  0  0  0  0  0  0
   -0.1675   -0.3213   -1.6852 H   0  0  0  0  0  0  0  0  0  0  0  0
   -1.5467    0.8119   -1.6542 H   0  0  0  0  0  0  0  0  0  0  0  0
    0.3717    1.8770   -2.6683 H   0  0  0  0  0  0  0  0  0  0  0  0
   -0.2813    2.7207   -1.2417 H   0  0  0  0  0  0  0  0  0  0  0  0
    2.1543    2.7507   -1.2763 H   0  0  0  0  0  0  0  0  0  0  0  0
    1.6790    1.7680    0.1134 H   0  0  0  0  0  0  0  0  0  0  0  0
    2.5682    0.6786   -2.5700 H   0  0  0  0  0  0  0  0  0  0  0  0
    1.9634   -0.3379   -1.1895 H   0  0  0  0  0  0  0  0  0  0  0  0
    3.6448    0.7742    0.2801 H   0  0  0  0  0  0  0  0  0  0  0  0
    4.2402    1.6683   -1.1193 H   0  0  0  0  0  0  0  0  0  0  0  0
    4.8996   -0.3664   -2.2851 H   0  0  0  0  0  0  0  0  0  0  0  0
    4.2195   -1.4118   -1.0383 H   0  0  0  0  0  0  0  0  0  0  0  0
    6.6463   -1.2880   -0.9712 H   0  0  0  0  0  0  0  0  0  0  0  0
    6.6731    0.4766   -0.8842 H   0  0  0  0  0  0  0  0  0  0  0  0
    5.6189    0.4235    1.3669 H   0  0  0  0  0  0  0  0  0  0  0  0
    5.6964   -1.4256    1.2854 H   0  0  0  0  0  0  0  0  0  0  0  0
  1  2  1  0
  2  3  1  0
  3  4  1  0
  4  5  1  0
  5  6  1  0
  6  7  1  0
  7  8  1  0
  8  9  1  0
  9 10  1  0
 10 11  1  0
 11 12  1  0
 12 13  1  0
 13 14  1  0
 14 15  1  0
 15 16  1  0
 16 17  1  0
 17 18  1  0
 17 19  2  0
 17 20  2  0
  1 21  1  0
  1 22  1  0
  1 23  1  0
  2 24  1  0
  2 25  1  0
  3 26  1  0
  3 27  1  0
  4 28  1  0
  4 29  1  0
  5 30  1  0
  5 31  1  0
  6 32  1  0
  6 33  1  0
  7 34  1  0
  7 35  1  0
  8 36  1  0
  8 37  1  0
  9 38  1  0
  9 39  1  0
 10 40  1  0
 10 41  1  0
 11 42  1  0
 11 43  1  0
 12 44  1  0
 12 45  1  0
 13 46  1  0
 13 47  1  0
 14 48  1  0
 14 49  1  0
 15 50  1  0
 15 51  1  0
 16 52  1  0
 16 53  1  0
M  END
$$$$
