@<TRIPOS>MOLECULE
*****
 53 52 0 0 0
SMALL
GASTEIGER

@<TRIPOS>ATOM
      1 C          -6.8885    0.1396    2.0267 C.3     1  UNL1       -0.0653
      2 C          -6.1315   -1.0349    1.4597 C.3     1  UNL1       -0.0559
      3 C          -5.8807   -0.7940   -0.0131 C.3     1  UNL1       -0.0533
      4 C          -5.0749    0.4492   -0.2569 C.3     1  UNL1       -0.0531
      5 C          -3.7145    0.4240    0.3935 C.3     1  UNL1       -0.0531
      6 C          -2.9016   -0.7357   -0.1331 C.3     1  UNL1       -0.0531
      7 C          -1.5303   -0.7839    0.5049 C.3     1  UNL1       -0.0531
      8 C          -0.7110    0.4495    0.2610 C.3     1  UNL1       -0.0531
      9 C          -0.5307    0.6064   -1.2310 C.3     1  UNL1       -0.0531
     10 C           0.2885    1.8303   -1.5724 C.3     1  UNL1       -0.0531
     11 C           1.6783    1.7955   -0.9752 C.3     1  UNL1       -0.0531
     12 C           2.4624    0.5981   -1.4687 C.3     1  UNL1       -0.0531
     13 C           3.8346    0.6896   -0.7900 C.3     1  UNL1       -0.0530
     14 C           4.7244   -0.4368   -1.1861 C.3     1  UNL1       -0.0515
     15 C           6.0939   -0.4076   -0.5524 C.3     1  UNL1       -0.0309
     16 C           6.0974   -0.4602    0.9342 C.3     1  UNL1        0.0972
     17 S           7.7974   -0.4164    1.5085 S.O2    1  UNL1        0.1177
     18 F           8.5355    0.9922    0.9950 F       1  UNL1       -0.0613
     19 O           8.5709   -1.5817    0.9789 O.2     1  UNL1       -0.1432
     20 O           7.8519   -0.4458    3.0058 O.2     1  UNL1       -0.1432
     21 H          -7.8751    0.1918    1.5005 H       1  UNL1        0.0230
     22 H          -7.1151    0.0080    3.0952 H       1  UNL1        0.0230
     23 H          -6.2898    1.0491    1.9350 H       1  UNL1        0.0230
     24 H          -6.7294   -1.9415    1.5798 H       1  UNL1        0.0263
     25 H          -5.2105   -1.1403    2.0372 H       1  UNL1        0.0263
     26 H          -6.8638   -0.6388   -0.5069 H       1  UNL1        0.0265
     27 H          -5.3571   -1.6531   -0.4628 H       1  UNL1        0.0265
     28 H          -4.9448    0.5283   -1.3563 H       1  UNL1        0.0265
     29 H          -5.6114    1.3705    0.0383 H       1  UNL1        0.0265
     30 H          -3.7991    0.4100    1.4969 H       1  UNL1        0.0265
     31 H          -3.1919    1.3538    0.1100 H       1  UNL1        0.0265
     32 H          -3.3981   -1.7154    0.0930 H       1  UNL1        0.0265
     33 H          -2.8850   -0.6647   -1.2312 H       1  UNL1        0.0265
     34 H          -1.7186   -0.8290    1.6092 H       1  UNL1        0.0265
     35 H          -0.9835   -1.6946    0.2546 H       1  UNL1        0.0265
     36 H          -1.2346    1.3196    0.6705 H       1  UNL1        0.0265
     37 H           0.2565    0.3001    0.7850 H       1  UNL1        0.0265
     38 H          -0.1675   -0.3213   -1.6852 H       1  UNL1        0.0265
     39 H          -1.5467    0.8119   -1.6542 H       1  UNL1        0.0265
     40 H           0.3717    1.8770   -2.6683 H       1  UNL1        0.0265
     41 H          -0.2813    2.7207   -1.2417 H       1  UNL1        0.0265
     42 H           2.1543    2.7507   -1.2763 H       1  UNL1        0.0265
     43 H           1.6790    1.7680    0.1134 H       1  UNL1        0.0265
     44 H           2.5682    0.6786   -2.5700 H       1  UNL1        0.0265
     45 H           1.9634   -0.3379   -1.1895 H       1  UNL1        0.0265
     46 H           3.6448    0.7742    0.2801 H       1  UNL1        0.0265
     47 H           4.2402    1.6683   -1.1193 H       1  UNL1        0.0265
     48 H           4.8996   -0.3664   -2.2851 H       1  UNL1        0.0266
     49 H           4.2195   -1.4118   -1.0383 H       1  UNL1        0.0266
     50 H           6.6463   -1.2880   -0.9712 H       1  UNL1        0.0282
     51 H           6.6731    0.4766   -0.8842 H       1  UNL1        0.0282
     52 H           5.6189    0.4235    1.3669 H       1  UNL1        0.0528
     53 H           5.6964   -1.4256    1.2854 H       1  UNL1        0.0528
@<TRIPOS>BOND
     1     1     2    1
     2     2     3    1
     3     3     4    1
     4     4     5    1
     5     5     6    1
     6     6     7    1
     7     7     8    1
     8     8     9    1
     9     9    10    1
    10    10    11    1
    11    11    12    1
    12    12    13    1
    13    13    14    1
    14    14    15    1
    15    15    16    1
    16    16    17    1
    17    17    18    1
    18    17    19    2
    19    17    20    2
    20     1    21    1
    21     1    22    1
    22     1    23    1
    23     2    24    1
    24     2    25    1
    25     3    26    1
    26     3    27    1
    27     4    28    1
    28     4    29    1
    29     5    30    1
    30     5    31    1
    31     6    32    1
    32     6    33    1
    33     7    34    1
    34     7    35    1
    35     8    36    1
    36     8    37    1
    37     9    38    1
    38     9    39    1
    39    10    40    1
    40    10    41    1
    41    11    42    1
    42    11    43    1
    43    12    44    1
    44    12    45    1
    45    13    46    1
    46    13    47    1
    47    14    48    1
    48    14    49    1
    49    15    50    1
    50    15    51    1
    51    16    52    1
    52    16    53    1
