
     RDKit          3D

 92 94  0  0  0  0  0  0  0  0999 V2000
    3.7260   -1.8286    0.8408 C   0  0  1  0  0  0  0  0  0  0  0  0
    3.1938   -1.6915    2.1130 O   0  0  0  0  0  0  0  0  0  0  0  0
    4.7880   -2.8903    0.8015 C   0  0  0  0  0  0  0  0  0  0  0  0
    4.6778   -4.2419    1.0751 O   0  0  0  0  0  0  0  0  0  0  0  0
    6.0385   -2.7405    0.4976 N   0  0  0  0  0  0  0  0  0  0  0  0
    6.5210   -1.4221    0.1482 C   0  0  0  0  0  0  0  0  0  0  0  0
    8.0488   -1.4458    0.2257 C   0  0  0  0  0  0  0  0  0  0  0  0
    8.5096   -0.0614   -0.1420 C   0  0  0  0  0  0  0  0  0  0  0  0
    8.1055    0.2680   -1.4377 O   0  0  0  0  0  0  0  0  0  0  0  0
    9.1739    0.8620    0.4530 N   0  0  0  0  0  0  0  0  0  0  0  0
    9.6732    0.7090    1.7906 C   0  0  0  0  0  0  0  0  0  0  0  0
   11.1612    0.4923    1.8737 C   0  0  0  0  0  0  0  0  0  0  0  0
   12.0492    1.8893    1.1658 S   0  0  0  0  0  0  0  0  0  0  0  0
   11.7667    2.0131   -0.6034 C   0  0  0  0  0  0  0  0  0  0  0  0
   12.5511    3.1981   -1.0936 C   0  0  0  0  0  0  0  0  0  0  0  0
   12.0206    4.2879   -1.1079 O   0  0  0  0  0  0  0  0  0  0  0  0
   13.9485    3.0115   -1.5468 C   0  0  0  0  0  0  0  0  0  0  0  0
   14.0143    2.1393   -2.5978 F   0  0  0  0  0  0  0  0  0  0  0  0
   14.4725    4.2412   -1.9313 F   0  0  0  0  0  0  0  0  0  0  0  0
   14.6544    2.4747   -0.4934 F   0  0  0  0  0  0  0  0  0  0  0  0
    2.6108   -2.1012   -0.1440 C   0  0  0  0  0  0  0  0  0  0  0  0
    3.1217   -2.2631   -1.5531 C   0  0  0  0  0  0  0  0  0  0  0  0
    1.8554   -3.3378    0.2853 C   0  0  0  0  0  0  0  0  0  0  0  0
    1.6461   -0.9172   -0.0492 C   0  0  0  0  0  0  0  0  0  0  0  0
    0.6040   -1.1422   -0.9486 O   0  0  0  0  0  0  0  0  0  0  0  0
   -0.4790    0.1373   -0.8154 P   0  0  0  0  0  0  0  0  0  0  0  0
    0.3526    1.5590   -1.2739 O   0  0  0  0  0  0  0  0  0  0  0  0
   -0.9012    0.3288    0.6259 O   0  0  0  0  0  0  0  0  0  0  0  0
   -1.8256   -0.0222   -1.7875 O   0  0  0  0  0  0  0  0  0  0  0  0
   -3.1143   -0.8195   -1.0530 P   0  0  0  0  0  0  0  0  0  0  0  0
   -3.2107   -2.3510   -1.8096 O   0  0  0  0  0  0  0  0  0  0  0  0
   -2.8690   -1.0587    0.4066 O   0  0  0  0  0  0  0  0  0  0  0  0
   -4.5449    0.0366   -1.3203 O   0  0  0  0  0  0  0  0  0  0  0  0
   -5.1053    0.4450   -0.1215 C   0  0  0  0  0  0  0  0  0  0  0  0
   -6.3947    1.2021   -0.3445 C   0  0  1  0  0  0  0  0  0  0  0  0
   -7.2890    0.3586   -1.0030 O   0  0  0  0  0  0  0  0  0  0  0  0
   -8.5381    0.8742   -0.6824 C   0  0  1  0  0  0  0  0  0  0  0  0
   -9.6165    0.0022   -1.0274 N   0  0  0  0  0  0  0  0  0  0  0  0
   -9.6140   -1.2229   -1.5747 C   0  0  0  0  0  0  0  0  0  0  0  0
  -10.8746   -1.6513   -1.7150 N   0  0  0  0  0  0  0  0  0  0  0  0
  -11.6996   -0.6929   -1.2534 C   0  0  0  0  0  0  0  0  0  0  0  0
  -13.0939   -0.6968   -1.1987 C   0  0  0  0  0  0  0  0  0  0  0  0
  -13.8738   -1.7773   -1.6497 N   0  0  0  0  0  0  0  0  0  0  0  0
  -13.6453    0.4252   -0.6753 N   0  0  0  0  0  0  0  0  0  0  0  0
  -12.9062    1.4614   -0.2424 C   0  0  0  0  0  0  0  0  0  0  0  0
  -11.5631    1.4173   -0.3163 N   0  0  0  0  0  0  0  0  0  0  0  0
  -10.9032    0.3383   -0.8250 C   0  0  0  0  0  0  0  0  0  0  0  0
   -8.4093    1.0423    0.8139 C   0  0  2  0  0  0  0  0  0  0  0  0
   -9.4196    1.7713    1.3897 O   0  0  0  0  0  0  0  0  0  0  0  0
   -7.0368    1.5958    0.9435 C   0  0  2  0  0  0  0  0  0  0  0  0
   -6.9125    2.9040    1.2961 O   0  0  0  0  0  0  0  0  0  0  0  0
   -6.0880    3.2616    2.6779 P   0  0  0  0  0  0  0  0  0  0  0  0
   -5.5890    1.7787    3.3442 O   0  0  0  0  0  0  0  0  0  0  0  0
   -4.6429    4.1248    2.3841 O   0  0  0  0  0  0  0  0  0  0  0  0
   -6.8389    3.9842    3.7383 O   0  0  0  0  0  0  0  0  0  0  0  0
    4.2078   -0.8651    0.5927 H   0  0  0  0  0  0  0  0  0  0  0  0
    2.3254   -2.1427    2.1473 H   0  0  0  0  0  0  0  0  0  0  0  0
    5.2099   -4.6242    1.8439 H   0  0  0  0  0  0  0  0  0  0  0  0
    6.2053   -0.6442    0.8915 H   0  0  0  0  0  0  0  0  0  0  0  0
    6.1724   -1.1254   -0.8440 H   0  0  0  0  0  0  0  0  0  0  0  0
    8.3836   -1.6401    1.2486 H   0  0  0  0  0  0  0  0  0  0  0  0
    8.4755   -2.1636   -0.4758 H   0  0  0  0  0  0  0  0  0  0  0  0
    8.4935    1.0566   -1.9278 H   0  0  0  0  0  0  0  0  0  0  0  0
    9.2016   -0.1407    2.3437 H   0  0  0  0  0  0  0  0  0  0  0  0
    9.3710    1.6268    2.3436 H   0  0  0  0  0  0  0  0  0  0  0  0
   11.4270    0.3914    2.9414 H   0  0  0  0  0  0  0  0  0  0  0  0
   11.3745   -0.4623    1.3433 H   0  0  0  0  0  0  0  0  0  0  0  0
   12.1670    1.1275   -1.1528 H   0  0  0  0  0  0  0  0  0  0  0  0
   10.7055    2.1319   -0.8322 H   0  0  0  0  0  0  0  0  0  0  0  0
    3.9865   -1.5919   -1.7693 H   0  0  0  0  0  0  0  0  0  0  0  0
    3.4692   -3.3104   -1.7066 H   0  0  0  0  0  0  0  0  0  0  0  0
    2.3137   -2.0821   -2.2845 H   0  0  0  0  0  0  0  0  0  0  0  0
    0.8542   -3.0645    0.7064 H   0  0  0  0  0  0  0  0  0  0  0  0
    2.3834   -3.8728    1.0792 H   0  0  0  0  0  0  0  0  0  0  0  0
    1.7396   -4.0067   -0.5975 H   0  0  0  0  0  0  0  0  0  0  0  0
    1.3013   -0.8099    0.9977 H   0  0  0  0  0  0  0  0  0  0  0  0
    2.1994    0.0210   -0.2973 H   0  0  0  0  0  0  0  0  0  0  0  0
   -0.0201    2.3619   -0.8562 H   0  0  0  0  0  0  0  0  0  0  0  0
   -3.7597   -2.9887   -1.3091 H   0  0  0  0  0  0  0  0  0  0  0  0
   -5.3783   -0.5017    0.4242 H   0  0  0  0  0  0  0  0  0  0  0  0
   -4.3724    1.0264    0.4625 H   0  0  0  0  0  0  0  0  0  0  0  0
   -6.1969    2.0443   -1.0288 H   0  0  0  0  0  0  0  0  0  0  0  0
   -8.6576    1.8218   -1.2198 H   0  0  0  0  0  0  0  0  0  0  0  0
   -8.6995   -1.7426   -1.8445 H   0  0  0  0  0  0  0  0  0  0  0  0
  -13.6951   -2.7712   -1.3735 H   0  0  0  0  0  0  0  0  0  0  0  0
  -14.6539   -1.4717   -2.2940 H   0  0  0  0  0  0  0  0  0  0  0  0
  -13.3474    2.3527    0.1743 H   0  0  0  0  0  0  0  0  0  0  0  0
   -8.4907   -0.0017    1.2228 H   0  0  0  0  0  0  0  0  0  0  0  0
   -9.7684    1.4127    2.2485 H   0  0  0  0  0  0  0  0  0  0  0  0
   -6.5135    1.0243    1.7490 H   0  0  0  0  0  0  0  0  0  0  0  0
   -6.3062    1.3427    3.8602 H   0  0  0  0  0  0  0  0  0  0  0  0
   -4.3943    4.0232    1.4107 H   0  0  0  0  0  0  0  0  0  0  0  0
  1  2  1  0
  1  3  1  0
  3  4  1  0
  3  5  2  3
  5  6  1  0
  6  7  1  0
  7  8  1  0
  8  9  1  0
  8 10  2  3
 10 11  1  0
 11 12  1  0
 12 13  1  0
 13 14  1  0
 14 15  1  0
 15 16  2  0
 15 17  1  0
 17 18  1  0
 17 19  1  0
 17 20  1  0
  1 21  1  0
 21 22  1  0
 21 23  1  0
 21 24  1  0
 24 25  1  0
 25 26  1  0
 26 27  1  0
 26 28  2  0
 26 29  1  0
 29 30  1  0
 30 31  1  0
 30 32  2  0
 30 33  1  0
 33 34  1  0
 34 35  1  0
 35 36  1  0
 36 37  1  0
 37 38  1  0
 38 39  1  0
 39 40  2  0
 40 41  1  0
 41 42  2  0
 42 43  1  0
 42 44  1  0
 44 45  2  0
 45 46  1  0
 46 47  2  0
 37 48  1  0
 48 49  1  0
 48 50  1  0
 50 51  1  0
 51 52  1  0
 52 53  1  0
 52 54  1  0
 52 55  2  0
 50 35  1  0
 47 38  1  0
 47 41  1  0
  1 56  1  6
  2 57  1  0
  4 58  1  0
  6 59  1  0
  6 60  1  0
  7 61  1  0
  7 62  1  0
  9 63  1  0
 11 64  1  0
 11 65  1  0
 12 66  1  0
 12 67  1  0
 14 68  1  0
 14 69  1  0
 22 70  1  0
 22 71  1  0
 22 72  1  0
 23 73  1  0
 23 74  1  0
 23 75  1  0
 24 76  1  0
 24 77  1  0
 27 78  1  0
 31 79  1  0
 34 80  1  0
 34 81  1  0
 35 82  1  6
 37 83  1  6
 39 84  1  0
 43 85  1  0
 43 86  1  0
 45 87  1  0
 48 88  1  1
 49 89  1  0
 50 90  1  1
 53 91  1  0
 54 92  1  0
M  END
$$$$
