@<TRIPOS>MOLECULE
*****
 35 37 0 0 0
SMALL
GASTEIGER

@<TRIPOS>ATOM
      1 C          -5.5328    0.2350    0.1167 C.3     1  UNL1        0.0368
      2 O          -4.4055    0.8509   -0.3921 O.3     1  UNL1       -0.3794
      3 C          -3.2276    0.3484    0.1427 C.3     1  UNL1        0.0626
      4 C          -2.4375    1.3747    0.8931 C.3     1  UNL1       -0.0223
      5 C          -1.3060    0.6227    1.6067 C.3     1  UNL1       -0.0251
      6 C          -0.3931    0.1644    0.5026 C.ar    1  UNL1       -0.0434
      7 C           0.9745    0.1578    0.6826 C.ar    1  UNL1       -0.0505
      8 C           1.8296   -0.2609   -0.3242 C.ar    1  UNL1       -0.0162
      9 C           3.2624   -0.2630   -0.1235 C.ar    1  UNL1        0.0002
     10 C           4.0881   -1.1763   -0.7369 C.ar    1  UNL1       -0.0512
     11 C           5.4533   -1.1648   -0.5349 C.ar    1  UNL1       -0.0430
     12 C           5.9994   -0.2026    0.3113 C.ar    1  UNL1        0.0276
     13 N           5.1784    0.6839    0.9040 N.ar    1  UNL1       -0.2627
     14 C           3.8432    0.6785    0.7111 C.ar    1  UNL1        0.0352
     15 C           1.2539   -0.6685   -1.5077 C.ar    1  UNL1       -0.0537
     16 C          -0.1150   -0.6684   -1.7053 C.ar    1  UNL1       -0.0577
     17 C          -0.9618   -0.2478   -0.6923 C.ar    1  UNL1       -0.0417
     18 C          -2.4183   -0.2648   -0.9478 C.3     1  UNL1       -0.0010
     19 H          -6.4099    0.7257   -0.3902 H       1  UNL1        0.0524
     20 H          -5.5412   -0.8156   -0.1817 H       1  UNL1        0.0524
     21 H          -5.6762    0.3921    1.2038 H       1  UNL1        0.0524
     22 H          -3.4915   -0.4607    0.8795 H       1  UNL1        0.0599
     23 H          -3.0153    1.9452    1.6190 H       1  UNL1        0.0293
     24 H          -1.9186    2.0958    0.2086 H       1  UNL1        0.0293
     25 H          -0.7812    1.2633    2.3296 H       1  UNL1        0.0314
     26 H          -1.7743   -0.2638    2.0765 H       1  UNL1        0.0314
     27 H           1.3649    0.4877    1.6295 H       1  UNL1        0.0626
     28 H           3.6926   -1.9389   -1.4022 H       1  UNL1        0.0625
     29 H           6.1263   -1.8725   -1.0054 H       1  UNL1        0.0633
     30 H           7.0810   -0.2023    0.4645 H       1  UNL1        0.0829
     31 H           3.2572    1.4203    1.2213 H       1  UNL1        0.0836
     32 H           1.9120   -1.0054   -2.3221 H       1  UNL1        0.0624
     33 H          -0.5198   -0.9997   -2.6582 H       1  UNL1        0.0621
     34 H          -2.5841    0.3142   -1.8989 H       1  UNL1        0.0338
     35 H          -2.8069   -1.2845   -1.1430 H       1  UNL1        0.0338
@<TRIPOS>BOND
     1     1     2    1
     2     2     3    1
     3     3     4    1
     4     4     5    1
     5     5     6    1
     6     6     7   ar
     7     7     8   ar
     8     8     9    1
     9     9    10   ar
    10    10    11   ar
    11    11    12   ar
    12    12    13   ar
    13    13    14   ar
    14     8    15   ar
    15    15    16   ar
    16    16    17   ar
    17    17    18    1
    18    18     3    1
    19    17     6   ar
    20    14     9   ar
    21     1    19    1
    22     1    20    1
    23     1    21    1
    24     3    22    1
    25     4    23    1
    26     4    24    1
    27     5    25    1
    28     5    26    1
    29     7    27    1
    30    10    28    1
    31    11    29    1
    32    12    30    1
    33    14    31    1
    34    15    32    1
    35    16    33    1
    36    18    34    1
    37    18    35    1
