
     RDKit          3D

 35 37  0  0  0  0  0  0  0  0999 V2000
   -5.5328    0.2350    0.1167 C   0  0  0  0  0  0  0  0  0  0  0  0
   -4.4055    0.8509   -0.3921 O   0  0  0  0  0  0  0  0  0  0  0  0
   -3.2276    0.3484    0.1427 C   0  0  0  0  0  0  0  0  0  0  0  0
   -2.4375    1.3747    0.8931 C   0  0  0  0  0  0  0  0  0  0  0  0
   -1.3060    0.6227    1.6067 C   0  0  0  0  0  0  0  0  0  0  0  0
   -0.3931    0.1644    0.5026 C   0  0  0  0  0  0  0  0  0  0  0  0
    0.9745    0.1578    0.6826 C   0  0  0  0  0  0  0  0  0  0  0  0
    1.8296   -0.2609   -0.3242 C   0  0  0  0  0  0  0  0  0  0  0  0
    3.2624   -0.2630   -0.1235 C   0  0  0  0  0  0  0  0  0  0  0  0
    4.0881   -1.1763   -0.7369 C   0  0  0  0  0  0  0  0  0  0  0  0
    5.4533   -1.1648   -0.5349 C   0  0  0  0  0  0  0  0  0  0  0  0
    5.9994   -0.2026    0.3113 C   0  0  0  0  0  0  0  0  0  0  0  0
    5.1784    0.6839    0.9040 N   0  0  0  0  0  0  0  0  0  0  0  0
    3.8432    0.6785    0.7111 C   0  0  0  0  0  0  0  0  0  0  0  0
    1.2539   -0.6685   -1.5077 C   0  0  0  0  0  0  0  0  0  0  0  0
   -0.1150   -0.6684   -1.7053 C   0  0  0  0  0  0  0  0  0  0  0  0
   -0.9618   -0.2478   -0.6923 C   0  0  0  0  0  0  0  0  0  0  0  0
   -2.4183   -0.2648   -0.9478 C   0  0  0  0  0  0  0  0  0  0  0  0
   -6.4099    0.7257   -0.3902 H   0  0  0  0  0  0  0  0  0  0  0  0
   -5.5412   -0.8156   -0.1817 H   0  0  0  0  0  0  0  0  0  0  0  0
   -5.6762    0.3921    1.2038 H   0  0  0  0  0  0  0  0  0  0  0  0
   -3.4915   -0.4607    0.8795 H   0  0  0  0  0  0  0  0  0  0  0  0
   -3.0153    1.9452    1.6190 H   0  0  0  0  0  0  0  0  0  0  0  0
   -1.9186    2.0958    0.2086 H   0  0  0  0  0  0  0  0  0  0  0  0
   -0.7812    1.2633    2.3296 H   0  0  0  0  0  0  0  0  0  0  0  0
   -1.7743   -0.2638    2.0765 H   0  0  0  0  0  0  0  0  0  0  0  0
    1.3649    0.4877    1.6295 H   0  0  0  0  0  0  0  0  0  0  0  0
    3.6926   -1.9389   -1.4022 H   0  0  0  0  0  0  0  0  0  0  0  0
    6.1263   -1.8725   -1.0054 H   0  0  0  0  0  0  0  0  0  0  0  0
    7.0810   -0.2023    0.4645 H   0  0  0  0  0  0  0  0  0  0  0  0
    3.2572    1.4203    1.2213 H   0  0  0  0  0  0  0  0  0  0  0  0
    1.9120   -1.0054   -2.3221 H   0  0  0  0  0  0  0  0  0  0  0  0
   -0.5198   -0.9997   -2.6582 H   0  0  0  0  0  0  0  0  0  0  0  0
   -2.5841    0.3142   -1.8989 H   0  0  0  0  0  0  0  0  0  0  0  0
   -2.8069   -1.2845   -1.1430 H   0  0  0  0  0  0  0  0  0  0  0  0
  1  2  1  0
  2  3  1  0
  3  4  1  0
  4  5  1  0
  5  6  1  0
  6  7  2  0
  7  8  1  0
  8  9  1  0
  9 10  2  0
 10 11  1  0
 11 12  2  0
 12 13  1  0
 13 14  2  0
  8 15  2  0
 15 16  1  0
 16 17  2  0
 17 18  1  0
 18  3  1  0
 17  6  1  0
 14  9  1  0
  1 19  1  0
  1 20  1  0
  1 21  1  0
  3 22  1  0
  4 23  1  0
  4 24  1  0
  5 25  1  0
  5 26  1  0
  7 27  1  0
 10 28  1  0
 11 29  1  0
 12 30  1  0
 14 31  1  0
 15 32  1  0
 16 33  1  0
 18 34  1  0
 18 35  1  0
M  END
$$$$
