
     RDKit          3D

 41 42  0  0  0  0  0  0  0  0999 V2000
   -5.6735   -1.3418    0.3522 C   0  0  0  0  0  0  0  0  0  0  0  0
   -4.7853   -0.1670    0.2544 C   0  0  0  0  0  0  0  0  0  0  0  0
   -3.4214   -0.3347    0.1522 C   0  0  0  0  0  0  0  0  0  0  0  0
   -2.6492    0.7616    0.0654 N   0  0  0  0  0  0  0  0  0  0  0  0
   -1.2259    0.7670   -0.0457 C   0  0  1  0  0  0  0  0  0  0  0  0
   -0.5000    0.9464    1.2729 C   0  0  0  0  0  0  0  0  0  0  0  0
    0.9183    0.5959    0.8496 C   0  0  2  0  0  0  0  0  0  0  0  0
    1.6193    1.7596    0.5491 O   0  0  0  0  0  0  0  0  0  0  0  0
    0.6961   -0.1567   -0.4407 C   0  0  1  0  0  0  0  0  0  0  0  0
    1.5458   -1.3969   -0.4629 C   0  0  0  0  0  0  0  0  0  0  0  0
    2.8786   -1.0113   -0.4305 O   0  0  0  0  0  0  0  0  0  0  0  0
    3.9464   -2.2890   -0.4506 P   0  0  0  0  0  0  0  0  0  0  0  0
    4.5484   -2.6262   -1.9870 O   0  0  0  0  0  0  0  0  0  0  0  0
    3.3716   -3.5719    0.1131 O   0  0  0  0  0  0  0  0  0  0  0  0
    5.2723   -1.8645    0.5295 O   0  0  0  0  0  0  0  0  0  0  0  0
    5.6653   -0.2479    0.4424 P   0  0  0  0  0  0  0  0  0  0  0  0
    4.7564    0.6339   -0.6528 O   0  0  0  0  0  0  0  0  0  0  0  0
    5.5281    0.5203    1.9578 O   0  0  0  0  0  0  0  0  0  0  0  0
    7.1235   -0.1484    0.0599 O   0  0  0  0  0  0  0  0  0  0  0  0
   -0.6839   -0.4537   -0.4712 O   0  0  0  0  0  0  0  0  0  0  0  0
   -3.2104    1.9964    0.0791 C   0  0  0  0  0  0  0  0  0  0  0  0
   -2.5358    3.0775    0.0003 O   0  0  0  0  0  0  0  0  0  0  0  0
   -4.5446    2.1412    0.1796 N   0  0  0  0  0  0  0  0  0  0  0  0
   -5.3803    1.0904    0.2703 C   0  0  0  0  0  0  0  0  0  0  0  0
   -6.6229    1.2620    0.3630 O   0  0  0  0  0  0  0  0  0  0  0  0
   -6.5152   -1.0629    1.0317 H   0  0  0  0  0  0  0  0  0  0  0  0
   -6.1621   -1.5141   -0.6367 H   0  0  0  0  0  0  0  0  0  0  0  0
   -5.1575   -2.2574    0.6919 H   0  0  0  0  0  0  0  0  0  0  0  0
   -2.9363   -1.3012    0.1379 H   0  0  0  0  0  0  0  0  0  0  0  0
   -0.8549    1.6043   -0.7064 H   0  0  0  0  0  0  0  0  0  0  0  0
   -0.5676    1.9878    1.6460 H   0  0  0  0  0  0  0  0  0  0  0  0
   -0.8534    0.2089    2.0305 H   0  0  0  0  0  0  0  0  0  0  0  0
    1.4409   -0.0077    1.6123 H   0  0  0  0  0  0  0  0  0  0  0  0
    2.2652    1.9996    1.2865 H   0  0  0  0  0  0  0  0  0  0  0  0
    0.8701    0.4564   -1.3335 H   0  0  0  0  0  0  0  0  0  0  0  0
    1.2799   -2.1035   -1.2471 H   0  0  0  0  0  0  0  0  0  0  0  0
    1.3654   -1.9317    0.5119 H   0  0  0  0  0  0  0  0  0  0  0  0
    4.1398   -2.0914   -2.7078 H   0  0  0  0  0  0  0  0  0  0  0  0
    4.4153    1.4870   -0.2676 H   0  0  0  0  0  0  0  0  0  0  0  0
    5.6112    1.4867    1.8482 H   0  0  0  0  0  0  0  0  0  0  0  0
   -4.9778    3.0968    0.1901 H   0  0  0  0  0  0  0  0  0  0  0  0
  1  2  1  0
  2  3  2  0
  3  4  1  0
  4  5  1  0
  5  6  1  0
  6  7  1  0
  7  8  1  0
  7  9  1  0
  9 10  1  0
 10 11  1  0
 11 12  1  0
 12 13  1  0
 12 14  2  0
 12 15  1  0
 15 16  1  0
 16 17  1  0
 16 18  1  0
 16 19  2  0
  9 20  1  0
  4 21  1  0
 21 22  2  0
 21 23  1  0
 23 24  1  0
 24 25  2  0
 24  2  1  0
 20  5  1  0
  1 26  1  0
  1 27  1  0
  1 28  1  0
  3 29  1  0
  5 30  1  6
  6 31  1  0
  6 32  1  0
  7 33  1  1
  8 34  1  0
  9 35  1  6
 10 36  1  0
 10 37  1  0
 13 38  1  0
 17 39  1  0
 18 40  1  0
 23 41  1  0
M  END
$$$$
