
     RDKit          3D

167171  0  0  0  0  0  0  0  0999 V2000
    0.7423   -2.0307    0.5794 C   0  0  1  0  0  0  0  0  0  0  0  0
    2.0071   -1.7527   -0.1033 N   0  0  0  0  0  0  0  0  0  0  0  0
    2.4033   -1.5058   -1.5011 C   0  0  0  0  0  0  0  0  0  0  0  0
    1.2364   -1.5419   -1.9217 O   0  0  0  0  0  0  0  0  0  0  0  0
    3.9092   -1.3740   -1.5945 C   0  0  2  0  0  0  0  0  0  0  0  0
    4.3331   -2.6698   -2.3194 C   0  0  0  0  0  0  0  0  0  0  0  0
    5.7275   -2.9113   -2.5435 C   0  0  0  0  0  0  0  0  0  0  0  0
    6.5128   -2.6670   -3.6502 C   0  0  0  0  0  0  0  0  0  0  0  0
    7.8100   -3.0782   -3.6464 C   0  0  0  0  0  0  0  0  0  0  0  0
    8.3569   -3.7225   -2.5730 C   0  0  0  0  0  0  0  0  0  0  0  0
    9.7000   -4.1443   -2.5876 O   0  0  0  0  0  0  0  0  0  0  0  0
   10.9105   -3.0557   -2.0229 S   0  0  0  0  0  0  0  0  0  0  0  0
   11.3987   -2.0876   -3.3333 O   0  0  0  0  0  0  0  0  0  0  0  0
   12.0973   -3.7644   -1.4654 O   0  0  0  0  0  0  0  0  0  0  0  0
   10.2542   -2.1743   -0.9964 O   0  0  0  0  0  0  0  0  0  0  0  0
    7.6523   -4.0074   -1.4194 C   0  0  0  0  0  0  0  0  0  0  0  0
    6.3136   -3.5735   -1.4543 C   0  0  0  0  0  0  0  0  0  0  0  0
    4.5938   -1.2788   -0.3549 N   0  0  0  0  0  0  0  0  0  0  0  0
    5.7753   -0.4612   -0.3904 C   0  0  0  0  0  0  0  0  0  0  0  0
    6.1110    0.1034   -1.5005 O   0  0  0  0  0  0  0  0  0  0  0  0
    6.5024   -0.3489    0.8613 C   0  0  2  0  0  0  0  0  0  0  0  0
    5.5589    0.1852    1.9722 C   0  0  0  0  0  0  0  0  0  0  0  0
    6.3984    0.1566    3.2289 C   0  0  0  0  0  0  0  0  0  0  0  0
    6.2148    0.5510    4.5155 O   0  0  0  0  0  0  0  0  0  0  0  0
    7.5790   -0.3253    3.2547 O   0  0  0  0  0  0  0  0  0  0  0  0
    7.6676    0.4788    0.8504 N   0  0  0  0  0  0  0  0  0  0  0  0
    8.3681    1.5747    1.3518 C   0  0  0  0  0  0  0  0  0  0  0  0
    7.8116    2.3119    2.2492 O   0  0  0  0  0  0  0  0  0  0  0  0
    9.6529    2.2027    1.1706 C   0  0  2  0  0  0  0  0  0  0  0  0
    9.5493    3.6650    0.8305 C   0  0  0  0  0  0  0  0  0  0  0  0
   10.9393    4.2500    0.6582 C   0  0  0  0  0  0  0  0  0  0  0  0
   10.9588    5.6789    0.3300 C   0  0  0  0  0  0  0  0  0  0  0  0
   12.3201    6.0705    0.2054 N   0  0  0  0  0  0  0  0  0  0  0  0
    9.9813    6.4422    0.1800 O   0  0  0  0  0  0  0  0  0  0  0  0
   10.5496    1.6185    0.1856 N   0  0  0  0  0  0  0  0  0  0  0  0
   11.5084    0.6857    0.7086 C   0  0  0  0  0  0  0  0  0  0  0  0
   11.5127    0.3897    1.9507 O   0  0  0  0  0  0  0  0  0  0  0  0
   12.6340   -0.1225    0.1234 C   0  0  2  0  0  0  0  0  0  0  0  0
   13.8940    0.1385    0.8999 C   0  0  0  0  0  0  0  0  0  0  0  0
   14.9615    0.2265   -0.1538 C   0  0  0  0  0  0  0  0  0  0  0  0
   14.2586    0.8537   -1.2967 C   0  0  0  0  0  0  0  0  0  0  0  0
   14.4515    1.6691   -2.2358 O   0  0  0  0  0  0  0  0  0  0  0  0
   12.9323    0.2756   -1.2106 N   0  0  0  0  0  0  0  0  0  0  0  0
    0.8288   -3.3172    1.2938 C   0  0  1  0  0  0  0  0  0  0  0  0
    2.0961   -3.4896    2.1052 C   0  0  0  0  0  0  0  0  0  0  0  0
   -0.2949   -3.7254    1.9904 O   0  0  0  0  0  0  0  0  0  0  0  0
    0.1891   -0.8545    1.2034 C   0  0  0  0  0  0  0  0  0  0  0  0
    0.6153    0.2650    0.7620 O   0  0  0  0  0  0  0  0  0  0  0  0
   -0.7698   -0.7855    2.2360 N   0  0  0  0  0  0  0  0  0  0  0  0
   -1.4155    0.3462    2.8577 C   0  0  0  0  0  0  0  0  0  0  0  0
   -2.3569    1.0015    1.8625 C   0  0  0  0  0  0  0  0  0  0  0  0
   -3.0142    2.0817    2.1413 O   0  0  0  0  0  0  0  0  0  0  0  0
   -2.6800    0.5838    0.5627 N   0  0  0  0  0  0  0  0  0  0  0  0
   -3.4033    0.7908   -0.6444 C   0  0  1  0  0  0  0  0  0  0  0  0
   -2.7331    0.2549   -1.8613 C   0  0  0  0  0  0  0  0  0  0  0  0
   -2.4831   -1.1560   -1.9903 C   0  0  0  0  0  0  0  0  0  0  0  0
   -1.8097   -1.4302   -3.2058 C   0  0  0  0  0  0  0  0  0  0  0  0
   -1.5838   -2.7473   -3.3179 N   0  0  0  0  0  0  0  0  0  0  0  0
   -2.0640   -3.4027   -2.2470 C   0  0  0  0  0  0  0  0  0  0  0  0
   -2.1565   -4.6828   -1.7766 C   0  0  0  0  0  0  0  0  0  0  0  0
   -2.7374   -5.0629   -0.5979 C   0  0  0  0  0  0  0  0  0  0  0  0
   -3.2664   -3.9988    0.1493 C   0  0  0  0  0  0  0  0  0  0  0  0
   -3.2037   -2.6876   -0.2718 C   0  0  0  0  0  0  0  0  0  0  0  0
   -2.6056   -2.4168   -1.4550 C   0  0  0  0  0  0  0  0  0  0  0  0
   -4.7961    0.2658   -0.6193 C   0  0  0  0  0  0  0  0  0  0  0  0
   -5.1633    0.3150   -1.8652 O   0  0  0  0  0  0  0  0  0  0  0  0
   -5.8581   -0.2558    0.1833 N   0  0  0  0  0  0  0  0  0  0  0  0
   -7.0463   -0.6541   -0.5636 C   0  0  1  0  0  0  0  0  0  0  0  0
   -7.6980   -1.7913    0.2045 C   0  0  0  0  0  0  0  0  0  0  0  0
   -8.9049   -2.3898   -0.4079 C   0  0  0  0  0  0  0  0  0  0  0  0
   -8.7050   -3.2198   -1.9672 S   0  0  0  0  0  0  0  0  0  0  0  0
   -8.2665   -2.1919   -3.3510 C   0  0  0  0  0  0  0  0  0  0  0  0
   -8.0497    0.4728   -0.6394 C   0  0  0  0  0  0  0  0  0  0  0  0
   -7.9851    1.0313   -1.7828 O   0  0  0  0  0  0  0  0  0  0  0  0
   -9.0224    0.9898    0.3067 N   0  0  0  0  0  0  0  0  0  0  0  0
   -9.7058    2.0989   -0.4068 C   0  0  1  0  0  0  0  0  0  0  0  0
  -10.7927    1.3809   -1.2655 C   0  0  0  0  0  0  0  0  0  0  0  0
  -11.5431    2.3720   -2.0554 C   0  0  0  0  0  0  0  0  0  0  0  0
  -12.5505    1.7265   -2.7852 O   0  0  0  0  0  0  0  0  0  0  0  0
  -11.5158    3.6288   -2.2430 O   0  0  0  0  0  0  0  0  0  0  0  0
  -10.3471    2.9941    0.5494 C   0  0  0  0  0  0  0  0  0  0  0  0
  -10.8473    4.1316    0.2227 O   0  0  0  0  0  0  0  0  0  0  0  0
  -10.5425    2.8073    1.9379 N   0  0  0  0  0  0  0  0  0  0  0  0
  -11.1105    3.4971    3.0577 C   0  0  1  0  0  0  0  0  0  0  0  0
  -12.5635    3.0908    3.3094 C   0  0  0  0  0  0  0  0  0  0  0  0
  -13.3693    3.4257    2.1310 C   0  0  0  0  0  0  0  0  0  0  0  0
  -14.0006    4.6633    1.9902 C   0  0  0  0  0  0  0  0  0  0  0  0
  -14.8035    5.0340    0.9130 C   0  0  0  0  0  0  0  0  0  0  0  0
  -15.0052    4.1230   -0.1143 C   0  0  0  0  0  0  0  0  0  0  0  0
  -14.4138    2.8894   -0.0421 C   0  0  0  0  0  0  0  0  0  0  0  0
  -13.6339    2.5945    1.0560 C   0  0  0  0  0  0  0  0  0  0  0  0
  -10.3333    3.2138    4.2821 C   0  0  0  0  0  0  0  0  0  0  0  0
   -9.2125    2.3196    4.2365 N   0  0  0  0  0  0  0  0  0  0  0  0
  -10.8158    3.8492    5.2415 O   0  0  0  0  0  0  0  0  0  0  0  0
    0.0008   -2.2807   -0.3197 H   0  0  0  0  0  0  0  0  0  0  0  0
    2.5274   -1.7774    0.8209 H   0  0  0  0  0  0  0  0  0  0  0  0
    4.1608   -0.5773   -2.2724 H   0  0  0  0  0  0  0  0  0  0  0  0
    3.8375   -3.5396   -1.8216 H   0  0  0  0  0  0  0  0  0  0  0  0
    3.8073   -2.6564   -3.3434 H   0  0  0  0  0  0  0  0  0  0  0  0
    6.0202   -2.1462   -4.4644 H   0  0  0  0  0  0  0  0  0  0  0  0
    8.4249   -2.9024   -4.5013 H   0  0  0  0  0  0  0  0  0  0  0  0
   10.6149   -1.5359   -3.6214 H   0  0  0  0  0  0  0  0  0  0  0  0
    8.0820   -4.5060   -0.5853 H   0  0  0  0  0  0  0  0  0  0  0  0
    5.7962   -3.8190   -0.5140 H   0  0  0  0  0  0  0  0  0  0  0  0
    4.3884   -1.7261    0.5622 H   0  0  0  0  0  0  0  0  0  0  0  0
    6.7448   -1.3589    1.2823 H   0  0  0  0  0  0  0  0  0  0  0  0
    4.7419   -0.5297    2.1561 H   0  0  0  0  0  0  0  0  0  0  0  0
    5.2193    1.1956    1.7887 H   0  0  0  0  0  0  0  0  0  0  0  0
    6.2555   -0.1211    5.2711 H   0  0  0  0  0  0  0  0  0  0  0  0
    8.2522    0.0203    0.0870 H   0  0  0  0  0  0  0  0  0  0  0  0
   10.2071    2.1606    2.1856 H   0  0  0  0  0  0  0  0  0  0  0  0
    9.0431    3.7752   -0.1567 H   0  0  0  0  0  0  0  0  0  0  0  0
    8.9623    4.2249    1.5714 H   0  0  0  0  0  0  0  0  0  0  0  0
   11.4694    4.1295    1.6322 H   0  0  0  0  0  0  0  0  0  0  0  0
   11.5469    3.6205   -0.0513 H   0  0  0  0  0  0  0  0  0  0  0  0
   13.0106    6.1323    0.9866 H   0  0  0  0  0  0  0  0  0  0  0  0
   13.3040    6.3561    0.1008 H   0  0  0  0  0  0  0  0  0  0  0  0
   10.7184    1.6652   -0.8246 H   0  0  0  0  0  0  0  0  0  0  0  0
   12.4009   -1.2113    0.1766 H   0  0  0  0  0  0  0  0  0  0  0  0
   13.7994    1.1266    1.3998 H   0  0  0  0  0  0  0  0  0  0  0  0
   14.0885   -0.6918    1.6310 H   0  0  0  0  0  0  0  0  0  0  0  0
   15.2954   -0.8185   -0.4038 H   0  0  0  0  0  0  0  0  0  0  0  0
   15.8463    0.8401    0.1962 H   0  0  0  0  0  0  0  0  0  0  0  0
   12.1858    0.1180   -1.9345 H   0  0  0  0  0  0  0  0  0  0  0  0
    0.9350   -4.1203    0.4771 H   0  0  0  0  0  0  0  0  0  0  0  0
    2.9459   -3.7072    1.3917 H   0  0  0  0  0  0  0  0  0  0  0  0
    1.9519   -4.4095    2.7142 H   0  0  0  0  0  0  0  0  0  0  0  0
    2.4038   -2.6130    2.6786 H   0  0  0  0  0  0  0  0  0  0  0  0
   -0.0866   -4.6235    2.3574 H   0  0  0  0  0  0  0  0  0  0  0  0
   -1.0559   -1.7159    2.5999 H   0  0  0  0  0  0  0  0  0  0  0  0
   -0.6459    1.0975    3.0705 H   0  0  0  0  0  0  0  0  0  0  0  0
   -1.9093    0.0963    3.7904 H   0  0  0  0  0  0  0  0  0  0  0  0
   -2.0568   -0.2703    0.4412 H   0  0  0  0  0  0  0  0  0  0  0  0
   -3.5821    1.9340   -0.7814 H   0  0  0  0  0  0  0  0  0  0  0  0
   -1.7810    0.8596   -2.0670 H   0  0  0  0  0  0  0  0  0  0  0  0
   -3.3722    0.6234   -2.7458 H   0  0  0  0  0  0  0  0  0  0  0  0
   -1.4238   -0.8681   -4.0699 H   0  0  0  0  0  0  0  0  0  0  0  0
   -1.1269   -3.3466   -4.0547 H   0  0  0  0  0  0  0  0  0  0  0  0
   -1.7198   -5.4719   -2.3928 H   0  0  0  0  0  0  0  0  0  0  0  0
   -2.7583   -6.0845   -0.3149 H   0  0  0  0  0  0  0  0  0  0  0  0
   -3.7493   -4.2264    1.1092 H   0  0  0  0  0  0  0  0  0  0  0  0
   -3.6336   -1.9779    0.3707 H   0  0  0  0  0  0  0  0  0  0  0  0
   -5.4029   -0.1788    1.1366 H   0  0  0  0  0  0  0  0  0  0  0  0
   -6.7932   -0.9230   -1.5801 H   0  0  0  0  0  0  0  0  0  0  0  0
   -6.8859   -2.5394    0.4152 H   0  0  0  0  0  0  0  0  0  0  0  0
   -8.0251   -1.3475    1.2011 H   0  0  0  0  0  0  0  0  0  0  0  0
   -9.7493   -1.6608   -0.4957 H   0  0  0  0  0  0  0  0  0  0  0  0
   -9.3001   -3.1376    0.3453 H   0  0  0  0  0  0  0  0  0  0  0  0
   -8.7404   -2.5719   -4.3047 H   0  0  0  0  0  0  0  0  0  0  0  0
   -8.5422   -1.1410   -3.2372 H   0  0  0  0  0  0  0  0  0  0  0  0
   -7.1489   -2.2023   -3.5287 H   0  0  0  0  0  0  0  0  0  0  0  0
   -8.9408    0.4549    1.1664 H   0  0  0  0  0  0  0  0  0  0  0  0
   -9.0873    2.6348   -1.1130 H   0  0  0  0  0  0  0  0  0  0  0  0
  -11.4940    0.9044   -0.5441 H   0  0  0  0  0  0  0  0  0  0  0  0
  -10.3034    0.6652   -1.9407 H   0  0  0  0  0  0  0  0  0  0  0  0
  -13.1061    2.2110   -3.4830 H   0  0  0  0  0  0  0  0  0  0  0  0
  -10.1436    1.8656    2.2300 H   0  0  0  0  0  0  0  0  0  0  0  0
  -11.1688    4.6099    2.8808 H   0  0  0  0  0  0  0  0  0  0  0  0
  -12.9390    3.6019    4.2070 H   0  0  0  0  0  0  0  0  0  0  0  0
  -12.5492    1.9847    3.4576 H   0  0  0  0  0  0  0  0  0  0  0  0
  -13.8303    5.3703    2.8109 H   0  0  0  0  0  0  0  0  0  0  0  0
  -15.2550    6.0028    0.8896 H   0  0  0  0  0  0  0  0  0  0  0  0
  -15.6177    4.3312   -0.9822 H   0  0  0  0  0  0  0  0  0  0  0  0
  -14.5882    2.1894   -0.8475 H   0  0  0  0  0  0  0  0  0  0  0  0
  -13.1874    1.6135    1.0764 H   0  0  0  0  0  0  0  0  0  0  0  0
   -8.9787    2.0294    5.2099 H   0  0  0  0  0  0  0  0  0  0  0  0
   -8.9101    1.9816    5.1636 H   0  0  0  0  0  0  0  0  0  0  0  0
  1  2  1  0
  2  3  1  0
  3  4  2  0
  3  5  1  0
  5  6  1  0
  6  7  1  0
  7  8  2  0
  8  9  1  0
  9 10  2  0
 10 11  1  0
 11 12  1  0
 12 13  1  0
 12 14  2  0
 12 15  2  0
 10 16  1  0
 16 17  2  0
  5 18  1  0
 18 19  1  0
 19 20  2  0
 19 21  1  0
 21 22  1  0
 22 23  1  0
 23 24  1  0
 23 25  2  0
 21 26  1  0
 26 27  1  0
 27 28  2  0
 27 29  1  0
 29 30  1  0
 30 31  1  0
 31 32  1  0
 32 33  1  0
 32 34  2  0
 29 35  1  0
 35 36  1  0
 36 37  2  0
 36 38  1  0
 38 39  1  0
 39 40  1  0
 40 41  1  0
 41 42  2  0
 41 43  1  0
  1 44  1  0
 44 45  1  0
 44 46  1  0
  1 47  1  0
 47 48  2  0
 47 49  1  0
 49 50  1  0
 50 51  1  0
 51 52  2  0
 51 53  1  0
 53 54  1  0
 54 55  1  0
 55 56  1  0
 56 57  2  0
 57 58  1  0
 58 59  1  0
 59 60  2  0
 60 61  1  0
 61 62  2  0
 62 63  1  0
 63 64  2  0
 54 65  1  0
 65 66  2  0
 65 67  1  0
 67 68  1  0
 68 69  1  0
 69 70  1  0
 70 71  1  0
 71 72  1  0
 68 73  1  0
 73 74  2  0
 73 75  1  0
 75 76  1  0
 76 77  1  0
 77 78  1  0
 78 79  1  0
 78 80  2  0
 76 81  1  0
 81 82  2  0
 81 83  1  0
 83 84  1  0
 84 85  1  0
 85 86  1  0
 86 87  2  0
 87 88  1  0
 88 89  2  0
 89 90  1  0
 90 91  2  0
 84 92  1  0
 92 93  1  0
 92 94  2  0
 17  7  1  0
 43 38  1  0
 64 56  1  0
 91 86  1  0
 64 59  1  0
  1 95  1  6
  2 96  1  0
  5 97  1  6
  6 98  1  0
  6 99  1  0
  8100  1  0
  9101  1  0
 13102  1  0
 16103  1  0
 17104  1  0
 18105  1  0
 21106  1  1
 22107  1  0
 22108  1  0
 24109  1  0
 26110  1  0
 29111  1  1
 30112  1  0
 30113  1  0
 31114  1  0
 31115  1  0
 33116  1  0
 33117  1  0
 35118  1  0
 38119  1  6
 39120  1  0
 39121  1  0
 40122  1  0
 40123  1  0
 43124  1  0
 44125  1  6
 45126  1  0
 45127  1  0
 45128  1  0
 46129  1  0
 49130  1  0
 50131  1  0
 50132  1  0
 53133  1  0
 54134  1  6
 55135  1  0
 55136  1  0
 57137  1  0
 58138  1  0
 60139  1  0
 61140  1  0
 62141  1  0
 63142  1  0
 67143  1  0
 68144  1  6
 69145  1  0
 69146  1  0
 70147  1  0
 70148  1  0
 72149  1  0
 72150  1  0
 72151  1  0
 75152  1  0
 76153  1  6
 77154  1  0
 77155  1  0
 79156  1  0
 83157  1  0
 84158  1  6
 85159  1  0
 85160  1  0
 87161  1  0
 88162  1  0
 89163  1  0
 90164  1  0
 91165  1  0
 93166  1  0
 93167  1  0
M  END
$$$$
