@<TRIPOS>MOLECULE
*****
 167 171 0 0 0
SMALL
GASTEIGER

@<TRIPOS>ATOM
      1 C           0.7423   -2.0307    0.5794 C.3     1  UNL1        0.1252
      2 N           2.0071   -1.7527   -0.1033 N.am    1  UNL1       -0.3003
      3 C           2.4033   -1.5058   -1.5011 C.2     1  UNL1        0.2343
      4 O           1.2364   -1.5419   -1.9217 O.2     1  UNL1       -0.2738
      5 C           3.9092   -1.3740   -1.5945 C.3     1  UNL1        0.1034
      6 C           4.3331   -2.6698   -2.3194 C.3     1  UNL1       -0.0007
      7 C           5.7275   -2.9113   -2.5435 C.ar    1  UNL1       -0.0449
      8 C           6.5128   -2.6670   -3.6502 C.ar    1  UNL1       -0.0550
      9 C           7.8100   -3.0782   -3.6464 C.ar    1  UNL1       -0.0167
     10 C           8.3569   -3.7225   -2.5730 C.ar    1  UNL1        0.1588
     11 O           9.7000   -4.1443   -2.5876 O.3     1  UNL1       -0.3250
     12 S          10.9105   -3.0557   -2.0229 S.O2    1  UNL1        0.2513
     13 O          11.3987   -2.0876   -3.3333 O.3     1  UNL1       -0.2222
     14 O          12.0973   -3.7644   -1.4654 O.2     1  UNL1       -0.1077
     15 O          10.2542   -2.1743   -0.9964 O.2     1  UNL1       -0.1077
     16 C           7.6523   -4.0074   -1.4194 C.ar    1  UNL1       -0.0167
     17 C           6.3136   -3.5735   -1.4543 C.ar    1  UNL1       -0.0550
     18 N           4.5938   -1.2788   -0.3549 N.am    1  UNL1       -0.3022
     19 C           5.7753   -0.4612   -0.3904 C.2     1  UNL1        0.2345
     20 O           6.1110    0.1034   -1.5005 O.2     1  UNL1       -0.2737
     21 C           6.5024   -0.3489    0.8613 C.3     1  UNL1        0.1094
     22 C           5.5589    0.1852    1.9722 C.3     1  UNL1        0.0716
     23 C           6.3984    0.1566    3.2289 C.2     1  UNL1        0.3070
     24 O           6.2148    0.5510    4.5155 O.3     1  UNL1       -0.4806
     25 O           7.5790   -0.3253    3.2547 O.2     1  UNL1       -0.2509
     26 N           7.6676    0.4788    0.8504 N.am    1  UNL1       -0.3019
     27 C           8.3681    1.5747    1.3518 C.2     1  UNL1        0.2340
     28 O           7.8116    2.3119    2.2492 O.2     1  UNL1       -0.2738
     29 C           9.6529    2.2027    1.1706 C.3     1  UNL1        0.0999
     30 C           9.5493    3.6650    0.8305 C.3     1  UNL1       -0.0177
     31 C          10.9393    4.2500    0.6582 C.3     1  UNL1        0.0259
     32 C          10.9588    5.6789    0.3300 C.2     1  UNL1        0.2106
     33 N          12.3201    6.0705    0.2054 N.am    1  UNL1       -0.3293
     34 O           9.9813    6.4422    0.1800 O.2     1  UNL1       -0.2760
     35 N          10.5496    1.6185    0.1856 N.am    1  UNL1       -0.3025
     36 C          11.5084    0.6857    0.7086 C.2     1  UNL1        0.2340
     37 O          11.5127    0.3897    1.9507 O.2     1  UNL1       -0.2738
     38 C          12.6340   -0.1225    0.1234 C.3     1  UNL1        0.0998
     39 C          13.8940    0.1385    0.8999 C.3     1  UNL1       -0.0177
     40 C          14.9615    0.2265   -0.1538 C.3     1  UNL1        0.0261
     41 C          14.2586    0.8537   -1.2967 C.2     1  UNL1        0.2137
     42 O          14.4515    1.6691   -2.2358 O.2     1  UNL1       -0.2758
     43 N          12.9323    0.2756   -1.2106 N.am    1  UNL1       -0.3040
     44 C           0.8288   -3.3172    1.2938 C.3     1  UNL1        0.0792
     45 C           2.0961   -3.4896    2.1052 C.3     1  UNL1       -0.0367
     46 O          -0.2949   -3.7254    1.9904 O.3     1  UNL1       -0.3897
     47 C           0.1891   -0.8545    1.2034 C.2     1  UNL1        0.2363
     48 O           0.6153    0.2650    0.7620 O.2     1  UNL1       -0.2737
     49 N          -0.7698   -0.7855    2.2360 N.am    1  UNL1       -0.3051
     50 C          -1.4155    0.3462    2.8577 C.3     1  UNL1        0.0882
     51 C          -2.3569    1.0015    1.8625 C.2     1  UNL1        0.2308
     52 O          -3.0142    2.0817    2.1413 O.2     1  UNL1       -0.2741
     53 N          -2.6800    0.5838    0.5627 N.am    1  UNL1       -0.3024
     54 C          -3.4033    0.7908   -0.6444 C.3     1  UNL1        0.1034
     55 C          -2.7331    0.2549   -1.8613 C.3     1  UNL1        0.0013
     56 C          -2.4831   -1.1560   -1.9903 C.ar    1  UNL1       -0.0201
     57 C          -1.8097   -1.4302   -3.2058 C.ar    1  UNL1        0.0060
     58 N          -1.5838   -2.7473   -3.3179 N.ar    1  UNL1       -0.3604
     59 C          -2.0640   -3.4027   -2.2470 C.ar    1  UNL1        0.0467
     60 C          -2.1565   -4.6828   -1.7766 C.ar    1  UNL1       -0.0378
     61 C          -2.7374   -5.0629   -0.5979 C.ar    1  UNL1       -0.0598
     62 C          -3.2664   -3.9988    0.1493 C.ar    1  UNL1       -0.0611
     63 C          -3.2037   -2.6876   -0.2718 C.ar    1  UNL1       -0.0523
     64 C          -2.6056   -2.4168   -1.4550 C.ar    1  UNL1        0.0029
     65 C          -4.7961    0.2658   -0.6193 C.2     1  UNL1        0.2343
     66 O          -5.1633    0.3150   -1.8652 O.2     1  UNL1       -0.2738
     67 N          -5.8581   -0.2558    0.1833 N.am    1  UNL1       -0.3024
     68 C          -7.0463   -0.6541   -0.5636 C.3     1  UNL1        0.1002
     69 C          -7.6980   -1.7913    0.2045 C.3     1  UNL1       -0.0169
     70 C          -8.9049   -2.3898   -0.4079 C.3     1  UNL1       -0.0044
     71 S          -8.7050   -3.2198   -1.9672 S.3     1  UNL1       -0.1641
     72 C          -8.2665   -2.1919   -3.3510 C.3     1  UNL1       -0.0181
     73 C          -8.0497    0.4728   -0.6394 C.2     1  UNL1        0.2340
     74 O          -7.9851    1.0313   -1.7828 O.2     1  UNL1       -0.2738
     75 N          -9.0224    0.9898    0.3067 N.am    1  UNL1       -0.3019
     76 C          -9.7058    2.0989   -0.4068 C.3     1  UNL1        0.1094
     77 C         -10.7927    1.3809   -1.2655 C.3     1  UNL1        0.0716
     78 C         -11.5431    2.3720   -2.0554 C.2     1  UNL1        0.3070
     79 O         -12.5505    1.7265   -2.7852 O.3     1  UNL1       -0.4806
     80 O         -11.5158    3.6288   -2.2430 O.2     1  UNL1       -0.2509
     81 C         -10.3471    2.9941    0.5494 C.2     1  UNL1        0.2345
     82 O         -10.8473    4.1316    0.2227 O.2     1  UNL1       -0.2737
     83 N         -10.5425    2.8073    1.9379 N.am    1  UNL1       -0.3022
     84 C         -11.1105    3.4971    3.0577 C.3     1  UNL1        0.1031
     85 C         -12.5635    3.0908    3.3094 C.3     1  UNL1       -0.0007
     86 C         -13.3693    3.4257    2.1310 C.ar    1  UNL1       -0.0451
     87 C         -14.0006    4.6633    1.9902 C.ar    1  UNL1       -0.0585
     88 C         -14.8035    5.0340    0.9130 C.ar    1  UNL1       -0.0615
     89 C         -15.0052    4.1230   -0.1143 C.ar    1  UNL1       -0.0617
     90 C         -14.4138    2.8894   -0.0421 C.ar    1  UNL1       -0.0615
     91 C         -13.6339    2.5945    1.0560 C.ar    1  UNL1       -0.0585
     92 C         -10.3333    3.2138    4.2821 C.2     1  UNL1        0.2311
     93 N          -9.2125    2.3196    4.2365 N.am    1  UNL1       -0.3278
     94 O         -10.8158    3.8492    5.2415 O.2     1  UNL1       -0.2740
     95 H           0.0008   -2.2807   -0.3197 H       1  UNL1        0.0621
     96 H           2.5274   -1.7774    0.8209 H       1  UNL1        0.1496
     97 H           4.1608   -0.5773   -2.2724 H       1  UNL1        0.0598
     98 H           3.8375   -3.5396   -1.8216 H       1  UNL1        0.0336
     99 H           3.8073   -2.6564   -3.3434 H       1  UNL1        0.0336
    100 H           6.0202   -2.1462   -4.4644 H       1  UNL1        0.0621
    101 H           8.4249   -2.9024   -4.5013 H       1  UNL1        0.0655
    102 H          10.6149   -1.5359   -3.6214 H       1  UNL1        0.2479
    103 H           8.0820   -4.5060   -0.5853 H       1  UNL1        0.0655
    104 H           5.7962   -3.8190   -0.5140 H       1  UNL1        0.0621
    105 H           4.3884   -1.7261    0.5622 H       1  UNL1        0.1495
    106 H           6.7448   -1.3589    1.2823 H       1  UNL1        0.0600
    107 H           4.7419   -0.5297    2.1561 H       1  UNL1        0.0401
    108 H           5.2193    1.1956    1.7887 H       1  UNL1        0.0401
    109 H           6.2555   -0.1211    5.2711 H       1  UNL1        0.2951
    110 H           8.2522    0.0203    0.0870 H       1  UNL1        0.1495
    111 H          10.2071    2.1606    2.1856 H       1  UNL1        0.0595
    112 H           9.0431    3.7752   -0.1567 H       1  UNL1        0.0292
    113 H           8.9623    4.2249    1.5714 H       1  UNL1        0.0292
    114 H          11.4694    4.1295    1.6322 H       1  UNL1        0.0359
    115 H          11.5469    3.6205   -0.0513 H       1  UNL1        0.0359
    116 H          13.0106    6.1323    0.9866 H       1  UNL1        0.1449
    117 H          13.3040    6.3561    0.1008 H       1  UNL1        0.1449
    118 H          10.7184    1.6652   -0.8246 H       1  UNL1        0.1495
    119 H          12.4009   -1.2113    0.1766 H       1  UNL1        0.0595
    120 H          13.7994    1.1266    1.3998 H       1  UNL1        0.0292
    121 H          14.0885   -0.6918    1.6310 H       1  UNL1        0.0292
    122 H          15.2954   -0.8185   -0.4038 H       1  UNL1        0.0359
    123 H          15.8463    0.8401    0.1962 H       1  UNL1        0.0359
    124 H          12.1858    0.1180   -1.9345 H       1  UNL1        0.1494
    125 H           0.9350   -4.1203    0.4771 H       1  UNL1        0.0614
    126 H           2.9459   -3.7072    1.3917 H       1  UNL1        0.0255
    127 H           1.9519   -4.4095    2.7142 H       1  UNL1        0.0255
    128 H           2.4038   -2.6130    2.6786 H       1  UNL1        0.0255
    129 H          -0.0866   -4.6235    2.3574 H       1  UNL1        0.2099
    130 H          -1.0559   -1.7159    2.5999 H       1  UNL1        0.1492
    131 H          -0.6459    1.0975    3.0705 H       1  UNL1        0.0558
    132 H          -1.9093    0.0963    3.7904 H       1  UNL1        0.0558
    133 H          -2.0568   -0.2703    0.4412 H       1  UNL1        0.1495
    134 H          -3.5821    1.9340   -0.7814 H       1  UNL1        0.0598
    135 H          -1.7810    0.8596   -2.0670 H       1  UNL1        0.0337
    136 H          -3.3722    0.6234   -2.7458 H       1  UNL1        0.0337
    137 H          -1.4238   -0.8681   -4.0699 H       1  UNL1        0.0810
    138 H          -1.1269   -3.3466   -4.0547 H       1  UNL1        0.1653
    139 H          -1.7198   -5.4719   -2.3928 H       1  UNL1        0.0638
    140 H          -2.7583   -6.0845   -0.3149 H       1  UNL1        0.0618
    141 H          -3.7493   -4.2264    1.1092 H       1  UNL1        0.0618
    142 H          -3.6336   -1.9779    0.3707 H       1  UNL1        0.0624
    143 H          -5.4029   -0.1788    1.1366 H       1  UNL1        0.1495
    144 H          -6.7932   -0.9230   -1.5801 H       1  UNL1        0.0595
    145 H          -6.8859   -2.5394    0.4152 H       1  UNL1        0.0296
    146 H          -8.0251   -1.3475    1.2011 H       1  UNL1        0.0296
    147 H          -9.7493   -1.6608   -0.4957 H       1  UNL1        0.0377
    148 H          -9.3001   -3.1376    0.3453 H       1  UNL1        0.0377
    149 H          -8.7404   -2.5719   -4.3047 H       1  UNL1        0.0340
    150 H          -8.5422   -1.1410   -3.2372 H       1  UNL1        0.0340
    151 H          -7.1489   -2.2023   -3.5287 H       1  UNL1        0.0340
    152 H          -8.9408    0.4549    1.1664 H       1  UNL1        0.1495
    153 H          -9.0873    2.6348   -1.1130 H       1  UNL1        0.0600
    154 H         -11.4940    0.9044   -0.5441 H       1  UNL1        0.0401
    155 H         -10.3034    0.6652   -1.9407 H       1  UNL1        0.0401
    156 H         -13.1061    2.2110   -3.4830 H       1  UNL1        0.2951
    157 H         -10.1436    1.8656    2.2300 H       1  UNL1        0.1495
    158 H         -11.1688    4.6099    2.8808 H       1  UNL1        0.0598
    159 H         -12.9390    3.6019    4.2070 H       1  UNL1        0.0336
    160 H         -12.5492    1.9847    3.4576 H       1  UNL1        0.0336
    161 H         -13.8303    5.3703    2.8109 H       1  UNL1        0.0620
    162 H         -15.2550    6.0028    0.8896 H       1  UNL1        0.0618
    163 H         -15.6177    4.3312   -0.9822 H       1  UNL1        0.0618
    164 H         -14.5882    2.1894   -0.8475 H       1  UNL1        0.0618
    165 H         -13.1874    1.6135    1.0764 H       1  UNL1        0.0620
    166 H          -8.9787    2.0294    5.2099 H       1  UNL1        0.1450
    167 H          -8.9101    1.9816    5.1636 H       1  UNL1        0.1450
@<TRIPOS>BOND
     1     1     2    1
     2     2     3   am
     3     3     4    2
     4     3     5    1
     5     5     6    1
     6     6     7    1
     7     7     8   ar
     8     8     9   ar
     9     9    10   ar
    10    10    11    1
    11    11    12    1
    12    12    13    1
    13    12    14    2
    14    12    15    2
    15    10    16   ar
    16    16    17   ar
    17     5    18    1
    18    18    19   am
    19    19    20    2
    20    19    21    1
    21    21    22    1
    22    22    23    1
    23    23    24    1
    24    23    25    2
    25    21    26    1
    26    26    27   am
    27    27    28    2
    28    27    29    1
    29    29    30    1
    30    30    31    1
    31    31    32    1
    32    32    33   am
    33    32    34    2
    34    29    35    1
    35    35    36   am
    36    36    37    2
    37    36    38    1
    38    38    39    1
    39    39    40    1
    40    40    41    1
    41    41    42    2
    42    41    43   am
    43     1    44    1
    44    44    45    1
    45    44    46    1
    46     1    47    1
    47    47    48    2
    48    47    49   am
    49    49    50    1
    50    50    51    1
    51    51    52    2
    52    51    53   am
    53    53    54    1
    54    54    55    1
    55    55    56    1
    56    56    57   ar
    57    57    58   ar
    58    58    59   ar
    59    59    60   ar
    60    60    61   ar
    61    61    62   ar
    62    62    63   ar
    63    63    64   ar
    64    54    65    1
    65    65    66    2
    66    65    67   am
    67    67    68    1
    68    68    69    1
    69    69    70    1
    70    70    71    1
    71    71    72    1
    72    68    73    1
    73    73    74    2
    74    73    75   am
    75    75    76    1
    76    76    77    1
    77    77    78    1
    78    78    79    1
    79    78    80    2
    80    76    81    1
    81    81    82    2
    82    81    83   am
    83    83    84    1
    84    84    85    1
    85    85    86    1
    86    86    87   ar
    87    87    88   ar
    88    88    89   ar
    89    89    90   ar
    90    90    91   ar
    91    84    92    1
    92    92    93   am
    93    92    94    2
    94    17     7   ar
    95    43    38    1
    96    64    56   ar
    97    91    86   ar
    98    64    59   ar
    99     1    95    1
   100     2    96    1
   101     5    97    1
   102     6    98    1
   103     6    99    1
   104     8   100    1
   105     9   101    1
   106    13   102    1
   107    16   103    1
   108    17   104    1
   109    18   105    1
   110    21   106    1
   111    22   107    1
   112    22   108    1
   113    24   109    1
   114    26   110    1
   115    29   111    1
   116    30   112    1
   117    30   113    1
   118    31   114    1
   119    31   115    1
   120    33   116    1
   121    33   117    1
   122    35   118    1
   123    38   119    1
   124    39   120    1
   125    39   121    1
   126    40   122    1
   127    40   123    1
   128    43   124    1
   129    44   125    1
   130    45   126    1
   131    45   127    1
   132    45   128    1
   133    46   129    1
   134    49   130    1
   135    50   131    1
   136    50   132    1
   137    53   133    1
   138    54   134    1
   139    55   135    1
   140    55   136    1
   141    57   137    1
   142    58   138    1
   143    60   139    1
   144    61   140    1
   145    62   141    1
   146    63   142    1
   147    67   143    1
   148    68   144    1
   149    69   145    1
   150    69   146    1
   151    70   147    1
   152    70   148    1
   153    72   149    1
   154    72   150    1
   155    72   151    1
   156    75   152    1
   157    76   153    1
   158    77   154    1
   159    77   155    1
   160    79   156    1
   161    83   157    1
   162    84   158    1
   163    85   159    1
   164    85   160    1
   165    87   161    1
   166    88   162    1
   167    89   163    1
   168    90   164    1
   169    91   165    1
   170    93   166    1
   171    93   167    1
