@<TRIPOS>MOLECULE
*****
 55 59 0 0 0
SMALL
GASTEIGER

@<TRIPOS>ATOM
      1 C           2.2918   -0.6351    4.0982 C.3     1  UNL1       -0.0380
      2 C           2.4779   -0.3334    2.6431 C.ar    1  UNL1       -0.0292
      3 C           3.6900   -0.7046    2.0569 C.ar    1  UNL1       -0.0564
      4 C           3.9722   -0.4465    0.7330 C.ar    1  UNL1       -0.0493
      5 C           3.0665    0.1940   -0.0784 C.ar    1  UNL1        0.0385
      6 C           3.3350    0.4850   -1.4836 C.2     1  UNL1        0.2443
      7 O           2.4375    1.0683   -2.1669 O.2     1  UNL1       -0.2702
      8 N           4.5300    0.1662   -2.1558 N.am    1  UNL1       -0.3085
      9 C           4.7368    0.4896   -3.5769 C.3     1  UNL1        0.0235
     10 C           5.6687   -0.3162   -4.3660 C.3     1  UNL1       -0.0328
     11 C           6.0955    1.0763   -3.9402 C.3     1  UNL1       -0.0328
     12 C           1.8712    0.5598    0.4996 C.ar    1  UNL1       -0.0281
     13 C           1.5612    0.3055    1.8464 C.ar    1  UNL1        0.0361
     14 N           0.3128    0.6869    2.3827 N.pl3   1  UNL1       -0.2975
     15 C          -0.6834   -0.0544    3.0180 C.ar    1  UNL1        0.1506
     16 N          -0.6155   -0.3239    4.3551 N.ar    1  UNL1       -0.2167
     17 C          -1.5732   -1.0112    4.9439 C.ar    1  UNL1        0.1388
     18 N          -2.6522   -1.4792    4.2789 N.ar    1  UNL1       -0.1548
     19 N          -2.7733   -1.2487    2.9837 N.ar    1  UNL1       -0.2342
     20 C          -3.7603   -1.5998    2.1190 C.ar    1  UNL1        0.0411
     21 C          -3.4530   -1.1190    0.8675 C.ar    1  UNL1        0.0454
     22 C          -4.2962   -1.2670   -0.3143 C.2     1  UNL1        0.1949
     23 O          -4.7017   -2.4546   -0.6156 O.2     1  UNL1       -0.2866
     24 C          -4.7326   -0.2201   -1.1884 C.ar    1  UNL1        0.0223
     25 C          -4.8037    1.0937   -0.7767 C.ar    1  UNL1       -0.0509
     26 C          -5.2306    2.0575   -1.6682 C.ar    1  UNL1       -0.0611
     27 C          -5.5896    1.7444   -2.9627 C.ar    1  UNL1       -0.0617
     28 C          -5.5246    0.4453   -3.3862 C.ar    1  UNL1       -0.0611
     29 C          -5.0960   -0.5088   -2.4852 C.ar    1  UNL1       -0.0509
     30 C          -2.2497   -0.4761    1.0319 C.ar    1  UNL1       -0.0094
     31 C          -1.5072    0.1894   -0.0531 C.3     1  UNL1       -0.0369
     32 C          -1.8061   -0.5480    2.3612 C.ar    1  UNL1        0.1089
     33 H           1.7604   -1.5773    4.2852 H       1  UNL1        0.0278
     34 H           1.9754    0.2400    4.6636 H       1  UNL1        0.0278
     35 H           3.3315   -0.8509    4.5416 H       1  UNL1        0.0278
     36 H           4.4218   -1.2200    2.7011 H       1  UNL1        0.0621
     37 H           4.9254   -0.7548    0.3279 H       1  UNL1        0.0625
     38 H           5.2803   -0.3135   -1.6132 H       1  UNL1        0.1493
     39 H           3.8859    0.9805   -4.0493 H       1  UNL1        0.0498
     40 H           6.2229   -1.1875   -3.9095 H       1  UNL1        0.0284
     41 H           5.5570   -0.4367   -5.4518 H       1  UNL1        0.0284
     42 H           6.1103    1.8926   -4.6844 H       1  UNL1        0.0284
     43 H           6.8900    1.0975   -3.1912 H       1  UNL1        0.0284
     44 H           1.1532    1.0955   -0.1359 H       1  UNL1        0.0644
     45 H           0.1112    1.7383    2.2739 H       1  UNL1        0.1536
     46 H          -1.4858   -1.2093    6.0202 H       1  UNL1        0.1066
     47 H          -4.6506   -2.1622    2.3437 H       1  UNL1        0.0837
     48 H          -4.5288    1.3651    0.2308 H       1  UNL1        0.0625
     49 H          -5.3032    3.1067   -1.3880 H       1  UNL1        0.0618
     50 H          -5.9312    2.5078   -3.6795 H       1  UNL1        0.0618
     51 H          -5.8070    0.1985   -4.4061 H       1  UNL1        0.0618
     52 H          -5.0614   -1.5396   -2.8748 H       1  UNL1        0.0625
     53 H          -1.1293    1.1575    0.3090 H       1  UNL1        0.0278
     54 H          -2.1035    0.3820   -0.9435 H       1  UNL1        0.0278
     55 H          -0.6229   -0.4322   -0.3707 H       1  UNL1        0.0278
@<TRIPOS>BOND
     1     1     2    1
     2     2     3   ar
     3     3     4   ar
     4     4     5   ar
     5     5     6    1
     6     6     7    2
     7     6     8   am
     8     8     9    1
     9     9    10    1
    10    10    11    1
    11     5    12   ar
    12    12    13   ar
    13    13    14    1
    14    14    15    1
    15    15    16   ar
    16    16    17   ar
    17    17    18   ar
    18    18    19   ar
    19    19    20   ar
    20    20    21   ar
    21    21    22    1
    22    22    23    2
    23    22    24    1
    24    24    25   ar
    25    25    26   ar
    26    26    27   ar
    27    27    28   ar
    28    28    29   ar
    29    21    30   ar
    30    30    31    1
    31    30    32   ar
    32    13     2   ar
    33    32    15   ar
    34    11     9    1
    35    32    19   ar
    36    29    24   ar
    37     1    33    1
    38     1    34    1
    39     1    35    1
    40     3    36    1
    41     4    37    1
    42     8    38    1
    43     9    39    1
    44    10    40    1
    45    10    41    1
    46    11    42    1
    47    11    43    1
    48    12    44    1
    49    14    45    1
    50    17    46    1
    51    20    47    1
    52    25    48    1
    53    26    49    1
    54    27    50    1
    55    28    51    1
    56    29    52    1
    57    31    53    1
    58    31    54    1
    59    31    55    1
