@<TRIPOS>MOLECULE
*****
 56 58 0 0 0
SMALL
GASTEIGER

@<TRIPOS>ATOM
      1 C          -6.1998   -5.4071    2.6209 C.3     1  UNL1       -0.0319
      2 C          -4.9034   -4.8094    2.1855 C.ar    1  UNL1        0.0068
      3 C          -3.6268   -5.2590    2.1706 C.ar    1  UNL1        0.0383
      4 N          -2.7280   -4.4238    1.7045 N.ar    1  UNL1       -0.2471
      5 C          -2.8612   -3.3465    1.2985 C.ar    1  UNL1        0.1086
      6 C          -2.1056   -2.1856    0.7252 C.ar    1  UNL1        0.0113
      7 C          -2.7275   -1.0254    0.3528 C.ar    1  UNL1       -0.0102
      8 C          -2.0404    0.0512   -0.1748 C.ar    1  UNL1        0.1224
      9 O          -2.7083    1.1880   -0.5313 O.3     1  UNL1       -0.4865
     10 C          -2.2342    2.3666   -1.0681 C.3     1  UNL1        0.1228
     11 C          -2.5294    3.5830   -0.2119 C.3     1  UNL1       -0.0253
     12 C          -2.9215    2.5391   -2.4301 C.3     1  UNL1        0.0889
     13 C          -2.3912    3.7404   -3.1575 C.3     1  UNL1       -0.0355
     14 O          -4.2709    2.5914   -2.1923 O.3     1  UNL1       -0.3884
     15 C          -0.6827   -0.1052   -0.3078 C.ar    1  UNL1       -0.0078
     16 C          -0.0236   -1.2782    0.0646 C.ar    1  UNL1        0.0408
     17 C           1.4115   -1.4024   -0.0906 C.2     1  UNL1        0.2447
     18 O           1.9774   -2.4932    0.2648 O.2     1  UNL1       -0.2702
     19 N           2.2829   -0.4274   -0.6050 N.am    1  UNL1       -0.3047
     20 C           3.7296   -0.6353   -0.7279 C.3     1  UNL1        0.0487
     21 C           4.0692   -0.6624   -2.1954 C.3     1  UNL1       -0.0423
     22 C           4.5032    0.3239    0.0481 C.ar    1  UNL1        0.0087
     23 C           5.5733   -0.0806    0.8241 C.ar    1  UNL1        0.0363
     24 N           6.2970    0.8081    1.5469 N.ar    1  UNL1       -0.2321
     25 C           5.9985    2.1148    1.5340 C.ar    1  UNL1        0.2339
     26 C           6.8284    3.0597    2.3502 C.3     1  UNL1        0.4522
     27 F           8.1421    2.6129    2.3134 F       1  UNL1       -0.1632
     28 F           6.3778    3.1757    3.6298 F       1  UNL1       -0.1632
     29 F           6.7638    4.2914    1.7191 F       1  UNL1       -0.1632
     30 N           4.9669    2.5542    0.7943 N.ar    1  UNL1       -0.2321
     31 C           4.2357    1.6936    0.0704 C.ar    1  UNL1        0.0363
     32 C          -0.7432   -2.3219    0.5836 C.ar    1  UNL1       -0.0397
     33 S          -4.7256   -3.1392    1.4980 S.2     1  UNL1       -0.0725
     34 H          -6.6557   -5.8954    1.7221 H       1  UNL1        0.0283
     35 H          -6.9197   -4.5981    2.9327 H       1  UNL1        0.0283
     36 H          -6.0324   -6.0922    3.4588 H       1  UNL1        0.0283
     37 H          -3.3848   -6.2778    2.5373 H       1  UNL1        0.0838
     38 H          -3.7934   -0.9423    0.4731 H       1  UNL1        0.0661
     39 H          -1.1409    2.3395   -1.2172 H       1  UNL1        0.0756
     40 H          -2.2429    3.4114    0.8333 H       1  UNL1        0.0266
     41 H          -3.5696    3.9225   -0.3193 H       1  UNL1        0.0266
     42 H          -1.8798    4.4081   -0.5939 H       1  UNL1        0.0266
     43 H          -2.6407    1.6332   -3.0041 H       1  UNL1        0.0627
     44 H          -1.2858    3.7156   -3.2307 H       1  UNL1        0.0256
     45 H          -2.7706    4.6930   -2.7127 H       1  UNL1        0.0256
     46 H          -2.7857    3.7155   -4.1944 H       1  UNL1        0.0256
     47 H          -4.6754    3.2307   -2.8366 H       1  UNL1        0.2099
     48 H          -0.1018    0.7053   -0.7141 H       1  UNL1        0.0662
     49 H           1.8845    0.4855   -0.9136 H       1  UNL1        0.1496
     50 H           3.9233   -1.6556   -0.3374 H       1  UNL1        0.0546
     51 H           3.2557   -1.2206   -2.7032 H       1  UNL1        0.0251
     52 H           4.1312    0.3251   -2.6541 H       1  UNL1        0.0251
     53 H           4.9997   -1.2722   -2.3651 H       1  UNL1        0.0251
     54 H           5.8324   -1.1228    0.8507 H       1  UNL1        0.0834
     55 H           3.4186    2.0608   -0.5119 H       1  UNL1        0.0834
     56 H          -0.3004   -3.2607    0.8935 H       1  UNL1        0.0632
@<TRIPOS>BOND
     1     1     2    1
     2     2     3   ar
     3     3     4   ar
     4     4     5   ar
     5     5     6    1
     6     6     7   ar
     7     7     8   ar
     8     8     9    1
     9     9    10    1
    10    10    11    1
    11    10    12    1
    12    12    13    1
    13    12    14    1
    14     8    15   ar
    15    15    16   ar
    16    16    17    1
    17    17    18    2
    18    17    19   am
    19    19    20    1
    20    20    21    1
    21    20    22    1
    22    22    23   ar
    23    23    24   ar
    24    24    25   ar
    25    25    26    1
    26    26    27    1
    27    26    28    1
    28    26    29    1
    29    25    30   ar
    30    30    31   ar
    31    16    32   ar
    32     5    33   ar
    33    33     2   ar
    34    32     6   ar
    35    31    22   ar
    36     1    34    1
    37     1    35    1
    38     1    36    1
    39     3    37    1
    40     7    38    1
    41    10    39    1
    42    11    40    1
    43    11    41    1
    44    11    42    1
    45    12    43    1
    46    13    44    1
    47    13    45    1
    48    13    46    1
    49    14    47    1
    50    15    48    1
    51    19    49    1
    52    20    50    1
    53    21    51    1
    54    21    52    1
    55    21    53    1
    56    23    54    1
    57    31    55    1
    58    32    56    1
