@<TRIPOS>MOLECULE
*****
 47 48 0 0 0
SMALL
GASTEIGER

@<TRIPOS>ATOM
      1 C           6.0197   -0.7015   -0.0031 C.3     1  UNL1        0.0788
      2 O           4.9204   -0.3778    0.8007 O.3     1  UNL1       -0.4951
      3 C           3.6493   -0.2530    0.3038 C.ar    1  UNL1        0.1201
      4 C           3.2189   -0.4061   -0.9862 C.ar    1  UNL1       -0.0197
      5 C           1.8838   -0.2418   -1.3166 C.ar    1  UNL1       -0.0547
      6 C           0.8749    0.0862   -0.3950 C.ar    1  UNL1       -0.0401
      7 C           1.3803    0.2233    0.8736 C.ar    1  UNL1       -0.0547
      8 C           2.6967    0.0696    1.2480 C.ar    1  UNL1       -0.0197
      9 C          -0.4953    0.2126   -0.8755 C.3     1  UNL1        0.0257
     10 C          -1.0106    1.5803   -1.1577 C.3     1  UNL1        0.0078
     11 N          -1.0578    2.5397   -0.1372 N.3     1  UNL1       -0.3077
     12 C           0.1980    3.0572    0.3178 C.3     1  UNL1       -0.0130
     13 C          -1.9230    3.6375   -0.5042 C.3     1  UNL1       -0.0130
     14 C          -1.5091   -0.6733   -0.2155 C.3     1  UNL1        0.0740
     15 O          -2.7391   -0.3687   -0.8426 O.3     1  UNL1       -0.3879
     16 C          -1.2394   -2.1184   -0.5440 C.3     1  UNL1       -0.0234
     17 C          -2.1709   -3.0737    0.1169 C.3     1  UNL1       -0.0504
     18 C          -3.0143   -2.5951    1.2196 C.3     1  UNL1       -0.0529
     19 C          -3.0894   -1.1422    1.4908 C.3     1  UNL1       -0.0504
     20 C          -1.6986   -0.5263    1.2433 C.3     1  UNL1       -0.0234
     21 H           6.9372   -0.1754    0.3672 H       1  UNL1        0.0660
     22 H           6.2390   -1.7887    0.1666 H       1  UNL1        0.0660
     23 H           5.8701   -0.4294   -1.0483 H       1  UNL1        0.0660
     24 H           3.9727   -0.6590   -1.7153 H       1  UNL1        0.0654
     25 H           1.6926   -0.3965   -2.3890 H       1  UNL1        0.0622
     26 H           0.6542    0.4792    1.6326 H       1  UNL1        0.0622
     27 H           2.9371    0.2152    2.3140 H       1  UNL1        0.0654
     28 H          -0.4485   -0.2454   -1.9419 H       1  UNL1        0.0389
     29 H          -2.0493    1.4353   -1.5833 H       1  UNL1        0.0433
     30 H          -0.4509    2.0504   -2.0298 H       1  UNL1        0.0433
     31 H           1.0684    2.7867   -0.3137 H       1  UNL1        0.0391
     32 H           0.3239    2.8280    1.3958 H       1  UNL1        0.0391
     33 H           0.1521    4.1900    0.2370 H       1  UNL1        0.0391
     34 H          -1.5287    4.0896   -1.4566 H       1  UNL1        0.0391
     35 H          -2.9739    3.2970   -0.6852 H       1  UNL1        0.0391
     36 H          -1.9142    4.4236    0.2634 H       1  UNL1        0.0391
     37 H          -2.7886   -0.7408   -1.7376 H       1  UNL1        0.2102
     38 H          -0.1745   -2.3176   -0.2740 H       1  UNL1        0.0293
     39 H          -1.2870   -2.2036   -1.6498 H       1  UNL1        0.0293
     40 H          -1.5466   -3.9355    0.4986 H       1  UNL1        0.0266
     41 H          -2.7891   -3.5726   -0.6844 H       1  UNL1        0.0266
     42 H          -4.0807   -2.9256    1.0318 H       1  UNL1        0.0265
     43 H          -2.7754   -3.1183    2.1937 H       1  UNL1        0.0265
     44 H          -3.4155   -0.9895    2.5306 H       1  UNL1        0.0266
     45 H          -3.7596   -0.5799    0.8288 H       1  UNL1        0.0266
     46 H          -1.0265   -1.1716    1.8551 H       1  UNL1        0.0293
     47 H          -1.7330    0.5262    1.5570 H       1  UNL1        0.0293
@<TRIPOS>BOND
     1     1     2    1
     2     2     3    1
     3     3     4   ar
     4     4     5   ar
     5     5     6   ar
     6     6     7   ar
     7     7     8   ar
     8     6     9    1
     9     9    10    1
    10    10    11    1
    11    11    12    1
    12    11    13    1
    13     9    14    1
    14    14    15    1
    15    14    16    1
    16    16    17    1
    17    17    18    1
    18    18    19    1
    19    19    20    1
    20     8     3   ar
    21    20    14    1
    22     1    21    1
    23     1    22    1
    24     1    23    1
    25     4    24    1
    26     5    25    1
    27     7    26    1
    28     8    27    1
    29     9    28    1
    30    10    29    1
    31    10    30    1
    32    12    31    1
    33    12    32    1
    34    12    33    1
    35    13    34    1
    36    13    35    1
    37    13    36    1
    38    15    37    1
    39    16    38    1
    40    16    39    1
    41    17    40    1
    42    17    41    1
    43    18    42    1
    44    18    43    1
    45    19    44    1
    46    19    45    1
    47    20    46    1
    48    20    47    1
