@<TRIPOS>MOLECULE
*****
 111 116 0 0 0
SMALL
GASTEIGER

@<TRIPOS>ATOM
      1 C          -5.7367    1.4574   -2.6672 C.3     1  UNL1        0.1035
      2 C          -5.4005    2.8789   -2.6060 C.3     1  UNL1        0.0043
      3 C          -4.2804    3.2280   -1.6731 C.3     1  UNL1        0.0704
      4 O          -3.9162    4.4810   -2.0406 O.3     1  UNL1       -0.3907
      5 C          -3.1219    2.1796   -1.7406 C.3     1  UNL1        0.0651
      6 C          -2.7502    2.2422   -3.1834 C.3     1  UNL1       -0.0498
      7 C          -2.0860    2.9965   -1.0276 C.2     1  UNL1        0.1745
      8 O          -2.3040    4.2114   -0.7641 O.2     1  UNL1       -0.2936
      9 C          -0.6607    2.8598   -0.4260 C.3     1  UNL1        0.1356
     10 O           0.2142    3.7225   -0.9804 O.3     1  UNL1       -0.3799
     11 C          -0.3340    1.5227   -0.0580 C.2     1  UNL1       -0.0234
     12 C           0.7475    0.9600   -0.5326 C.2     1  UNL1       -0.0299
     13 C           1.8082    1.9659   -0.7213 C.3     1  UNL1       -0.0400
     14 C           0.6848   -0.5248   -0.8095 C.3     1  UNL1        0.1271
     15 C          -0.6449   -1.1965   -0.5555 C.3     1  UNL1        0.0215
     16 C          -1.6650   -0.1612   -0.4206 C.3     1  UNL1        0.1156
     17 O          -1.3894    0.4369   -1.7063 O.3     1  UNL1       -0.3839
     18 C          -3.0954   -0.2342   -0.6810 C.3     1  UNL1        0.1404
     19 O          -3.8094   -0.7848    0.4380 O.3     1  UNL1       -0.4545
     20 C          -4.3826   -2.0108    0.5073 C.2     1  UNL1        0.3395
     21 O          -4.3125   -2.7869   -0.5003 O.2     1  UNL1       -0.2449
     22 C          -5.0826   -2.4941    1.6951 C.ar    1  UNL1        0.0590
     23 C          -5.6310   -3.7730    1.6774 C.ar    1  UNL1       -0.0478
     24 C          -6.2678   -4.1827    2.8159 C.ar    1  UNL1       -0.0610
     25 C          -6.4212   -3.4646    3.9706 C.ar    1  UNL1       -0.0617
     26 C          -5.8608   -2.2027    3.9384 C.ar    1  UNL1       -0.0610
     27 C          -5.1894   -1.6970    2.8176 C.ar    1  UNL1       -0.0478
     28 C          -3.7335    1.0188   -1.1389 C.3     1  UNL1        0.0580
     29 C          -5.0221    0.5106   -1.7803 C.3     1  UNL1        0.1696
     30 C          -4.9363   -0.3025   -2.9682 C.3     1  UNL1        0.0909
     31 O          -5.4417    0.7235   -3.8061 O.3     1  UNL1       -0.3684
     32 O          -5.8250   -0.0293   -0.7425 O.3     1  UNL1       -0.4528
     33 C          -7.0251   -0.6791   -0.9249 C.2     1  UNL1        0.3046
     34 C          -7.9403   -1.2918    0.0475 C.3     1  UNL1        0.0333
     35 O          -7.4835   -0.8136   -2.0796 O.2     1  UNL1       -0.2511
     36 C          -1.2204    0.5959    0.7753 C.3     1  UNL1        0.0216
     37 C          -2.2312    1.3493    1.5814 C.3     1  UNL1       -0.0532
     38 C          -0.4665   -0.1776    1.8147 C.3     1  UNL1       -0.0532
     39 O           1.7905   -1.2151   -0.4363 O.3     1  UNL1       -0.4550
     40 C           2.8532   -1.7647   -1.0652 C.2     1  UNL1        0.3388
     41 O           2.7582   -1.5456   -2.3209 O.2     1  UNL1       -0.2478
     42 C           3.8485   -2.4666   -0.2178 C.3     1  UNL1        0.1741
     43 O           3.4253   -2.5350    1.1395 O.3     1  UNL1       -0.3786
     44 C           5.2079   -1.8837   -0.1886 C.3     1  UNL1        0.0878
     45 N           5.3376   -0.5643    0.3538 N.am    1  UNL1       -0.2712
     46 C           6.3532    0.3414   -0.0540 C.2     1  UNL1        0.4013
     47 O           7.0902   -0.2313   -0.9369 O.2     1  UNL1       -0.2264
     48 O           6.5994    1.6202    0.3546 O.3     1  UNL1       -0.4447
     49 C           7.6700    2.4067   -0.1163 C.3     1  UNL1        0.1068
     50 C           8.9776    1.7299    0.2844 C.3     1  UNL1       -0.0253
     51 C           7.5865    3.7648    0.5473 C.3     1  UNL1       -0.0253
     52 C           7.6347    2.6262   -1.6180 C.3     1  UNL1       -0.0253
     53 C           6.0383   -2.8600    0.6449 C.ar    1  UNL1       -0.0241
     54 C           6.7981   -3.8440    0.0583 C.ar    1  UNL1       -0.0567
     55 C           7.5680   -4.7596    0.7331 C.ar    1  UNL1       -0.0614
     56 C           7.5435   -4.6394    2.1209 C.ar    1  UNL1       -0.0617
     57 C           6.8037   -3.6734    2.7919 C.ar    1  UNL1       -0.0614
     58 C           6.0640   -2.8024    2.0217 C.ar    1  UNL1       -0.0567
     59 H          -6.8745    1.3813   -2.5776 H       1  UNL1        0.0638
     60 H          -6.2524    3.5283   -2.2201 H       1  UNL1        0.0317
     61 H          -5.2721    3.2749   -3.6378 H       1  UNL1        0.0317
     62 H          -4.6553    3.2012   -0.6358 H       1  UNL1        0.0604
     63 H          -4.3122    5.2112   -1.5345 H       1  UNL1        0.2098
     64 H          -2.8135    1.3648   -3.8003 H       1  UNL1        0.0240
     65 H          -3.2784    3.0368   -3.7884 H       1  UNL1        0.0240
     66 H          -1.6720    2.5846   -3.3289 H       1  UNL1        0.0240
     67 H          -0.8376    3.3961    0.5364 H       1  UNL1        0.0721
     68 H          -0.2172    4.1253   -1.7761 H       1  UNL1        0.2108
     69 H           1.9056    2.3383   -1.7565 H       1  UNL1        0.0276
     70 H           1.9762    2.6595    0.0932 H       1  UNL1        0.0276
     71 H           2.7821    1.3738   -0.6615 H       1  UNL1        0.0276
     72 H           0.7684   -0.5172   -1.9500 H       1  UNL1        0.0783
     73 H          -0.5815   -1.9466    0.2597 H       1  UNL1        0.0334
     74 H          -0.9400   -1.8476   -1.4468 H       1  UNL1        0.0334
     75 H          -1.5380   -0.2358   -2.3825 H       1  UNL1        0.2104
     76 H          -3.2252   -1.0292   -1.4540 H       1  UNL1        0.0768
     77 H          -5.5569   -4.4116    0.8062 H       1  UNL1        0.0626
     78 H          -6.6894   -5.2016    2.7598 H       1  UNL1        0.0618
     79 H          -6.9293   -3.8155    4.8567 H       1  UNL1        0.0618
     80 H          -5.9306   -1.5551    4.8089 H       1  UNL1        0.0618
     81 H          -4.7818   -0.7127    2.8663 H       1  UNL1        0.0626
     82 H          -4.1701    1.4384   -0.1719 H       1  UNL1        0.0388
     83 H          -5.5869   -1.1810   -3.0890 H       1  UNL1        0.0601
     84 H          -3.9354   -0.6707   -3.3160 H       1  UNL1        0.0601
     85 H          -7.6137   -1.0299    1.0753 H       1  UNL1        0.0342
     86 H          -7.9691   -2.4082   -0.0530 H       1  UNL1        0.0342
     87 H          -8.9867   -0.9365   -0.0550 H       1  UNL1        0.0342
     88 H          -2.5176    2.3404    1.2323 H       1  UNL1        0.0239
     89 H          -1.6990    1.6615    2.5501 H       1  UNL1        0.0239
     90 H          -3.0114    0.7086    1.9573 H       1  UNL1        0.0239
     91 H          -0.5576    0.3546    2.8237 H       1  UNL1        0.0239
     92 H          -1.0659   -1.0971    2.0113 H       1  UNL1        0.0239
     93 H           0.5907   -0.2858    1.7254 H       1  UNL1        0.0239
     94 H           3.9715   -3.5431   -0.5033 H       1  UNL1        0.0733
     95 H           2.4235   -2.5742    1.1221 H       1  UNL1        0.2106
     96 H           5.7074   -1.9284   -1.1688 H       1  UNL1        0.0581
     97 H           4.6816   -0.1729    1.0994 H       1  UNL1        0.1527
     98 H           9.0259    0.7218   -0.1285 H       1  UNL1        0.0268
     99 H           8.9187    1.6898    1.4164 H       1  UNL1        0.0268
    100 H           9.8050    2.3841   -0.0219 H       1  UNL1        0.0268
    101 H           6.5902    3.9340    0.9708 H       1  UNL1        0.0268
    102 H           8.3970    3.9047    1.3014 H       1  UNL1        0.0268
    103 H           7.7580    4.5607   -0.2266 H       1  UNL1        0.0268
    104 H           8.7087    2.5996   -1.9423 H       1  UNL1        0.0268
    105 H           7.0709    1.8836   -2.1761 H       1  UNL1        0.0268
    106 H           7.2736    3.6392   -1.8977 H       1  UNL1        0.0268
    107 H           6.7995   -3.9176   -1.0204 H       1  UNL1        0.0621
    108 H           8.1391   -5.5052    0.2005 H       1  UNL1        0.0618
    109 H           8.1484   -5.3586    2.6705 H       1  UNL1        0.0618
    110 H           6.8079   -3.6075    3.8735 H       1  UNL1        0.0618
    111 H           5.4870   -2.0452    2.5339 H       1  UNL1        0.0621
@<TRIPOS>BOND
     1     1     2    1
     2     2     3    1
     3     3     4    1
     4     3     5    1
     5     5     6    1
     6     5     7    1
     7     7     8    2
     8     7     9    1
     9     9    10    1
    10     9    11    1
    11    11    12    2
    12    12    13    1
    13    12    14    1
    14    14    15    1
    15    15    16    1
    16    16    17    1
    17    16    18    1
    18    18    19    1
    19    19    20    1
    20    20    21    2
    21    20    22    1
    22    22    23   ar
    23    23    24   ar
    24    24    25   ar
    25    25    26   ar
    26    26    27   ar
    27    18    28    1
    28    28    29    1
    29    29    30    1
    30    30    31    1
    31    29    32    1
    32    32    33    1
    33    33    34    1
    34    33    35    2
    35    16    36    1
    36    36    37    1
    37    36    38    1
    38    14    39    1
    39    39    40    1
    40    40    41    2
    41    40    42    1
    42    42    43    1
    43    42    44    1
    44    44    45    1
    45    45    46   am
    46    46    47    2
    47    46    48    1
    48    48    49    1
    49    49    50    1
    50    49    51    1
    51    49    52    1
    52    44    53    1
    53    53    54   ar
    54    54    55   ar
    55    55    56   ar
    56    56    57   ar
    57    57    58   ar
    58    29     1    1
    59    58    53   ar
    60    31     1    1
    61    28     5    1
    62    36    11    1
    63    27    22   ar
    64     1    59    1
    65     2    60    1
    66     2    61    1
    67     3    62    1
    68     4    63    1
    69     6    64    1
    70     6    65    1
    71     6    66    1
    72     9    67    1
    73    10    68    1
    74    13    69    1
    75    13    70    1
    76    13    71    1
    77    14    72    1
    78    15    73    1
    79    15    74    1
    80    17    75    1
    81    18    76    1
    82    23    77    1
    83    24    78    1
    84    25    79    1
    85    26    80    1
    86    27    81    1
    87    28    82    1
    88    30    83    1
    89    30    84    1
    90    34    85    1
    91    34    86    1
    92    34    87    1
    93    37    88    1
    94    37    89    1
    95    37    90    1
    96    38    91    1
    97    38    92    1
    98    38    93    1
    99    42    94    1
   100    43    95    1
   101    44    96    1
   102    45    97    1
   103    50    98    1
   104    50    99    1
   105    50   100    1
   106    51   101    1
   107    51   102    1
   108    51   103    1
   109    52   104    1
   110    52   105    1
   111    52   106    1
   112    54   107    1
   113    55   108    1
   114    56   109    1
   115    57   110    1
   116    58   111    1
