
     RDKit          3D

 41 44  0  0  0  0  0  0  0  0999 V2000
    5.5278    0.1410    0.0631 C   0  0  0  0  0  0  0  0  0  0  0  0
    5.0950    1.4375    0.6668 C   0  0  0  0  0  0  0  0  0  0  0  0
    4.6143    1.3059    2.0889 C   0  0  0  0  0  0  0  0  0  0  0  0
    4.0573    2.0149   -0.1642 N   0  0  0  0  0  0  0  0  0  0  0  0
    2.9603    1.1628   -0.2463 C   0  0  0  0  0  0  0  0  0  0  0  0
    2.5998    0.0256    0.1948 N   0  0  0  0  0  0  0  0  0  0  0  0
    1.4119   -0.4585   -0.1338 C   0  0  0  0  0  0  0  0  0  0  0  0
    0.4857    0.2625   -0.9900 C   0  0  0  0  0  0  0  0  0  0  0  0
    1.4900    1.7484   -1.3000 S   0  0  0  0  0  0  0  0  0  0  0  0
   -0.7370   -0.2185   -1.3371 C   0  0  0  0  0  0  0  0  0  0  0  0
   -1.1553   -1.4479   -0.8742 C   0  0  0  0  0  0  0  0  0  0  0  0
   -0.2814   -2.1396   -0.0603 C   0  0  0  0  0  0  0  0  0  0  0  0
    0.9565   -1.6833    0.3083 C   0  0  0  0  0  0  0  0  0  0  0  0
   -2.4806   -1.8558   -1.3134 C   0  0  0  0  0  0  0  0  0  0  0  0
   -3.7456   -1.3383   -1.1276 C   0  0  0  0  0  0  0  0  0  0  0  0
   -4.5821   -2.1771   -1.7928 N   0  0  0  0  0  0  0  0  0  0  0  0
   -3.8435   -3.1571   -2.3538 C   0  0  0  0  0  0  0  0  0  0  0  0
   -2.5840   -2.9401   -2.0501 O   0  0  0  0  0  0  0  0  0  0  0  0
   -3.9726   -0.1262   -0.3472 C   0  0  0  0  0  0  0  0  0  0  0  0
   -3.6009   -0.2761    0.9753 C   0  0  0  0  0  0  0  0  0  0  0  0
   -3.7527    0.7908    1.8599 C   0  0  0  0  0  0  0  0  0  0  0  0
   -4.2744    1.9617    1.3631 C   0  0  0  0  0  0  0  0  0  0  0  0
   -4.6546    2.1361    0.0408 C   0  0  0  0  0  0  0  0  0  0  0  0
   -4.4945    1.0634   -0.8175 C   0  0  0  0  0  0  0  0  0  0  0  0
   -4.8182    1.0702   -2.1437 F   0  0  0  0  0  0  0  0  0  0  0  0
    5.7944   -0.6462    0.8180 H   0  0  0  0  0  0  0  0  0  0  0  0
    6.4683    0.3118   -0.5096 H   0  0  0  0  0  0  0  0  0  0  0  0
    4.8004   -0.3131   -0.6384 H   0  0  0  0  0  0  0  0  0  0  0  0
    5.9745    2.1395    0.7161 H   0  0  0  0  0  0  0  0  0  0  0  0
    4.2469    2.3002    2.4132 H   0  0  0  0  0  0  0  0  0  0  0  0
    5.4943    1.0804    2.7494 H   0  0  0  0  0  0  0  0  0  0  0  0
    3.8546    0.5421    2.2497 H   0  0  0  0  0  0  0  0  0  0  0  0
    4.1336    2.9410   -0.6306 H   0  0  0  0  0  0  0  0  0  0  0  0
   -1.2329    0.4854   -1.9695 H   0  0  0  0  0  0  0  0  0  0  0  0
   -0.6921   -3.1091    0.2648 H   0  0  0  0  0  0  0  0  0  0  0  0
    1.4871   -2.3813    0.9546 H   0  0  0  0  0  0  0  0  0  0  0  0
   -4.4366   -3.8715   -2.9055 H   0  0  0  0  0  0  0  0  0  0  0  0
   -3.1840   -1.1812    1.4137 H   0  0  0  0  0  0  0  0  0  0  0  0
   -3.4696    0.6973    2.8963 H   0  0  0  0  0  0  0  0  0  0  0  0
   -4.3963    2.7933    2.0376 H   0  0  0  0  0  0  0  0  0  0  0  0
   -5.0635    3.0400   -0.3689 H   0  0  0  0  0  0  0  0  0  0  0  0
  1  2  1  0
  2  3  1  0
  2  4  1  0
  4  5  1  0
  5  6  2  0
  6  7  1  0
  7  8  2  0
  8  9  1  0
  8 10  1  0
 10 11  2  0
 11 12  1  0
 12 13  2  0
 11 14  1  0
 14 15  2  0
 15 16  1  0
 16 17  2  0
 17 18  1  0
 15 19  1  0
 19 20  2  0
 20 21  1  0
 21 22  2  0
 22 23  1  0
 23 24  2  0
 24 25  1  0
  9  5  1  0
 18 14  1  0
 24 19  1  0
 13  7  1  0
  1 26  1  0
  1 27  1  0
  1 28  1  0
  2 29  1  0
  3 30  1  0
  3 31  1  0
  3 32  1  0
  4 33  1  0
 10 34  1  0
 12 35  1  0
 13 36  1  0
 17 37  1  0
 20 38  1  0
 21 39  1  0
 22 40  1  0
 23 41  1  0
M  END
$$$$
