
     RDKit          3D

 37 42  0  0  0  0  0  0  0  0999 V2000
   -2.4204   -2.6829    1.6466 O   0  0  0  0  0  0  0  0  0  0  0  0
   -1.2611   -2.3596    1.3255 C   0  0  0  0  0  0  0  0  0  0  0  0
   -0.1002   -3.1949    1.5590 N   0  0  0  0  0  0  0  0  0  0  0  0
    1.0886   -2.5462    1.1012 C   0  0  0  0  0  0  0  0  0  0  0  0
    0.5970   -1.2732    0.5398 C   0  0  0  0  0  0  0  0  0  0  0  0
   -0.7921   -1.1749    0.6910 C   0  0  0  0  0  0  0  0  0  0  0  0
   -1.4241   -0.0273    0.2230 C   0  0  0  0  0  0  0  0  0  0  0  0
   -2.7442    0.3624    0.2232 C   0  0  0  0  0  0  0  0  0  0  0  0
   -3.9390   -0.1555    0.6476 C   0  0  0  0  0  0  0  0  0  0  0  0
   -5.1384    0.5190    0.4920 C   0  0  0  0  0  0  0  0  0  0  0  0
   -5.1846    1.7448   -0.0983 C   0  0  0  0  0  0  0  0  0  0  0  0
   -4.0009    2.2948   -0.5367 C   0  0  0  0  0  0  0  0  0  0  0  0
   -2.7987    1.6057   -0.3744 C   0  0  0  0  0  0  0  0  0  0  0  0
   -1.5469    1.9341   -0.7144 N   0  0  0  0  0  0  0  0  0  0  0  0
   -0.6673    0.9771   -0.3750 C   0  0  0  0  0  0  0  0  0  0  0  0
    0.7001    0.8508   -0.5101 C   0  0  0  0  0  0  0  0  0  0  0  0
    1.6428    1.6405   -1.0315 N   0  0  0  0  0  0  0  0  0  0  0  0
    2.8582    1.0479   -0.9184 C   0  0  0  0  0  0  0  0  0  0  0  0
    4.1181    1.4545   -1.2998 C   0  0  0  0  0  0  0  0  0  0  0  0
    5.1953    0.6374   -1.0581 C   0  0  0  0  0  0  0  0  0  0  0  0
    5.0167   -0.6024   -0.4279 C   0  0  0  0  0  0  0  0  0  0  0  0
    3.7637   -1.0091   -0.0475 C   0  0  0  0  0  0  0  0  0  0  0  0
    2.6906   -0.1912   -0.2900 C   0  0  0  0  0  0  0  0  0  0  0  0
    1.3294   -0.2760   -0.0516 C   0  0  0  0  0  0  0  0  0  0  0  0
   -0.1973   -4.1478    2.0132 H   0  0  0  0  0  0  0  0  0  0  0  0
    1.5077   -3.1819    0.2666 H   0  0  0  0  0  0  0  0  0  0  0  0
    1.8370   -2.4091    1.9057 H   0  0  0  0  0  0  0  0  0  0  0  0
   -3.9930   -1.0941    1.1131 H   0  0  0  0  0  0  0  0  0  0  0  0
   -6.0565    0.0759    0.8401 H   0  0  0  0  0  0  0  0  0  0  0  0
   -6.1361    2.2870   -0.2252 H   0  0  0  0  0  0  0  0  0  0  0  0
   -4.0444    3.2670   -1.0039 H   0  0  0  0  0  0  0  0  0  0  0  0
   -1.2739    2.8134   -1.1819 H   0  0  0  0  0  0  0  0  0  0  0  0
    1.4245    2.5840   -1.4600 H   0  0  0  0  0  0  0  0  0  0  0  0
    4.2050    2.4122   -1.7792 H   0  0  0  0  0  0  0  0  0  0  0  0
    6.1770    0.9513   -1.3538 H   0  0  0  0  0  0  0  0  0  0  0  0
    5.9168   -1.1790   -0.2778 H   0  0  0  0  0  0  0  0  0  0  0  0
    3.6507   -1.9545    0.4283 H   0  0  0  0  0  0  0  0  0  0  0  0
  1  2  2  0
  2  3  1  0
  3  4  1  0
  4  5  1  0
  5  6  2  0
  6  7  1  0
  7  8  1  0
  8  9  2  0
  9 10  1  0
 10 11  2  0
 11 12  1  0
 12 13  2  0
 13 14  1  0
 14 15  1  0
 15 16  1  0
 16 17  1  0
 17 18  1  0
 18 19  2  0
 19 20  1  0
 20 21  2  0
 21 22  1  0
 22 23  2  0
 23 24  1  0
  6  2  1  0
 15  7  2  0
 24 16  2  0
 24  5  1  0
 13  8  1  0
 23 18  1  0
  3 25  1  0
  4 26  1  0
  4 27  1  0
  9 28  1  0
 10 29  1  0
 11 30  1  0
 12 31  1  0
 14 32  1  0
 17 33  1  0
 19 34  1  0
 20 35  1  0
 21 36  1  0
 22 37  1  0
M  END
$$$$
