@<TRIPOS>MOLECULE
*****
 37 42 0 0 0
SMALL
GASTEIGER

@<TRIPOS>ATOM
      1 O          -2.4204   -2.6829    1.6466 O.2     1  UNL1       -0.2702
      2 C          -1.2611   -2.3596    1.3255 C.2     1  UNL1        0.2453
      3 N          -0.1002   -3.1949    1.5590 N.am    1  UNL1       -0.3072
      4 C           1.0886   -2.5462    1.1012 C.3     1  UNL1        0.0385
      5 C           0.5970   -1.2732    0.5398 C.ar    1  UNL1       -0.0078
      6 C          -0.7921   -1.1749    0.6910 C.ar    1  UNL1        0.0518
      7 C          -1.4241   -0.0273    0.2230 C.ar    1  UNL1        0.0218
      8 C          -2.7442    0.3624    0.2232 C.ar    1  UNL1        0.0082
      9 C          -3.9390   -0.1555    0.6476 C.ar    1  UNL1       -0.0520
     10 C          -5.1384    0.5190    0.4920 C.ar    1  UNL1       -0.0611
     11 C          -5.1846    1.7448   -0.0983 C.ar    1  UNL1       -0.0598
     12 C          -4.0009    2.2948   -0.5367 C.ar    1  UNL1       -0.0378
     13 C          -2.7987    1.6057   -0.3744 C.ar    1  UNL1        0.0475
     14 N          -1.5469    1.9341   -0.7144 N.ar    1  UNL1       -0.3525
     15 C          -0.6673    0.9771   -0.3750 C.ar    1  UNL1        0.0725
     16 C           0.7001    0.8508   -0.5101 C.ar    1  UNL1        0.0721
     17 N           1.6428    1.6405   -1.0315 N.ar    1  UNL1       -0.3525
     18 C           2.8582    1.0479   -0.9184 C.ar    1  UNL1        0.0475
     19 C           4.1181    1.4545   -1.2998 C.ar    1  UNL1       -0.0378
     20 C           5.1953    0.6374   -1.0581 C.ar    1  UNL1       -0.0598
     21 C           5.0167   -0.6024   -0.4279 C.ar    1  UNL1       -0.0611
     22 C           3.7637   -1.0091   -0.0475 C.ar    1  UNL1       -0.0520
     23 C           2.6906   -0.1912   -0.2900 C.ar    1  UNL1        0.0078
     24 C           1.3294   -0.2760   -0.0516 C.ar    1  UNL1        0.0148
     25 H          -0.1973   -4.1478    2.0132 H       1  UNL1        0.1493
     26 H           1.5077   -3.1819    0.2666 H       1  UNL1        0.0512
     27 H           1.8370   -2.4091    1.9057 H       1  UNL1        0.0512
     28 H          -3.9930   -1.0941    1.1131 H       1  UNL1        0.0624
     29 H          -6.0565    0.0759    0.8401 H       1  UNL1        0.0618
     30 H          -6.1361    2.2870   -0.2252 H       1  UNL1        0.0618
     31 H          -4.0444    3.2670   -1.0039 H       1  UNL1        0.0638
     32 H          -1.2739    2.8134   -1.1819 H       1  UNL1        0.1660
     33 H           1.4245    2.5840   -1.4600 H       1  UNL1        0.1660
     34 H           4.2050    2.4122   -1.7792 H       1  UNL1        0.0638
     35 H           6.1770    0.9513   -1.3538 H       1  UNL1        0.0618
     36 H           5.9168   -1.1790   -0.2778 H       1  UNL1        0.0618
     37 H           3.6507   -1.9545    0.4283 H       1  UNL1        0.0624
@<TRIPOS>BOND
     1     1     2    2
     2     2     3   am
     3     3     4    1
     4     4     5    1
     5     5     6   ar
     6     6     7   ar
     7     7     8   ar
     8     8     9   ar
     9     9    10   ar
    10    10    11   ar
    11    11    12   ar
    12    12    13   ar
    13    13    14   ar
    14    14    15   ar
    15    15    16   ar
    16    16    17   ar
    17    17    18   ar
    18    18    19   ar
    19    19    20   ar
    20    20    21   ar
    21    21    22   ar
    22    22    23   ar
    23    23    24   ar
    24     6     2    1
    25    15     7   ar
    26    24    16   ar
    27    24     5   ar
    28    13     8   ar
    29    23    18   ar
    30     3    25    1
    31     4    26    1
    32     4    27    1
    33     9    28    1
    34    10    29    1
    35    11    30    1
    36    12    31    1
    37    14    32    1
    38    17    33    1
    39    19    34    1
    40    20    35    1
    41    21    36    1
    42    22    37    1
