@<TRIPOS>MOLECULE
*****
 39 40 0 0 0
SMALL
GASTEIGER

@<TRIPOS>ATOM
      1 O           8.7466    0.2275    2.5655 O.3     1  UNL1       -0.4771
      2 C           8.3085    0.2094    1.2518 C.2     1  UNL1        0.3368
      3 O           9.2157    0.2692    0.3870 O.2     1  UNL1       -0.2451
      4 C           6.9025    0.1274    0.8606 C.ar    1  UNL1        0.0589
      5 C           6.6586    0.1212   -0.5015 C.ar    1  UNL1       -0.0472
      6 C           5.3144    0.0428   -0.8671 C.ar    1  UNL1       -0.0523
      7 C           4.2945   -0.0239    0.0449 C.ar    1  UNL1       -0.0038
      8 C           2.8873   -0.1060   -0.3289 C.2     1  UNL1        0.0736
      9 N           1.9677   -0.1666    0.5528 N.2     1  UNL1       -0.0924
     10 O           0.6348   -0.2453    0.3559 O.2     1  UNL1       -0.3902
     11 C          -0.0497   -0.4839   -0.8355 C.3     1  UNL1        0.1542
     12 C          -1.5391   -0.4668   -0.4773 C.3     1  UNL1        0.1542
     13 O          -2.3649   -0.6940   -1.5805 O.2     1  UNL1       -0.3902
     14 N          -3.7344   -0.6924   -1.3285 N.2     1  UNL1       -0.0909
     15 C          -4.3379    0.2828   -0.7363 C.2     1  UNL1        0.0900
     16 C          -5.7796    0.2269   -0.4994 C.ar    1  UNL1        0.0697
     17 C          -6.4599    1.2477    0.1294 C.ar    1  UNL1        0.0279
     18 C          -7.8287    1.1318    0.3233 C.ar    1  UNL1        0.2545
     19 O          -8.3879    2.1009    0.9043 O.2     1  UNL1       -0.2677
     20 N          -8.5067    0.0340   -0.0943 N.ar    1  UNL1       -0.2751
     21 C          -7.8111   -0.9551   -0.7103 C.ar    1  UNL1        0.3272
     22 O          -8.4669   -1.9644   -1.0883 O.2     1  UNL1       -0.2467
     23 N          -6.4737   -0.8539   -0.9057 N.ar    1  UNL1       -0.3063
     24 C           4.6351   -0.0117    1.3705 C.ar    1  UNL1       -0.0523
     25 C           5.9318    0.0632    1.8351 C.ar    1  UNL1       -0.0472
     26 H           9.5468   -0.3457    2.8379 H       1  UNL1        0.2954
     27 H           7.4552    0.1735   -1.2311 H       1  UNL1        0.0626
     28 H           5.0889    0.0359   -1.9324 H       1  UNL1        0.0624
     29 H           2.5682   -0.1189   -1.3614 H       1  UNL1        0.0869
     30 H           0.0963    0.2721   -1.6266 H       1  UNL1        0.0759
     31 H           0.1566   -1.5085   -1.2626 H       1  UNL1        0.0759
     32 H          -1.7392   -1.1436    0.3887 H       1  UNL1        0.0759
     33 H          -1.7309    0.5870   -0.1445 H       1  UNL1        0.0759
     34 H          -3.7693    1.1449   -0.4149 H       1  UNL1        0.0884
     35 H          -5.8746    2.1005    0.4431 H       1  UNL1        0.0693
     36 H          -9.5467   -0.0165    0.0715 H       1  UNL1        0.1734
     37 H          -6.0127   -1.6756   -1.3960 H       1  UNL1        0.1704
     38 H           3.8348   -0.0642    2.1094 H       1  UNL1        0.0624
     39 H           6.1694    0.0710    2.8911 H       1  UNL1        0.0626
@<TRIPOS>BOND
     1     1     2    1
     2     2     3    2
     3     2     4    1
     4     4     5   ar
     5     5     6   ar
     6     6     7   ar
     7     7     8    1
     8     8     9    2
     9     9    10    1
    10    10    11    1
    11    11    12    1
    12    12    13    1
    13    13    14    1
    14    14    15    2
    15    15    16    1
    16    16    17   ar
    17    17    18   ar
    18    18    19    2
    19    18    20   ar
    20    20    21   ar
    21    21    22    2
    22    21    23   ar
    23     7    24   ar
    24    24    25   ar
    25    25     4   ar
    26    23    16   ar
    27     1    26    1
    28     5    27    1
    29     6    28    1
    30     8    29    1
    31    11    30    1
    32    11    31    1
    33    12    32    1
    34    12    33    1
    35    15    34    1
    36    17    35    1
    37    20    36    1
    38    23    37    1
    39    24    38    1
    40    25    39    1
