@<TRIPOS>MOLECULE
*****
 43 46 0 0 0
SMALL
GASTEIGER

@<TRIPOS>ATOM
      1 N          -5.4092    1.5108   -2.2461 N.pl3   1  UNL1       -0.3134
      2 C          -4.6753    0.7768   -1.2617 C.2     1  UNL1        0.2763
      3 N          -3.4099    0.5585   -1.3541 N.2     1  UNL1       -0.2225
      4 C          -2.7480   -0.1971   -0.3038 C.3     1  UNL1        0.1284
      5 C          -2.5365    0.7237    0.8762 C.3     1  UNL1        0.1199
      6 F          -1.7643    1.7979    0.4928 F       1  UNL1       -0.2462
      7 C          -1.4311   -0.6991   -0.7650 C.ar    1  UNL1        0.0198
      8 C          -0.2705   -0.3688   -0.1133 C.ar    1  UNL1       -0.0322
      9 C           0.9738   -0.8548   -0.5380 C.ar    1  UNL1        0.0342
     10 N           2.1782   -0.5117    0.1381 N.am    1  UNL1       -0.2801
     11 C           2.9411    0.6242   -0.2212 C.2     1  UNL1        0.2698
     12 O           2.5414    1.3455   -1.1616 O.2     1  UNL1       -0.2681
     13 C           4.1752    0.9903    0.4590 C.ar    1  UNL1        0.1657
     14 N           4.7674    0.3428    1.4917 N.ar    1  UNL1       -0.1604
     15 N           5.8752    0.9495    1.8637 N.ar    1  UNL1       -0.2091
     16 C           6.7856    0.5448    2.9446 C.3     1  UNL1        0.3342
     17 F           6.5930    1.3711    4.0302 F       1  UNL1       -0.1832
     18 F           6.5096   -0.7506    3.3362 F       1  UNL1       -0.1832
     19 C           6.0316    2.0190    1.0722 C.ar    1  UNL1        0.0503
     20 C           4.9955    2.0753    0.1891 C.ar    1  UNL1        0.0909
     21 CL          4.6854    3.2541   -1.0721 Cl      1  UNL1       -0.0795
     22 C           0.9586   -1.6770   -1.6396 C.ar    1  UNL1       -0.0377
     23 C          -0.2028   -2.0145   -2.3006 C.ar    1  UNL1       -0.0243
     24 C          -1.4198   -1.5415   -1.8886 C.ar    1  UNL1        0.1291
     25 F          -2.5912   -1.8368   -2.4994 F       1  UNL1       -0.2051
     26 C          -3.5505   -1.4214    0.0953 C.3     1  UNL1        0.0315
     27 C          -4.2105   -1.4443    1.4298 C.3     1  UNL1       -0.0065
     28 C          -4.9947   -1.1155    0.1950 C.3     1  UNL1        0.1090
     29 O          -5.2887    0.2392   -0.1187 O.2     1  UNL1       -0.4622
     30 H          -5.9464    1.0700   -3.0041 H       1  UNL1        0.1466
     31 H          -5.4085    2.5541   -2.2052 H       1  UNL1        0.1466
     32 H          -3.5142    1.1116    1.2650 H       1  UNL1        0.0643
     33 H          -1.9966    0.1674    1.6629 H       1  UNL1        0.0643
     34 H          -0.2133    0.2729    0.7687 H       1  UNL1        0.0640
     35 H           2.5338   -1.1110    0.9384 H       1  UNL1        0.1552
     36 H           7.8141    0.5603    2.5749 H       1  UNL1        0.1295
     37 H           6.8494    2.7378    1.1144 H       1  UNL1        0.0843
     38 H           1.9281   -2.0592   -1.9752 H       1  UNL1        0.0637
     39 H          -0.1868   -2.6676   -3.1702 H       1  UNL1        0.0647
     40 H          -3.2616   -2.3715   -0.3829 H       1  UNL1        0.0365
     41 H          -3.9194   -0.6618    2.1494 H       1  UNL1        0.0306
     42 H          -4.4165   -2.4737    1.8157 H       1  UNL1        0.0306
     43 H          -5.7708   -1.8192   -0.1652 H       1  UNL1        0.0737
@<TRIPOS>BOND
     1     1     2    1
     2     2     3    2
     3     3     4    1
     4     4     5    1
     5     5     6    1
     6     4     7    1
     7     7     8   ar
     8     8     9   ar
     9     9    10    1
    10    10    11   am
    11    11    12    2
    12    11    13    1
    13    13    14   ar
    14    14    15   ar
    15    15    16    1
    16    16    17    1
    17    16    18    1
    18    15    19   ar
    19    19    20   ar
    20    20    21    1
    21     9    22   ar
    22    22    23   ar
    23    23    24   ar
    24    24    25    1
    25     4    26    1
    26    26    27    1
    27    27    28    1
    28    28    29    1
    29    29     2    1
    30    24     7   ar
    31    28    26    1
    32    20    13   ar
    33     1    30    1
    34     1    31    1
    35     5    32    1
    36     5    33    1
    37     8    34    1
    38    10    35    1
    39    16    36    1
    40    19    37    1
    41    22    38    1
    42    23    39    1
    43    26    40    1
    44    27    41    1
    45    27    42    1
    46    28    43    1
