
     RDKit          3D

 32 34  0  0  0  0  0  0  0  0999 V2000
   -2.3566    1.6902   -2.2002 O   0  0  0  0  0  0  0  0  0  0  0  0
   -1.7504    0.9894   -1.3544 C   0  0  0  0  0  0  0  0  0  0  0  0
   -0.3555    1.0436   -1.2133 C   0  0  0  0  0  0  0  0  0  0  0  0
    0.2749    1.9204   -2.0729 O   0  0  0  0  0  0  0  0  0  0  0  0
    0.3127    0.2947   -0.3065 C   0  0  0  0  0  0  0  0  0  0  0  0
    1.7517    0.3202   -0.1282 C   0  0  0  0  0  0  0  0  0  0  0  0
    2.6377    1.0853   -0.8302 C   0  0  0  0  0  0  0  0  0  0  0  0
    4.0133    1.0804   -0.6280 C   0  0  0  0  0  0  0  0  0  0  0  0
    4.5346    0.2625    0.3326 C   0  0  0  0  0  0  0  0  0  0  0  0
    5.9057    0.2155    0.5798 O   0  0  0  0  0  0  0  0  0  0  0  0
    3.6834   -0.5225    1.0612 C   0  0  0  0  0  0  0  0  0  0  0  0
    4.2468   -1.3499    2.0380 O   0  0  0  0  0  0  0  0  0  0  0  0
    2.3309   -0.5085    0.8523 C   0  0  0  0  0  0  0  0  0  0  0  0
   -0.4272   -0.5092    0.4583 O   0  0  0  0  0  0  0  0  0  0  0  0
   -1.7254   -0.5983    0.3690 C   0  0  0  0  0  0  0  0  0  0  0  0
   -2.4566   -1.4437    1.1800 C   0  0  0  0  0  0  0  0  0  0  0  0
   -3.8256   -1.5477    1.0968 C   0  0  0  0  0  0  0  0  0  0  0  0
   -4.5604   -2.4022    1.9171 O   0  0  0  0  0  0  0  0  0  0  0  0
   -4.5036   -0.7811    0.1694 C   0  0  0  0  0  0  0  0  0  0  0  0
   -3.8142    0.0674   -0.6511 C   0  0  0  0  0  0  0  0  0  0  0  0
   -4.4588    0.8439   -1.5844 O   0  0  0  0  0  0  0  0  0  0  0  0
   -2.4524    0.1439   -0.5390 C   0  0  0  0  0  0  0  0  0  0  0  0
    0.3870    1.6004   -3.0434 H   0  0  0  0  0  0  0  0  0  0  0  0
    2.3027    1.7479   -1.5958 H   0  0  0  0  0  0  0  0  0  0  0  0
    4.6690    1.7212   -1.2282 H   0  0  0  0  0  0  0  0  0  0  0  0
    6.3876    0.9827    0.9880 H   0  0  0  0  0  0  0  0  0  0  0  0
    4.9446   -2.0509    1.7604 H   0  0  0  0  0  0  0  0  0  0  0  0
    1.6589   -1.1432    1.4437 H   0  0  0  0  0  0  0  0  0  0  0  0
   -1.9473   -2.0530    1.9130 H   0  0  0  0  0  0  0  0  0  0  0  0
   -5.2335   -2.0872    2.5964 H   0  0  0  0  0  0  0  0  0  0  0  0
   -5.5836   -0.8676    0.1084 H   0  0  0  0  0  0  0  0  0  0  0  0
   -4.5906    1.8553   -1.4889 H   0  0  0  0  0  0  0  0  0  0  0  0
  1  2  2  0
  2  3  1  0
  3  4  1  0
  3  5  2  0
  5  6  1  0
  6  7  2  0
  7  8  1  0
  8  9  2  0
  9 10  1  0
  9 11  1  0
 11 12  1  0
 11 13  2  0
  5 14  1  0
 14 15  1  0
 15 16  2  0
 16 17  1  0
 17 18  1  0
 17 19  2  0
 19 20  1  0
 20 21  1  0
 20 22  2  0
 22  2  1  0
 13  6  1  0
 22 15  1  0
  4 23  1  0
  7 24  1  0
  8 25  1  0
 10 26  1  0
 12 27  1  0
 13 28  1  0
 16 29  1  0
 18 30  1  0
 19 31  1  0
 21 32  1  0
M  END
$$$$
