@<TRIPOS>MOLECULE
*****
 32 34 0 0 0
SMALL
GASTEIGER

@<TRIPOS>ATOM
      1 O          -2.3566    1.6902   -2.2002 O.2     1  UNL1       -0.2830
      2 C          -1.7504    0.9894   -1.3544 C.ar    1  UNL1        0.2379
      3 C          -0.3555    1.0436   -1.2133 C.ar    1  UNL1        0.2082
      4 O           0.2749    1.9204   -2.0729 O.3     1  UNL1       -0.5007
      5 C           0.3127    0.2947   -0.3065 C.ar    1  UNL1        0.1807
      6 C           1.7517    0.3202   -0.1282 C.ar    1  UNL1        0.0247
      7 C           2.6377    1.0853   -0.8302 C.ar    1  UNL1       -0.0473
      8 C           4.0133    1.0804   -0.6280 C.ar    1  UNL1       -0.0159
      9 C           4.5346    0.2625    0.3326 C.ar    1  UNL1        0.1583
     10 O           5.9057    0.2155    0.5798 O.3     1  UNL1       -0.5033
     11 C           3.6834   -0.5225    1.0612 C.ar    1  UNL1        0.1589
     12 O           4.2468   -1.3499    2.0380 O.3     1  UNL1       -0.5033
     13 C           2.3309   -0.5085    0.8523 C.ar    1  UNL1       -0.0057
     14 O          -0.4272   -0.5092    0.4583 O.2     1  UNL1       -0.4507
     15 C          -1.7254   -0.5983    0.3690 C.ar    1  UNL1        0.1465
     16 C          -2.4566   -1.4437    1.1800 C.ar    1  UNL1        0.0231
     17 C          -3.8256   -1.5477    1.0968 C.ar    1  UNL1        0.1239
     18 O          -4.5604   -2.4022    1.9171 O.3     1  UNL1       -0.5065
     19 C          -4.5036   -0.7811    0.1694 C.ar    1  UNL1        0.0223
     20 C          -3.8142    0.0674   -0.6511 C.ar    1  UNL1        0.1348
     21 O          -4.4588    0.8439   -1.5844 O.3     1  UNL1       -0.5058
     22 C          -2.4524    0.1439   -0.5390 C.ar    1  UNL1        0.1092
     23 H           0.3870    1.6004   -3.0434 H       1  UNL1        0.2924
     24 H           2.3027    1.7479   -1.5958 H       1  UNL1        0.0626
     25 H           4.6690    1.7212   -1.2282 H       1  UNL1        0.0655
     26 H           6.3876    0.9827    0.9880 H       1  UNL1        0.2923
     27 H           4.9446   -2.0509    1.7604 H       1  UNL1        0.2923
     28 H           1.6589   -1.1432    1.4437 H       1  UNL1        0.0662
     29 H          -1.9473   -2.0530    1.9130 H       1  UNL1        0.0691
     30 H          -5.2335   -2.0872    2.5964 H       1  UNL1        0.2921
     31 H          -5.5836   -0.8676    0.1084 H       1  UNL1        0.0691
     32 H          -4.5906    1.8553   -1.4889 H       1  UNL1        0.2922
@<TRIPOS>BOND
     1     1     2    2
     2     2     3   ar
     3     3     4    1
     4     3     5   ar
     5     5     6    1
     6     6     7   ar
     7     7     8   ar
     8     8     9   ar
     9     9    10    1
    10     9    11   ar
    11    11    12    1
    12    11    13   ar
    13     5    14   ar
    14    14    15   ar
    15    15    16   ar
    16    16    17   ar
    17    17    18    1
    18    17    19   ar
    19    19    20   ar
    20    20    21    1
    21    20    22   ar
    22    22     2   ar
    23    13     6   ar
    24    22    15   ar
    25     4    23    1
    26     7    24    1
    27     8    25    1
    28    10    26    1
    29    12    27    1
    30    13    28    1
    31    16    29    1
    32    18    30    1
    33    19    31    1
    34    21    32    1
