
     RDKit          3D

 60 64  0  0  0  0  0  0  0  0999 V2000
   -1.8078   -1.3097   -2.6548 O   0  0  0  0  0  0  0  0  0  0  0  0
   -0.9267   -1.2761   -1.7634 C   0  0  0  0  0  0  0  0  0  0  0  0
   -1.2419   -1.9034   -0.5336 N   0  0  0  0  0  0  0  0  0  0  0  0
   -2.4919   -2.5336   -0.3277 C   0  0  1  0  0  0  0  0  0  0  0  0
   -2.4257   -3.9776    0.0311 C   0  0  0  0  0  0  0  0  0  0  0  0
   -3.6031   -4.2442    0.9417 C   0  0  0  0  0  0  0  0  0  0  0  0
   -4.4322   -2.9538    0.9069 C   0  0  0  0  0  0  0  0  0  0  0  0
   -3.3235   -1.9299    0.7766 C   0  0  2  0  0  0  0  0  0  0  0  0
   -3.8022   -0.6700    0.4419 O   0  0  0  0  0  0  0  0  0  0  0  0
   -3.4609    0.2549    1.4351 C   0  0  0  0  0  0  0  0  0  0  0  0
   -3.9781    1.5991    1.0673 C   0  0  0  0  0  0  0  0  0  0  0  0
   -5.2338    1.9805    1.4818 C   0  0  0  0  0  0  0  0  0  0  0  0
   -5.6997    3.2425    1.1249 C   0  0  0  0  0  0  0  0  0  0  0  0
   -4.9301    4.1029    0.3721 C   0  0  0  0  0  0  0  0  0  0  0  0
   -3.6730    3.6992   -0.0329 C   0  0  0  0  0  0  0  0  0  0  0  0
   -3.1816    2.4477    0.3073 C   0  0  0  0  0  0  0  0  0  0  0  0
    0.3743   -0.6030   -2.0164 C   0  0  0  0  0  0  0  0  0  0  0  0
    0.5973    0.5175   -1.0435 C   0  0  0  0  0  0  0  0  0  0  0  0
    1.7070    0.2671   -0.0651 C   0  0  0  0  0  0  0  0  0  0  0  0
    2.9055   -0.0621   -0.7830 N   0  0  0  0  0  0  0  0  0  0  0  0
    4.1626    0.5363   -0.4843 C   0  0  0  0  0  0  0  0  0  0  0  0
    4.3677    1.4535    0.4907 N   0  0  0  0  0  0  0  0  0  0  0  0
    5.6566    1.8176    0.5152 C   0  0  0  0  0  0  0  0  0  0  0  0
    6.4144    2.6918    1.2757 C   0  0  0  0  0  0  0  0  0  0  0  0
    7.7800    2.8492    1.0432 C   0  0  0  0  0  0  0  0  0  0  0  0
    8.7234    3.9579    2.0125 Cl  0  0  0  0  0  0  0  0  0  0  0  0
    8.3819    2.1292    0.0485 C   0  0  0  0  0  0  0  0  0  0  0  0
    7.6156    1.2640   -0.6990 C   0  0  0  0  0  0  0  0  0  0  0  0
    6.2539    1.0869   -0.4901 C   0  0  0  0  0  0  0  0  0  0  0  0
    5.3275    0.3494   -1.0454 O   0  0  0  0  0  0  0  0  0  0  0  0
    2.8322   -1.0401   -1.8474 C   0  0  0  0  0  0  0  0  0  0  0  0
    1.4521   -1.6535   -1.9475 C   0  0  0  0  0  0  0  0  0  0  0  0
   -0.5276   -1.8907    0.2197 H   0  0  0  0  0  0  0  0  0  0  0  0
   -3.1235   -2.4458   -1.2614 H   0  0  0  0  0  0  0  0  0  0  0  0
   -2.5853   -4.6047   -0.8862 H   0  0  0  0  0  0  0  0  0  0  0  0
   -1.4705   -4.2863    0.4994 H   0  0  0  0  0  0  0  0  0  0  0  0
   -3.1796   -4.2835    1.9808 H   0  0  0  0  0  0  0  0  0  0  0  0
   -4.1862   -5.1260    0.6782 H   0  0  0  0  0  0  0  0  0  0  0  0
   -5.0615   -3.0134    0.0021 H   0  0  0  0  0  0  0  0  0  0  0  0
   -4.9836   -2.8181    1.8416 H   0  0  0  0  0  0  0  0  0  0  0  0
   -2.8042   -1.8840    1.7372 H   0  0  0  0  0  0  0  0  0  0  0  0
   -2.3581    0.2577    1.5559 H   0  0  0  0  0  0  0  0  0  0  0  0
   -3.8861   -0.0849    2.4019 H   0  0  0  0  0  0  0  0  0  0  0  0
   -5.8291    1.2884    2.0759 H   0  0  0  0  0  0  0  0  0  0  0  0
   -6.6782    3.5317    1.4507 H   0  0  0  0  0  0  0  0  0  0  0  0
   -5.2561    5.0917    0.0742 H   0  0  0  0  0  0  0  0  0  0  0  0
   -3.0579    4.3604   -0.6225 H   0  0  0  0  0  0  0  0  0  0  0  0
   -2.2151    2.0975    0.0134 H   0  0  0  0  0  0  0  0  0  0  0  0
    0.3825   -0.2160   -3.0661 H   0  0  0  0  0  0  0  0  0  0  0  0
    0.8004    1.4804   -1.5471 H   0  0  0  0  0  0  0  0  0  0  0  0
   -0.3350    0.6647   -0.4395 H   0  0  0  0  0  0  0  0  0  0  0  0
    1.4447   -0.5921    0.5621 H   0  0  0  0  0  0  0  0  0  0  0  0
    1.8173    1.1860    0.5494 H   0  0  0  0  0  0  0  0  0  0  0  0
    5.9252    3.2482    2.0519 H   0  0  0  0  0  0  0  0  0  0  0  0
    9.4526    2.2493   -0.1380 H   0  0  0  0  0  0  0  0  0  0  0  0
    8.1036    0.7041   -1.4784 H   0  0  0  0  0  0  0  0  0  0  0  0
    3.5228   -1.8727   -1.5664 H   0  0  0  0  0  0  0  0  0  0  0  0
    3.0741   -0.5768   -2.8157 H   0  0  0  0  0  0  0  0  0  0  0  0
    1.2493   -2.3414   -1.1237 H   0  0  0  0  0  0  0  0  0  0  0  0
    1.4256   -2.2139   -2.9251 H   0  0  0  0  0  0  0  0  0  0  0  0
  1  2  2  0
  2  3  1  0
  3  4  1  0
  4  5  1  0
  5  6  1  0
  6  7  1  0
  7  8  1  0
  8  9  1  0
  9 10  1  0
 10 11  1  0
 11 12  2  0
 12 13  1  0
 13 14  2  0
 14 15  1  0
 15 16  2  0
  2 17  1  0
 17 18  1  0
 18 19  1  0
 19 20  1  0
 20 21  1  0
 21 22  2  0
 22 23  1  0
 23 24  2  0
 24 25  1  0
 25 26  1  0
 25 27  2  0
 27 28  1  0
 28 29  2  0
 29 30  1  0
 20 31  1  0
 31 32  1  0
  8  4  1  0
 16 11  1  0
 32 17  1  0
 30 21  1  0
 29 23  1  0
  3 33  1  0
  4 34  1  6
  5 35  1  0
  5 36  1  0
  6 37  1  0
  6 38  1  0
  7 39  1  0
  7 40  1  0
  8 41  1  1
 10 42  1  0
 10 43  1  0
 12 44  1  0
 13 45  1  0
 14 46  1  0
 15 47  1  0
 16 48  1  0
 17 49  1  0
 18 50  1  0
 18 51  1  0
 19 52  1  0
 19 53  1  0
 24 54  1  0
 27 55  1  0
 28 56  1  0
 31 57  1  0
 31 58  1  0
 32 59  1  0
 32 60  1  0
M  END
$$$$
