@<TRIPOS>MOLECULE
*****
 60 64 0 0 0
SMALL
GASTEIGER

@<TRIPOS>ATOM
      1 O          -1.8078   -1.3097   -2.6548 O.2     1  UNL1       -0.2755
      2 C          -0.9267   -1.2761   -1.7634 C.2     1  UNL1        0.2165
      3 N          -1.2419   -1.9034   -0.5336 N.am    1  UNL1       -0.3098
      4 C          -2.4919   -2.5336   -0.3277 C.3     1  UNL1        0.0493
      5 C          -2.4257   -3.9776    0.0311 C.3     1  UNL1       -0.0320
      6 C          -3.6031   -4.2442    0.9417 C.3     1  UNL1       -0.0489
      7 C          -4.4322   -2.9538    0.9069 C.3     1  UNL1       -0.0248
      8 C          -3.3235   -1.9299    0.7766 C.3     1  UNL1        0.0774
      9 O          -3.8022   -0.6700    0.4419 O.3     1  UNL1       -0.3702
     10 C          -3.4609    0.2549    1.4351 C.3     1  UNL1        0.0731
     11 C          -3.9781    1.5991    1.0673 C.ar    1  UNL1       -0.0219
     12 C          -5.2338    1.9805    1.4818 C.ar    1  UNL1       -0.0564
     13 C          -5.6997    3.2425    1.1249 C.ar    1  UNL1       -0.0614
     14 C          -4.9301    4.1029    0.3721 C.ar    1  UNL1       -0.0617
     15 C          -3.6730    3.6992   -0.0329 C.ar    1  UNL1       -0.0614
     16 C          -3.1816    2.4477    0.3073 C.ar    1  UNL1       -0.0564
     17 C           0.3743   -0.6030   -2.0164 C.3     1  UNL1        0.0384
     18 C           0.5973    0.5175   -1.0435 C.3     1  UNL1       -0.0259
     19 C           1.7070    0.2671   -0.0651 C.3     1  UNL1        0.0170
     20 N           2.9055   -0.0621   -0.7830 N.pl3   1  UNL1       -0.2850
     21 C           4.1626    0.5363   -0.4843 C.ar    1  UNL1        0.2911
     22 N           4.3677    1.4535    0.4907 N.ar    1  UNL1       -0.1953
     23 C           5.6566    1.8176    0.5152 C.ar    1  UNL1        0.1126
     24 C           6.4144    2.6918    1.2757 C.ar    1  UNL1       -0.0142
     25 C           7.7800    2.8492    1.0432 C.ar    1  UNL1        0.0432
     26 CL          8.7234    3.9579    2.0125 Cl      1  UNL1       -0.0835
     27 C           8.3819    2.1292    0.0485 C.ar    1  UNL1       -0.0398
     28 C           7.6156    1.2640   -0.6990 C.ar    1  UNL1       -0.0157
     29 C           6.2539    1.0869   -0.4901 C.ar    1  UNL1        0.1571
     30 O           5.3275    0.3494   -1.0454 O.2     1  UNL1       -0.4244
     31 C           2.8322   -1.0401   -1.8474 C.3     1  UNL1        0.0170
     32 C           1.4521   -1.6535   -1.9475 C.3     1  UNL1       -0.0259
     33 H          -0.5276   -1.8907    0.2197 H       1  UNL1        0.1491
     34 H          -3.1235   -2.4458   -1.2614 H       1  UNL1        0.0524
     35 H          -2.5853   -4.6047   -0.8862 H       1  UNL1        0.0284
     36 H          -1.4705   -4.2863    0.4994 H       1  UNL1        0.0284
     37 H          -3.1796   -4.2835    1.9808 H       1  UNL1        0.0267
     38 H          -4.1862   -5.1260    0.6782 H       1  UNL1        0.0267
     39 H          -5.0615   -3.0134    0.0021 H       1  UNL1        0.0291
     40 H          -4.9836   -2.8181    1.8416 H       1  UNL1        0.0291
     41 H          -2.8042   -1.8840    1.7372 H       1  UNL1        0.0614
     42 H          -2.3581    0.2577    1.5559 H       1  UNL1        0.0610
     43 H          -3.8861   -0.0849    2.4019 H       1  UNL1        0.0610
     44 H          -5.8291    1.2884    2.0759 H       1  UNL1        0.0621
     45 H          -6.6782    3.5317    1.4507 H       1  UNL1        0.0618
     46 H          -5.2561    5.0917    0.0742 H       1  UNL1        0.0618
     47 H          -3.0579    4.3604   -0.6225 H       1  UNL1        0.0618
     48 H          -2.2151    2.0975    0.0134 H       1  UNL1        0.0621
     49 H           0.3825   -0.2160   -3.0661 H       1  UNL1        0.0395
     50 H           0.8004    1.4804   -1.5471 H       1  UNL1        0.0288
     51 H          -0.3350    0.6647   -0.4395 H       1  UNL1        0.0288
     52 H           1.4447   -0.5921    0.5621 H       1  UNL1        0.0465
     53 H           1.8173    1.1860    0.5494 H       1  UNL1        0.0465
     54 H           5.9252    3.2482    2.0519 H       1  UNL1        0.0654
     55 H           9.4526    2.2493   -0.1380 H       1  UNL1        0.0633
     56 H           8.1036    0.7041   -1.4784 H       1  UNL1        0.0655
     57 H           3.5228   -1.8727   -1.5664 H       1  UNL1        0.0465
     58 H           3.0741   -0.5768   -2.8157 H       1  UNL1        0.0465
     59 H           1.2493   -2.3414   -1.1237 H       1  UNL1        0.0288
     60 H           1.4256   -2.2139   -2.9251 H       1  UNL1        0.0288
@<TRIPOS>BOND
     1     1     2    2
     2     2     3   am
     3     3     4    1
     4     4     5    1
     5     5     6    1
     6     6     7    1
     7     7     8    1
     8     8     9    1
     9     9    10    1
    10    10    11    1
    11    11    12   ar
    12    12    13   ar
    13    13    14   ar
    14    14    15   ar
    15    15    16   ar
    16     2    17    1
    17    17    18    1
    18    18    19    1
    19    19    20    1
    20    20    21    1
    21    21    22   ar
    22    22    23   ar
    23    23    24   ar
    24    24    25   ar
    25    25    26    1
    26    25    27   ar
    27    27    28   ar
    28    28    29   ar
    29    29    30   ar
    30    20    31    1
    31    31    32    1
    32     8     4    1
    33    16    11   ar
    34    32    17    1
    35    30    21   ar
    36    29    23   ar
    37     3    33    1
    38     4    34    1
    39     5    35    1
    40     5    36    1
    41     6    37    1
    42     6    38    1
    43     7    39    1
    44     7    40    1
    45     8    41    1
    46    10    42    1
    47    10    43    1
    48    12    44    1
    49    13    45    1
    50    14    46    1
    51    15    47    1
    52    16    48    1
    53    17    49    1
    54    18    50    1
    55    18    51    1
    56    19    52    1
    57    19    53    1
    58    24    54    1
    59    27    55    1
    60    28    56    1
    61    31    57    1
    62    31    58    1
    63    32    59    1
    64    32    60    1
