@<TRIPOS>MOLECULE
*****
 83 87 0 0 0
SMALL
GASTEIGER

@<TRIPOS>ATOM
      1 C          -7.2161    0.1043   -0.8846 C.3     1  UNL1        0.0040
      2 N          -5.9985   -0.6872   -0.6455 N.am    1  UNL1       -0.2949
      3 C          -6.4894   -2.0490   -0.6489 C.2     1  UNL1        0.2129
      4 C          -5.5451   -3.1932   -0.4449 C.3     1  UNL1        0.0124
      5 O          -7.7181   -1.8896   -0.8435 O.2     1  UNL1       -0.2759
      6 C          -4.6380   -0.1055   -0.4910 C.3     1  UNL1        0.0645
      7 C          -3.9359   -0.5704    0.7308 C.3     1  UNL1       -0.0144
      8 C          -2.5902   -1.2066    0.5096 C.3     1  UNL1        0.0011
      9 N          -1.9427   -0.7261   -0.6675 N.3     1  UNL1       -0.3022
     10 C          -1.2437    0.5035   -0.5687 C.3     1  UNL1       -0.0011
     11 C           0.0394    0.3517    0.2731 C.3     1  UNL1       -0.0394
     12 C           0.9664   -0.6293   -0.3735 C.3     1  UNL1       -0.0408
     13 C           2.2390   -0.8652    0.3888 C.3     1  UNL1        0.0116
     14 C           1.9664   -1.4279    1.7847 C.3     1  UNL1       -0.0405
     15 C           3.2366   -1.7725    2.4880 C.3     1  UNL1       -0.0363
     16 C           4.4370   -0.9789    2.1165 C.3     1  UNL1        0.0150
     17 N           4.1774    0.1692    1.2650 N.am    1  UNL1       -0.2967
     18 C           2.8639    0.5089    0.6816 C.3     1  UNL1        0.0246
     19 C           5.4322    0.8186    1.1468 C.2     1  UNL1        0.2466
     20 O           6.1122    0.0164    1.8512 O.2     1  UNL1       -0.2700
     21 C           6.0597    1.9558    0.5486 C.ar    1  UNL1        0.0369
     22 C           5.6671    2.6810   -0.5393 C.ar    1  UNL1       -0.0496
     23 C           6.3222    3.7720   -1.0640 C.ar    1  UNL1       -0.0610
     24 C           7.4759    4.1070   -0.3746 C.ar    1  UNL1       -0.0617
     25 C           7.9513    3.4409    0.7270 C.ar    1  UNL1       -0.0610
     26 C           7.2354    2.3742    1.1720 C.ar    1  UNL1       -0.0496
     27 C           3.2030   -1.6866   -0.3793 C.ar    1  UNL1       -0.0382
     28 C           4.2017   -1.1591   -1.2085 C.ar    1  UNL1       -0.0382
     29 C           5.0935   -1.9207   -1.9299 C.ar    1  UNL1        0.0595
     30 CL          6.3255   -1.1745   -2.9359 Cl      1  UNL1       -0.0820
     31 C           5.0091   -3.2974   -1.8413 C.ar    1  UNL1        0.0593
     32 CL          6.1175   -4.3080   -2.7340 Cl      1  UNL1       -0.0820
     33 C           4.0470   -3.8950   -1.0428 C.ar    1  UNL1       -0.0417
     34 C           3.1709   -3.0636   -0.3341 C.ar    1  UNL1       -0.0565
     35 C          -2.6628   -0.8961   -1.8624 C.3     1  UNL1        0.0011
     36 C          -3.9907   -0.2292   -1.7965 C.3     1  UNL1       -0.0144
     37 C          -4.9378    1.3593   -0.2104 C.ar    1  UNL1       -0.0239
     38 C          -4.5197    2.5696   -0.7140 C.ar    1  UNL1       -0.0565
     39 C          -4.9791    3.7477   -0.1739 C.ar    1  UNL1       -0.0614
     40 C          -5.8592    3.8232    0.8726 C.ar    1  UNL1       -0.0617
     41 C          -6.3141    2.6543    1.4186 C.ar    1  UNL1       -0.0614
     42 C          -5.8419    1.4565    0.8641 C.ar    1  UNL1       -0.0565
     43 H          -7.9801   -0.0267   -0.1114 H       1  UNL1        0.0429
     44 H          -6.9871    1.1599   -1.1622 H       1  UNL1        0.0429
     45 H          -7.6788   -0.2835   -1.8529 H       1  UNL1        0.0429
     46 H          -5.4781   -3.4085    0.6501 H       1  UNL1        0.0323
     47 H          -5.9224   -4.1397   -0.9171 H       1  UNL1        0.0323
     48 H          -4.5905   -2.9525   -0.9295 H       1  UNL1        0.0323
     49 H          -4.5688   -1.3123    1.2484 H       1  UNL1        0.0302
     50 H          -3.7733    0.2376    1.4843 H       1  UNL1        0.0302
     51 H          -2.6920   -2.3039    0.4041 H       1  UNL1        0.0427
     52 H          -1.9297   -1.0410    1.3800 H       1  UNL1        0.0427
     53 H          -0.8994    0.8301   -1.5736 H       1  UNL1        0.0426
     54 H          -1.8501    1.3412   -0.1809 H       1  UNL1        0.0426
     55 H           0.5550    1.3499    0.2063 H       1  UNL1        0.0278
     56 H          -0.2725    0.0926    1.2782 H       1  UNL1        0.0278
     57 H           1.2871   -0.2531   -1.3853 H       1  UNL1        0.0275
     58 H           0.4537   -1.5930   -0.5990 H       1  UNL1        0.0275
     59 H           1.3115   -2.3076    1.7423 H       1  UNL1        0.0275
     60 H           1.4112   -0.6449    2.3342 H       1  UNL1        0.0275
     61 H           3.4669   -2.8474    2.2897 H       1  UNL1        0.0281
     62 H           3.0610   -1.7150    3.6041 H       1  UNL1        0.0281
     63 H           4.8976   -0.6399    3.0865 H       1  UNL1        0.0465
     64 H           5.2249   -1.6446    1.6566 H       1  UNL1        0.0465
     65 H           2.9445    1.1044   -0.2262 H       1  UNL1        0.0473
     66 H           2.3015    1.0034    1.4940 H       1  UNL1        0.0473
     67 H           4.7612    2.3727   -1.0405 H       1  UNL1        0.0625
     68 H           5.9697    4.3066   -1.9318 H       1  UNL1        0.0618
     69 H           8.0360    4.9525   -0.7399 H       1  UNL1        0.0618
     70 H           8.8643    3.7480    1.2268 H       1  UNL1        0.0618
     71 H           7.6362    1.8642    2.0505 H       1  UNL1        0.0625
     72 H           4.2643   -0.0850   -1.2864 H       1  UNL1        0.0635
     73 H           3.9780   -4.9794   -0.9694 H       1  UNL1        0.0633
     74 H           2.4362   -3.6036    0.2687 H       1  UNL1        0.0621
     75 H          -2.0476   -0.4602   -2.6912 H       1  UNL1        0.0427
     76 H          -2.7381   -1.9956   -2.0679 H       1  UNL1        0.0427
     77 H          -4.7164   -0.8088   -2.4961 H       1  UNL1        0.0302
     78 H          -3.8544    0.7698   -2.2965 H       1  UNL1        0.0302
     79 H          -3.8336    2.4706   -1.5176 H       1  UNL1        0.0621
     80 H          -4.5508    4.6038   -0.6935 H       1  UNL1        0.0618
     81 H          -6.1330    4.8138    1.1867 H       1  UNL1        0.0618
     82 H          -7.0111    2.7282    2.2362 H       1  UNL1        0.0618
     83 H          -6.2803    0.6145    1.4028 H       1  UNL1        0.0621
@<TRIPOS>BOND
     1     1     2    1
     2     2     3   am
     3     3     4    1
     4     3     5    2
     5     2     6    1
     6     6     7    1
     7     7     8    1
     8     8     9    1
     9     9    10    1
    10    10    11    1
    11    11    12    1
    12    13    12    1
    13    13    14    1
    14    14    15    1
    15    15    16    1
    16    16    17    1
    17    17    18    1
    18    17    19   am
    19    19    20    2
    20    19    21    1
    21    21    22   ar
    22    22    23   ar
    23    23    24   ar
    24    24    25   ar
    25    25    26   ar
    26    13    27    1
    27    27    28   ar
    28    28    29   ar
    29    29    30    1
    30    29    31   ar
    31    31    32    1
    32    31    33   ar
    33    33    34   ar
    34     9    35    1
    35    35    36    1
    36     6    37    1
    37    37    38   ar
    38    38    39   ar
    39    39    40   ar
    40    40    41   ar
    41    41    42   ar
    42    36     6    1
    43    42    37   ar
    44    18    13    1
    45    26    21   ar
    46    34    27   ar
    47     1    43    1
    48     1    44    1
    49     1    45    1
    50     4    46    1
    51     4    47    1
    52     4    48    1
    53     7    49    1
    54     7    50    1
    55     8    51    1
    56     8    52    1
    57    10    53    1
    58    10    54    1
    59    11    55    1
    60    11    56    1
    61    12    57    1
    62    12    58    1
    63    14    59    1
    64    14    60    1
    65    15    61    1
    66    15    62    1
    67    16    63    1
    68    16    64    1
    69    18    65    1
    70    18    66    1
    71    22    67    1
    72    23    68    1
    73    24    69    1
    74    25    70    1
    75    26    71    1
    76    28    72    1
    77    33    73    1
    78    34    74    1
    79    35    75    1
    80    35    76    1
    81    36    77    1
    82    36    78    1
    83    38    79    1
    84    39    80    1
    85    40    81    1
    86    41    82    1
    87    42    83    1
