
     RDKit          3D

 83 87  0  0  0  0  0  0  0  0999 V2000
   -7.2161    0.1043   -0.8846 C   0  0  0  0  0  0  0  0  0  0  0  0
   -5.9985   -0.6872   -0.6455 N   0  0  0  0  0  0  0  0  0  0  0  0
   -6.4894   -2.0490   -0.6489 C   0  0  0  0  0  0  0  0  0  0  0  0
   -5.5451   -3.1932   -0.4449 C   0  0  0  0  0  0  0  0  0  0  0  0
   -7.7181   -1.8896   -0.8435 O   0  0  0  0  0  0  0  0  0  0  0  0
   -4.6380   -0.1055   -0.4910 C   0  0  0  0  0  0  0  0  0  0  0  0
   -3.9359   -0.5704    0.7308 C   0  0  0  0  0  0  0  0  0  0  0  0
   -2.5902   -1.2066    0.5096 C   0  0  0  0  0  0  0  0  0  0  0  0
   -1.9427   -0.7261   -0.6675 N   0  0  0  0  0  0  0  0  0  0  0  0
   -1.2437    0.5035   -0.5687 C   0  0  0  0  0  0  0  0  0  0  0  0
    0.0394    0.3517    0.2731 C   0  0  0  0  0  0  0  0  0  0  0  0
    0.9664   -0.6293   -0.3735 C   0  0  0  0  0  0  0  0  0  0  0  0
    2.2390   -0.8652    0.3888 C   0  0  2  0  0  0  0  0  0  0  0  0
    1.9664   -1.4279    1.7847 C   0  0  0  0  0  0  0  0  0  0  0  0
    3.2366   -1.7725    2.4880 C   0  0  0  0  0  0  0  0  0  0  0  0
    4.4370   -0.9789    2.1165 C   0  0  0  0  0  0  0  0  0  0  0  0
    4.1774    0.1692    1.2650 N   0  0  0  0  0  0  0  0  0  0  0  0
    2.8639    0.5089    0.6816 C   0  0  0  0  0  0  0  0  0  0  0  0
    5.4322    0.8186    1.1468 C   0  0  0  0  0  0  0  0  0  0  0  0
    6.1122    0.0164    1.8512 O   0  0  0  0  0  0  0  0  0  0  0  0
    6.0597    1.9558    0.5486 C   0  0  0  0  0  0  0  0  0  0  0  0
    5.6671    2.6810   -0.5393 C   0  0  0  0  0  0  0  0  0  0  0  0
    6.3222    3.7720   -1.0640 C   0  0  0  0  0  0  0  0  0  0  0  0
    7.4759    4.1070   -0.3746 C   0  0  0  0  0  0  0  0  0  0  0  0
    7.9513    3.4409    0.7270 C   0  0  0  0  0  0  0  0  0  0  0  0
    7.2354    2.3742    1.1720 C   0  0  0  0  0  0  0  0  0  0  0  0
    3.2030   -1.6866   -0.3793 C   0  0  0  0  0  0  0  0  0  0  0  0
    4.2017   -1.1591   -1.2085 C   0  0  0  0  0  0  0  0  0  0  0  0
    5.0935   -1.9207   -1.9299 C   0  0  0  0  0  0  0  0  0  0  0  0
    6.3255   -1.1745   -2.9359 Cl  0  0  0  0  0  0  0  0  0  0  0  0
    5.0091   -3.2974   -1.8413 C   0  0  0  0  0  0  0  0  0  0  0  0
    6.1175   -4.3080   -2.7340 Cl  0  0  0  0  0  0  0  0  0  0  0  0
    4.0470   -3.8950   -1.0428 C   0  0  0  0  0  0  0  0  0  0  0  0
    3.1709   -3.0636   -0.3341 C   0  0  0  0  0  0  0  0  0  0  0  0
   -2.6628   -0.8961   -1.8624 C   0  0  0  0  0  0  0  0  0  0  0  0
   -3.9907   -0.2292   -1.7965 C   0  0  0  0  0  0  0  0  0  0  0  0
   -4.9378    1.3593   -0.2104 C   0  0  0  0  0  0  0  0  0  0  0  0
   -4.5197    2.5696   -0.7140 C   0  0  0  0  0  0  0  0  0  0  0  0
   -4.9791    3.7477   -0.1739 C   0  0  0  0  0  0  0  0  0  0  0  0
   -5.8592    3.8232    0.8726 C   0  0  0  0  0  0  0  0  0  0  0  0
   -6.3141    2.6543    1.4186 C   0  0  0  0  0  0  0  0  0  0  0  0
   -5.8419    1.4565    0.8641 C   0  0  0  0  0  0  0  0  0  0  0  0
   -7.9801   -0.0267   -0.1114 H   0  0  0  0  0  0  0  0  0  0  0  0
   -6.9871    1.1599   -1.1622 H   0  0  0  0  0  0  0  0  0  0  0  0
   -7.6788   -0.2835   -1.8529 H   0  0  0  0  0  0  0  0  0  0  0  0
   -5.4781   -3.4085    0.6501 H   0  0  0  0  0  0  0  0  0  0  0  0
   -5.9224   -4.1397   -0.9171 H   0  0  0  0  0  0  0  0  0  0  0  0
   -4.5905   -2.9525   -0.9295 H   0  0  0  0  0  0  0  0  0  0  0  0
   -4.5688   -1.3123    1.2484 H   0  0  0  0  0  0  0  0  0  0  0  0
   -3.7733    0.2376    1.4843 H   0  0  0  0  0  0  0  0  0  0  0  0
   -2.6920   -2.3039    0.4041 H   0  0  0  0  0  0  0  0  0  0  0  0
   -1.9297   -1.0410    1.3800 H   0  0  0  0  0  0  0  0  0  0  0  0
   -0.8994    0.8301   -1.5736 H   0  0  0  0  0  0  0  0  0  0  0  0
   -1.8501    1.3412   -0.1809 H   0  0  0  0  0  0  0  0  0  0  0  0
    0.5550    1.3499    0.2063 H   0  0  0  0  0  0  0  0  0  0  0  0
   -0.2725    0.0926    1.2782 H   0  0  0  0  0  0  0  0  0  0  0  0
    1.2871   -0.2531   -1.3853 H   0  0  0  0  0  0  0  0  0  0  0  0
    0.4537   -1.5930   -0.5990 H   0  0  0  0  0  0  0  0  0  0  0  0
    1.3115   -2.3076    1.7423 H   0  0  0  0  0  0  0  0  0  0  0  0
    1.4112   -0.6449    2.3342 H   0  0  0  0  0  0  0  0  0  0  0  0
    3.4669   -2.8474    2.2897 H   0  0  0  0  0  0  0  0  0  0  0  0
    3.0610   -1.7150    3.6041 H   0  0  0  0  0  0  0  0  0  0  0  0
    4.8976   -0.6399    3.0865 H   0  0  0  0  0  0  0  0  0  0  0  0
    5.2249   -1.6446    1.6566 H   0  0  0  0  0  0  0  0  0  0  0  0
    2.9445    1.1044   -0.2262 H   0  0  0  0  0  0  0  0  0  0  0  0
    2.3015    1.0034    1.4940 H   0  0  0  0  0  0  0  0  0  0  0  0
    4.7612    2.3727   -1.0405 H   0  0  0  0  0  0  0  0  0  0  0  0
    5.9697    4.3066   -1.9318 H   0  0  0  0  0  0  0  0  0  0  0  0
    8.0360    4.9525   -0.7399 H   0  0  0  0  0  0  0  0  0  0  0  0
    8.8643    3.7480    1.2268 H   0  0  0  0  0  0  0  0  0  0  0  0
    7.6362    1.8642    2.0505 H   0  0  0  0  0  0  0  0  0  0  0  0
    4.2643   -0.0850   -1.2864 H   0  0  0  0  0  0  0  0  0  0  0  0
    3.9780   -4.9794   -0.9694 H   0  0  0  0  0  0  0  0  0  0  0  0
    2.4362   -3.6036    0.2687 H   0  0  0  0  0  0  0  0  0  0  0  0
   -2.0476   -0.4602   -2.6912 H   0  0  0  0  0  0  0  0  0  0  0  0
   -2.7381   -1.9956   -2.0679 H   0  0  0  0  0  0  0  0  0  0  0  0
   -4.7164   -0.8088   -2.4961 H   0  0  0  0  0  0  0  0  0  0  0  0
   -3.8544    0.7698   -2.2965 H   0  0  0  0  0  0  0  0  0  0  0  0
   -3.8336    2.4706   -1.5176 H   0  0  0  0  0  0  0  0  0  0  0  0
   -4.5508    4.6038   -0.6935 H   0  0  0  0  0  0  0  0  0  0  0  0
   -6.1330    4.8138    1.1867 H   0  0  0  0  0  0  0  0  0  0  0  0
   -7.0111    2.7282    2.2362 H   0  0  0  0  0  0  0  0  0  0  0  0
   -6.2803    0.6145    1.4028 H   0  0  0  0  0  0  0  0  0  0  0  0
  1  2  1  0
  2  3  1  0
  3  4  1  0
  3  5  2  0
  2  6  1  0
  6  7  1  0
  7  8  1  0
  8  9  1  0
  9 10  1  0
 10 11  1  0
 11 12  1  0
 13 12  1  6
 13 14  1  0
 14 15  1  0
 15 16  1  0
 16 17  1  0
 17 18  1  0
 17 19  1  0
 19 20  2  0
 19 21  1  0
 21 22  2  0
 22 23  1  0
 23 24  2  0
 24 25  1  0
 25 26  2  0
 13 27  1  0
 27 28  2  0
 28 29  1  0
 29 30  1  0
 29 31  2  0
 31 32  1  0
 31 33  1  0
 33 34  2  0
  9 35  1  0
 35 36  1  0
  6 37  1  0
 37 38  2  0
 38 39  1  0
 39 40  2  0
 40 41  1  0
 41 42  2  0
 36  6  1  0
 42 37  1  0
 18 13  1  0
 26 21  1  0
 34 27  1  0
  1 43  1  0
  1 44  1  0
  1 45  1  0
  4 46  1  0
  4 47  1  0
  4 48  1  0
  7 49  1  0
  7 50  1  0
  8 51  1  0
  8 52  1  0
 10 53  1  0
 10 54  1  0
 11 55  1  0
 11 56  1  0
 12 57  1  0
 12 58  1  0
 14 59  1  0
 14 60  1  0
 15 61  1  0
 15 62  1  0
 16 63  1  0
 16 64  1  0
 18 65  1  0
 18 66  1  0
 22 67  1  0
 23 68  1  0
 24 69  1  0
 25 70  1  0
 26 71  1  0
 28 72  1  0
 33 73  1  0
 34 74  1  0
 35 75  1  0
 35 76  1  0
 36 77  1  0
 36 78  1  0
 38 79  1  0
 39 80  1  0
 40 81  1  0
 41 82  1  0
 42 83  1  0
M  END
$$$$
