@<TRIPOS>MOLECULE
*****
 45 47 0 0 0
SMALL
GASTEIGER

@<TRIPOS>ATOM
      1 C           6.3081    1.2640    1.1675 C.2     1  UNL1       -0.1011
      2 C           6.2300    0.3217    0.2354 C.2     1  UNL1       -0.0736
      3 C           5.4642   -0.9441    0.4455 C.3     1  UNL1        0.0381
      4 N           4.4004   -1.0871   -0.5399 N.am    1  UNL1       -0.2604
      5 C           4.5164   -1.7269   -1.8121 C.2     1  UNL1        0.2915
      6 O           5.5699   -2.2536   -2.2427 O.2     1  UNL1       -0.2661
      7 C           3.2168   -1.6378   -2.4610 C.2     1  UNL1        0.2496
      8 O           2.9348   -2.0876   -3.5891 O.2     1  UNL1       -0.2817
      9 C           2.3317   -0.9340   -1.5490 C.ar    1  UNL1        0.0502
     10 C           1.0030   -0.5950   -1.6905 C.ar    1  UNL1       -0.0226
     11 C           0.3972    0.0820   -0.6553 C.ar    1  UNL1        0.1063
     12 S          -1.2727    0.5802   -0.6904 S.O2    1  UNL1        0.0612
     13 O          -1.3653    1.8528    0.1030 O.2     1  UNL1       -0.1528
     14 O          -1.5515    0.8604   -2.1664 O.2     1  UNL1       -0.1528
     15 N          -2.2955   -0.6459   -0.1184 N.3     1  UNL1       -0.1713
     16 C          -2.0204   -0.9914    1.2351 C.3     1  UNL1        0.0209
     17 C          -3.2633   -0.5815    1.9926 C.3     1  UNL1       -0.0370
     18 C          -4.3589   -0.9594    0.9848 C.3     1  UNL1       -0.0323
     19 C          -3.6860   -0.4487   -0.2960 C.3     1  UNL1        0.0552
     20 C          -4.1022    0.9858   -0.5059 C.3     1  UNL1        0.0645
     21 O          -5.5082    1.0421   -0.6639 O.3     1  UNL1       -0.3814
     22 C          -5.7977    2.3942   -0.8507 C.3     1  UNL1        0.0365
     23 C           1.1308    0.3922    0.4694 C.ar    1  UNL1       -0.0335
     24 C           2.4669    0.0503    0.6095 C.ar    1  UNL1       -0.0377
     25 C           3.0652   -0.6221   -0.4204 C.ar    1  UNL1        0.0481
     26 H           6.8830    2.1527    0.9377 H       1  UNL1        0.0532
     27 H           5.8477    1.2116    2.1246 H       1  UNL1        0.0532
     28 H           6.7198    0.4268   -0.7249 H       1  UNL1        0.0582
     29 H           6.1593   -1.8065    0.3403 H       1  UNL1        0.0512
     30 H           5.0441   -1.0154    1.4701 H       1  UNL1        0.0512
     31 H           0.4070   -0.8211   -2.5498 H       1  UNL1        0.0645
     32 H          -1.1040   -0.5634    1.6641 H       1  UNL1        0.0444
     33 H          -2.0116   -2.1208    1.2913 H       1  UNL1        0.0444
     34 H          -3.2932    0.4989    2.2042 H       1  UNL1        0.0279
     35 H          -3.3837   -1.1995    2.9268 H       1  UNL1        0.0279
     36 H          -4.4488   -2.0605    0.9707 H       1  UNL1        0.0282
     37 H          -5.2935   -0.4359    1.1879 H       1  UNL1        0.0282
     38 H          -4.0488   -1.0416   -1.1529 H       1  UNL1        0.0502
     39 H          -3.8811    1.6404    0.3443 H       1  UNL1        0.0576
     40 H          -3.7090    1.3348   -1.4748 H       1  UNL1        0.0576
     41 H          -5.2286    2.6925   -1.7790 H       1  UNL1        0.0523
     42 H          -5.3305    2.9796   -0.0306 H       1  UNL1        0.0523
     43 H          -6.8773    2.5808   -0.9675 H       1  UNL1        0.0523
     44 H           0.7148    0.9320    1.3283 H       1  UNL1        0.0638
     45 H           3.0206    0.3040    1.4998 H       1  UNL1        0.0637
@<TRIPOS>BOND
     1     1     2    2
     2     2     3    1
     3     3     4    1
     4     4     5   am
     5     5     6    2
     6     5     7    1
     7     7     8    2
     8     7     9    1
     9     9    10   ar
    10    10    11   ar
    11    11    12    1
    12    12    13    2
    13    12    14    2
    14    12    15    1
    15    15    16    1
    16    16    17    1
    17    17    18    1
    18    18    19    1
    19    19    20    1
    20    20    21    1
    21    21    22    1
    22    11    23   ar
    23    23    24   ar
    24    24    25   ar
    25    25     4    1
    26    25     9   ar
    27    19    15    1
    28     1    26    1
    29     1    27    1
    30     2    28    1
    31     3    29    1
    32     3    30    1
    33    10    31    1
    34    16    32    1
    35    16    33    1
    36    17    34    1
    37    17    35    1
    38    18    36    1
    39    18    37    1
    40    19    38    1
    41    20    39    1
    42    20    40    1
    43    22    41    1
    44    22    42    1
    45    22    43    1
    46    23    44    1
    47    24    45    1
