@<TRIPOS>MOLECULE
*****
 39 39 0 0 0
SMALL
GASTEIGER

@<TRIPOS>ATOM
      1 C           2.8405   -1.9000   -1.6678 C.3     1  UNL1       -0.0523
      2 C           2.7063   -0.3949   -1.4782 C.3     1  UNL1       -0.0035
      3 N           2.5978    0.0576   -0.1740 N.3     1  UNL1       -0.2945
      4 C           3.5823    0.0185    0.7812 C.3     1  UNL1       -0.0035
      5 C           4.8041    0.8641    0.6615 C.3     1  UNL1       -0.0523
      6 C           1.4311    0.8109    0.0800 C.3     1  UNL1        0.0760
      7 C           0.1730   -0.0120    0.0280 C.2     1  UNL1        0.2313
      8 O          -0.1497   -1.1965   -0.1797 O.2     1  UNL1       -0.2741
      9 N          -0.9574    0.7961    0.2900 N.am    1  UNL1       -0.2840
     10 C          -2.3187    0.3894    0.3304 C.ar    1  UNL1        0.0393
     11 C          -3.0347    0.4352   -0.8313 C.ar    1  UNL1       -0.0290
     12 C          -2.4476    0.8799   -2.1212 C.3     1  UNL1       -0.0379
     13 C          -4.3660    0.0508   -0.8248 C.ar    1  UNL1       -0.0571
     14 C          -4.9723   -0.3758    0.3383 C.ar    1  UNL1       -0.0611
     15 C          -4.2648   -0.4320    1.5347 C.ar    1  UNL1       -0.0571
     16 C          -2.9348   -0.0446    1.5116 C.ar    1  UNL1       -0.0290
     17 C          -2.1629   -0.1005    2.7804 C.3     1  UNL1       -0.0379
     18 H           3.2381   -2.0095   -2.7204 H       1  UNL1        0.0242
     19 H           3.5174   -2.3779   -0.9393 H       1  UNL1        0.0242
     20 H           1.8383   -2.3447   -1.6846 H       1  UNL1        0.0242
     21 H           3.4625    0.1462   -2.1167 H       1  UNL1        0.0424
     22 H           1.7444   -0.1364   -2.0202 H       1  UNL1        0.0424
     23 H           3.1148    0.2662    1.7840 H       1  UNL1        0.0424
     24 H           3.8970   -1.0564    0.9468 H       1  UNL1        0.0424
     25 H           4.9885    1.5018    1.5504 H       1  UNL1        0.0242
     26 H           4.8613    1.5214   -0.2209 H       1  UNL1        0.0242
     27 H           5.7205    0.2092    0.5821 H       1  UNL1        0.0242
     28 H           1.4825    1.2647    1.0870 H       1  UNL1        0.0522
     29 H           1.3518    1.6540   -0.6539 H       1  UNL1        0.0522
     30 H          -1.0111    1.8330    0.5009 H       1  UNL1        0.1549
     31 H          -3.2280    1.4542   -2.6635 H       1  UNL1        0.0278
     32 H          -2.2960   -0.0591   -2.7172 H       1  UNL1        0.0278
     33 H          -1.5070    1.4526   -2.0036 H       1  UNL1        0.0278
     34 H          -4.9747    0.0703   -1.7265 H       1  UNL1        0.0621
     35 H          -6.0238   -0.6685    0.2988 H       1  UNL1        0.0618
     36 H          -4.7389   -0.7691    2.4665 H       1  UNL1        0.0621
     37 H          -1.8687   -1.1826    2.9237 H       1  UNL1        0.0278
     38 H          -1.2620    0.5190    2.6607 H       1  UNL1        0.0278
     39 H          -2.8330    0.2297    3.6069 H       1  UNL1        0.0278
@<TRIPOS>BOND
     1     1     2    1
     2     2     3    1
     3     3     4    1
     4     4     5    1
     5     3     6    1
     6     6     7    1
     7     7     8    2
     8     7     9   am
     9     9    10    1
    10    10    11   ar
    11    11    12    1
    12    11    13   ar
    13    13    14   ar
    14    14    15   ar
    15    15    16   ar
    16    16    17    1
    17    16    10   ar
    18     1    18    1
    19     1    19    1
    20     1    20    1
    21     2    21    1
    22     2    22    1
    23     4    23    1
    24     4    24    1
    25     5    25    1
    26     5    26    1
    27     5    27    1
    28     6    28    1
    29     6    29    1
    30     9    30    1
    31    12    31    1
    32    12    32    1
    33    12    33    1
    34    13    34    1
    35    14    35    1
    36    15    36    1
    37    17    37    1
    38    17    38    1
    39    17    39    1
