@<TRIPOS>MOLECULE
*****
 46 46 0 0 0
SMALL
GASTEIGER

@<TRIPOS>ATOM
      1 CD1        -4.8874    0.7951    2.4076 C.3     1  LEU1       -0.0626
      2 CG         -4.5112    0.2364    1.0054 C.3     1  LEU1       -0.0445
      3 CD2        -5.5052    0.9090    0.0796 C.3     1  LEU1       -0.0626
      4 CB         -3.1095    0.6440    0.7934 C.3     1  LEU1       -0.0218
      5 CA         -2.4139    0.2098   -0.4273 C.3     1  LEU1        0.1205
      6 N          -1.0265    0.7877   -0.3517 N.am    1  LEU1       -0.3002
      7 C           0.0975   -0.0555   -0.2121 C.2     0  UNK0        0.2438
      8 O          -0.0926   -1.2995   -0.1530 O.2     0  UNK0       -0.2729
      9 C           1.4484    0.5688   -0.1422 C.3     0  UNK0        0.1461
     10 O           1.2743    1.9701   -0.2023 O.3     0  UNK0       -0.3810
     11 C           2.1077    0.3077    1.1882 C.3     0  UNK0        0.0437
     12 N           3.3630    1.0894    1.1452 N.3     0  UNK0       -0.3245
     13 C           2.5864   -1.1468    1.3204 C.3     0  UNK0       -0.0095
     14 C           3.5853   -1.4691    0.2790 C.ar    0  UNK0       -0.0458
     15 C           4.9401   -1.2424    0.5310 C.ar    0  UNK0       -0.0585
     16 C           5.9031   -1.5316   -0.4112 C.ar    0  UNK0       -0.0615
     17 C           5.5652   -2.0563   -1.6395 C.ar    0  UNK0       -0.0617
     18 C           4.2357   -2.2852   -1.9029 C.ar    0  UNK0       -0.0615
     19 C           3.2665   -1.9914   -0.9477 C.ar    0  UNK0       -0.0585
     20 C          -2.9695    0.4821   -1.7369 C.2     1  LEU1        0.3253
     21 O          -4.0206   -0.0083   -2.2036 O.2     1  LEU1       -0.2489
     22 OXT        -2.3108    1.3751   -2.6153 O.3     1  LEU1       -0.4793
     23 HD11       -5.9772    0.9664    2.4668 H       1  LEU1        0.0232
     24 HD12       -4.3830    1.7604    2.5220 H       1  LEU1        0.0232
     25 HD13       -4.5187    0.0483    3.1300 H       1  LEU1        0.0232
     26 HG         -4.6775   -0.8498    0.9727 H       1  LEU1        0.0296
     27 HD21       -6.2983    1.4008    0.7188 H       1  LEU1        0.0232
     28 HD22       -5.0704    1.7122   -0.5141 H       1  LEU1        0.0232
     29 HD23       -6.0121    0.1556   -0.5201 H       1  LEU1        0.0232
     30 HB1        -2.4633    0.2871    1.6657 H       1  LEU1        0.0291
     31 HB2        -3.0525    1.7878    0.8924 H       1  LEU1        0.0291
     32 HA         -2.2496   -0.9039   -0.3475 H       1  LEU1        0.0614
     33 H          -0.9122    1.8218   -0.4043 H       1  LEU1        0.1496
     34 H           2.1222    0.2563   -0.9405 H       0  UNK0        0.0706
     35 H           0.9295    2.2101    0.7112 H       0  UNK0        0.2105
     36 H           1.5563    0.6569    2.0616 H       0  UNK0        0.0492
     37 H           3.1263    2.1104    1.1392 H       0  UNK0        0.1186
     38 H           3.7539    0.8925    0.1891 H       0  UNK0        0.1186
     39 H           3.0500   -1.2446    2.3039 H       0  UNK0        0.0329
     40 H           1.7292   -1.8514    1.2743 H       0  UNK0        0.0329
     41 H           5.1892   -0.8293    1.5021 H       0  UNK0        0.0620
     42 H           6.9497   -1.3555   -0.2139 H       0  UNK0        0.0618
     43 H           6.3074   -2.2944   -2.4036 H       0  UNK0        0.0618
     44 H           3.9805   -2.6996   -2.8757 H       0  UNK0        0.0618
     45 H           2.2404   -2.1914   -1.2036 H       0  UNK0        0.0620
     46 HXT        -2.8462    1.8639   -3.3034 H       1  LEU1        0.2951
@<TRIPOS>BOND
     1     1     2    1
     2     2     3    1
     3     2     4    1
     4     4     5    1
     5     5     6    1
     6     6     7   am
     7     7     8    2
     8     7     9    1
     9     9    10    1
    10     9    11    1
    11    11    12    1
    12    11    13    1
    13    13    14    1
    14    14    15   ar
    15    15    16   ar
    16    16    17   ar
    17    17    18   ar
    18    18    19   ar
    19     5    20    1
    20    20    21    2
    21    20    22    1
    22    19    14   ar
    23     1    23    1
    24     1    24    1
    25     1    25    1
    26     2    26    1
    27     3    27    1
    28     3    28    1
    29     3    29    1
    30     4    30    1
    31     4    31    1
    32     5    32    1
    33     6    33    1
    34     9    34    1
    35    10    35    1
    36    11    36    1
    37    12    37    1
    38    12    38    1
    39    13    39    1
    40    13    40    1
    41    15    41    1
    42    16    42    1
    43    17    43    1
    44    18    44    1
    45    19    45    1
    46    22    46    1
