@<TRIPOS>MOLECULE
*****
 54 57 0 0 0
SMALL
GASTEIGER

@<TRIPOS>ATOM
      1 C           2.7813    5.9998   -0.8615 C.3     1  UNL1        0.0788
      2 O           2.3429    5.3111    0.2883 O.3     1  UNL1       -0.4951
      3 C           1.8590    4.0158    0.1328 C.ar    1  UNL1        0.1201
      4 C           1.4111    3.2766    1.2133 C.ar    1  UNL1       -0.0196
      5 C           0.9349    1.9949    1.0419 C.ar    1  UNL1       -0.0509
      6 C           0.8757    1.3799   -0.1928 C.ar    1  UNL1        0.0055
      7 C           0.3555   -0.0072   -0.3576 C.3     1  UNL1        0.2215
      8 C           1.2084   -0.9674    0.3942 C.ar    1  UNL1        0.0055
      9 C           0.9628   -1.3120    1.6995 C.ar    1  UNL1       -0.0509
     10 C           1.7711   -2.2099    2.3963 C.ar    1  UNL1       -0.0196
     11 C           2.8612   -2.7903    1.7864 C.ar    1  UNL1        0.1201
     12 O           3.6713   -3.6905    2.4855 O.3     1  UNL1       -0.4951
     13 C           4.7893   -4.3051    1.9093 C.3     1  UNL1        0.0788
     14 C           3.1140   -2.4491    0.4754 C.ar    1  UNL1       -0.0196
     15 C           2.3175   -1.5630   -0.2141 C.ar    1  UNL1       -0.0509
     16 N           0.2818   -0.3593   -1.7598 N.pl3   1  UNL1       -0.2151
     17 C          -1.0204   -0.7603   -2.1106 C.2     1  UNL1        0.3729
     18 N          -1.3587   -1.2298   -3.2884 N.2     1  UNL1       -0.1329
     19 N          -1.8883   -0.5759   -1.0012 N.am    1  UNL1       -0.1560
     20 C          -3.2805   -0.8807   -1.0076 C.3     1  UNL1        0.0837
     21 C          -4.0486    0.3910   -0.7259 C.3     1  UNL1        0.0031
     22 C          -4.8959    0.2881    0.5122 C.3     1  UNL1        0.0506
     23 O          -5.7390   -0.7925    0.5342 O.3     1  UNL1       -0.3795
     24 C          -5.2064   -1.9501    0.0227 C.3     1  UNL1        0.0506
     25 C          -3.6748   -1.9121    0.0229 C.3     1  UNL1        0.0031
     26 C          -1.0686   -0.0461    0.0426 C.2     1  UNL1        0.3252
     27 O          -1.5084    0.3337    1.1488 O.2     1  UNL1       -0.2524
     28 C           1.3288    2.1389   -1.2573 C.ar    1  UNL1       -0.0509
     29 C           1.8085    3.4223   -1.1048 C.ar    1  UNL1       -0.0196
     30 H           3.5159    5.3707   -1.3980 H       1  UNL1        0.0660
     31 H           3.2462    6.9559   -0.5183 H       1  UNL1        0.0660
     32 H           1.8728    6.2108   -1.4951 H       1  UNL1        0.0660
     33 H           1.4469    3.7387    2.2002 H       1  UNL1        0.0654
     34 H           0.5796    1.4121    1.9009 H       1  UNL1        0.0623
     35 H           0.1100   -0.8922    2.2510 H       1  UNL1        0.0623
     36 H           1.5568   -2.4728    3.4425 H       1  UNL1        0.0654
     37 H           5.4132   -3.6147    1.2926 H       1  UNL1        0.0660
     38 H           4.5564   -5.1881    1.2867 H       1  UNL1        0.0660
     39 H           5.4853   -4.6590    2.7182 H       1  UNL1        0.0660
     40 H           3.9849   -2.9250    0.0168 H       1  UNL1        0.0654
     41 H           2.5385   -1.3202   -1.2241 H       1  UNL1        0.0623
     42 H           1.0947   -0.3197   -2.4064 H       1  UNL1        0.2462
     43 H          -0.6689   -1.3324   -4.0394 H       1  UNL1        0.3058
     44 H          -3.5731   -1.2780   -1.9963 H       1  UNL1        0.0677
     45 H          -4.7108    0.6222   -1.5841 H       1  UNL1        0.0319
     46 H          -3.3595    1.2569   -0.5705 H       1  UNL1        0.0319
     47 H          -4.2452    0.3387    1.4203 H       1  UNL1        0.0561
     48 H          -5.5119    1.2267    0.5490 H       1  UNL1        0.0561
     49 H          -5.5176   -2.0587   -1.0576 H       1  UNL1        0.0561
     50 H          -5.6058   -2.8169    0.5445 H       1  UNL1        0.0561
     51 H          -3.2722   -1.7297    1.0188 H       1  UNL1        0.0319
     52 H          -3.3657   -2.9244   -0.3442 H       1  UNL1        0.0319
     53 H           1.2924    1.6755   -2.2564 H       1  UNL1        0.0623
     54 H           2.1514    3.9725   -1.9761 H       1  UNL1        0.0654
@<TRIPOS>BOND
     1     1     2    1
     2     2     3    1
     3     3     4   ar
     4     4     5   ar
     5     5     6   ar
     6     6     7    1
     7     7     8    1
     8     8     9   ar
     9     9    10   ar
    10    10    11   ar
    11    11    12    1
    12    12    13    1
    13    11    14   ar
    14    14    15   ar
    15     7    16    1
    16    16    17    1
    17    17    18    2
    18    17    19    1
    19    19    20    1
    20    20    21    1
    21    21    22    1
    22    22    23    1
    23    23    24    1
    24    24    25    1
    25    19    26   am
    26    26    27    2
    27     6    28   ar
    28    28    29   ar
    29    29     3   ar
    30    26     7    1
    31    15     8   ar
    32    25    20    1
    33     1    30    1
    34     1    31    1
    35     1    32    1
    36     4    33    1
    37     5    34    1
    38     9    35    1
    39    10    36    1
    40    13    37    1
    41    13    38    1
    42    13    39    1
    43    14    40    1
    44    15    41    1
    45    16    42    1
    46    18    43    1
    47    20    44    1
    48    21    45    1
    49    21    46    1
    50    22    47    1
    51    22    48    1
    52    24    49    1
    53    24    50    1
    54    25    51    1
    55    25    52    1
    56    28    53    1
    57    29    54    1
