
     RDKit          3D

 54 57  0  0  0  0  0  0  0  0999 V2000
    2.7813    5.9998   -0.8615 C   0  0  0  0  0  0  0  0  0  0  0  0
    2.3429    5.3111    0.2883 O   0  0  0  0  0  0  0  0  0  0  0  0
    1.8590    4.0158    0.1328 C   0  0  0  0  0  0  0  0  0  0  0  0
    1.4111    3.2766    1.2133 C   0  0  0  0  0  0  0  0  0  0  0  0
    0.9349    1.9949    1.0419 C   0  0  0  0  0  0  0  0  0  0  0  0
    0.8757    1.3799   -0.1928 C   0  0  0  0  0  0  0  0  0  0  0  0
    0.3555   -0.0072   -0.3576 C   0  0  0  0  0  0  0  0  0  0  0  0
    1.2084   -0.9674    0.3942 C   0  0  0  0  0  0  0  0  0  0  0  0
    0.9628   -1.3120    1.6995 C   0  0  0  0  0  0  0  0  0  0  0  0
    1.7711   -2.2099    2.3963 C   0  0  0  0  0  0  0  0  0  0  0  0
    2.8612   -2.7903    1.7864 C   0  0  0  0  0  0  0  0  0  0  0  0
    3.6713   -3.6905    2.4855 O   0  0  0  0  0  0  0  0  0  0  0  0
    4.7893   -4.3051    1.9093 C   0  0  0  0  0  0  0  0  0  0  0  0
    3.1140   -2.4491    0.4754 C   0  0  0  0  0  0  0  0  0  0  0  0
    2.3175   -1.5630   -0.2141 C   0  0  0  0  0  0  0  0  0  0  0  0
    0.2818   -0.3593   -1.7598 N   0  0  0  0  0  0  0  0  0  0  0  0
   -1.0204   -0.7603   -2.1106 C   0  0  0  0  0  0  0  0  0  0  0  0
   -1.3587   -1.2298   -3.2884 N   0  0  0  0  0  0  0  0  0  0  0  0
   -1.8883   -0.5759   -1.0012 N   0  0  0  0  0  0  0  0  0  0  0  0
   -3.2805   -0.8807   -1.0076 C   0  0  0  0  0  0  0  0  0  0  0  0
   -4.0486    0.3910   -0.7259 C   0  0  0  0  0  0  0  0  0  0  0  0
   -4.8959    0.2881    0.5122 C   0  0  0  0  0  0  0  0  0  0  0  0
   -5.7390   -0.7925    0.5342 O   0  0  0  0  0  0  0  0  0  0  0  0
   -5.2064   -1.9501    0.0227 C   0  0  0  0  0  0  0  0  0  0  0  0
   -3.6748   -1.9121    0.0229 C   0  0  0  0  0  0  0  0  0  0  0  0
   -1.0686   -0.0461    0.0426 C   0  0  0  0  0  0  0  0  0  0  0  0
   -1.5084    0.3337    1.1488 O   0  0  0  0  0  0  0  0  0  0  0  0
    1.3288    2.1389   -1.2573 C   0  0  0  0  0  0  0  0  0  0  0  0
    1.8085    3.4223   -1.1048 C   0  0  0  0  0  0  0  0  0  0  0  0
    3.5159    5.3707   -1.3980 H   0  0  0  0  0  0  0  0  0  0  0  0
    3.2462    6.9559   -0.5183 H   0  0  0  0  0  0  0  0  0  0  0  0
    1.8728    6.2108   -1.4951 H   0  0  0  0  0  0  0  0  0  0  0  0
    1.4469    3.7387    2.2002 H   0  0  0  0  0  0  0  0  0  0  0  0
    0.5796    1.4121    1.9009 H   0  0  0  0  0  0  0  0  0  0  0  0
    0.1100   -0.8922    2.2510 H   0  0  0  0  0  0  0  0  0  0  0  0
    1.5568   -2.4728    3.4425 H   0  0  0  0  0  0  0  0  0  0  0  0
    5.4132   -3.6147    1.2926 H   0  0  0  0  0  0  0  0  0  0  0  0
    4.5564   -5.1881    1.2867 H   0  0  0  0  0  0  0  0  0  0  0  0
    5.4853   -4.6590    2.7182 H   0  0  0  0  0  0  0  0  0  0  0  0
    3.9849   -2.9250    0.0168 H   0  0  0  0  0  0  0  0  0  0  0  0
    2.5385   -1.3202   -1.2241 H   0  0  0  0  0  0  0  0  0  0  0  0
    1.0947   -0.3197   -2.4064 H   0  0  0  0  0  0  0  0  0  0  0  0
   -0.6689   -1.3324   -4.0394 H   0  0  0  0  0  0  0  0  0  0  0  0
   -3.5731   -1.2780   -1.9963 H   0  0  0  0  0  0  0  0  0  0  0  0
   -4.7108    0.6222   -1.5841 H   0  0  0  0  0  0  0  0  0  0  0  0
   -3.3595    1.2569   -0.5705 H   0  0  0  0  0  0  0  0  0  0  0  0
   -4.2452    0.3387    1.4203 H   0  0  0  0  0  0  0  0  0  0  0  0
   -5.5119    1.2267    0.5490 H   0  0  0  0  0  0  0  0  0  0  0  0
   -5.5176   -2.0587   -1.0576 H   0  0  0  0  0  0  0  0  0  0  0  0
   -5.6058   -2.8169    0.5445 H   0  0  0  0  0  0  0  0  0  0  0  0
   -3.2722   -1.7297    1.0188 H   0  0  0  0  0  0  0  0  0  0  0  0
   -3.3657   -2.9244   -0.3442 H   0  0  0  0  0  0  0  0  0  0  0  0
    1.2924    1.6755   -2.2564 H   0  0  0  0  0  0  0  0  0  0  0  0
    2.1514    3.9725   -1.9761 H   0  0  0  0  0  0  0  0  0  0  0  0
  1  2  1  0
  2  3  1  0
  3  4  2  0
  4  5  1  0
  5  6  2  0
  6  7  1  0
  7  8  1  0
  8  9  2  0
  9 10  1  0
 10 11  2  0
 11 12  1  0
 12 13  1  0
 11 14  1  0
 14 15  2  0
  7 16  1  0
 16 17  1  0
 17 18  2  3
 17 19  1  0
 19 20  1  0
 20 21  1  0
 21 22  1  0
 22 23  1  0
 23 24  1  0
 24 25  1  0
 19 26  1  0
 26 27  2  0
  6 28  1  0
 28 29  2  0
 29  3  1  0
 26  7  1  0
 15  8  1  0
 25 20  1  0
  1 30  1  0
  1 31  1  0
  1 32  1  0
  4 33  1  0
  5 34  1  0
  9 35  1  0
 10 36  1  0
 13 37  1  0
 13 38  1  0
 13 39  1  0
 14 40  1  0
 15 41  1  0
 16 42  1  0
 18 43  1  0
 20 44  1  0
 21 45  1  0
 21 46  1  0
 22 47  1  0
 22 48  1  0
 24 49  1  0
 24 50  1  0
 25 51  1  0
 25 52  1  0
 28 53  1  0
 29 54  1  0
M  END
$$$$
