@<TRIPOS>MOLECULE
*****
 51 52 0 0 0
SMALL
GASTEIGER

@<TRIPOS>ATOM
      1 C           1.2979   -0.0268   -0.3255 C.3     1  UNL1        0.1393
      2 O           1.1283   -0.7849   -1.4601 O.3     1  UNL1       -0.3821
      3 C           2.2978    1.0730   -0.6065 C.3     1  UNL1        0.0599
      4 C           3.5642    0.3902   -0.9945 C.2     1  UNL1        0.2323
      5 O           3.8332   -0.1244   -2.1041 O.2     1  UNL1       -0.2742
      6 N           4.6232    0.2630   -0.0851 N.am    1  UNL1       -0.2288
      7 N           4.9936   -0.3385   -1.3224 N.3     1  UNL1       -0.2512
      8 C           5.7326    0.1316    0.8728 C.3     1  UNL1        0.1274
      9 C           5.6257   -1.1284    1.6250 C.2     1  UNL1        0.3238
     10 O           4.6186   -2.0659    1.4539 O.3     1  UNL1       -0.4795
     11 O           6.3973   -1.5689    2.5246 O.2     1  UNL1       -0.2492
     12 C           0.0392    0.4525    0.2783 C.2     1  UNL1        0.2452
     13 O           0.4345    1.1849    1.2527 O.2     1  UNL1       -0.2727
     14 N          -1.3473    0.2368   -0.0376 N.am    1  UNL1       -0.2907
     15 C          -1.9344   -0.5916   -1.0983 C.3     1  UNL1        0.0401
     16 C          -2.2532   -1.9630   -0.6477 C.ar    1  UNL1       -0.0301
     17 C          -3.5372   -2.1727   -0.1287 C.ar    1  UNL1       -0.0571
     18 C          -3.9419   -3.4097    0.3233 C.ar    1  UNL1       -0.0615
     19 C          -3.0980   -4.4997    0.2849 C.ar    1  UNL1       -0.0617
     20 C          -1.8252   -4.3278   -0.2208 C.ar    1  UNL1       -0.0615
     21 C          -1.4593   -3.0879   -0.6596 C.ar    1  UNL1       -0.0571
     22 C          -2.2733    0.9452    0.8124 C.3     1  UNL1        0.0401
     23 C          -2.6639    2.2776    0.3237 C.ar    1  UNL1       -0.0301
     24 C          -1.9961    3.4732    0.6226 C.ar    1  UNL1       -0.0571
     25 C          -2.5022    4.6595    0.0748 C.ar    1  UNL1       -0.0615
     26 C          -3.6148    4.7172   -0.7385 C.ar    1  UNL1       -0.0617
     27 C          -4.2472    3.5231   -1.0123 C.ar    1  UNL1       -0.0615
     28 C          -3.7742    2.3332   -0.4874 C.ar    1  UNL1       -0.0571
     29 H           1.8082   -0.6759    0.4436 H       1  UNL1        0.0695
     30 H           1.5808   -1.6537   -1.3395 H       1  UNL1        0.2104
     31 H           2.5199    1.6822    0.2929 H       1  UNL1        0.0389
     32 H           1.9645    1.7645   -1.3949 H       1  UNL1        0.0389
     33 H           5.2658   -1.3496   -1.1247 H       1  UNL1        0.1407
     34 H           5.8791    0.0834   -1.7047 H       1  UNL1        0.1407
     35 H           5.6426    0.9577    1.6421 H       1  UNL1        0.0595
     36 H           6.6907    0.2849    0.3600 H       1  UNL1        0.0595
     37 H           4.1546   -2.5614    2.1935 H       1  UNL1        0.2951
     38 H          -1.1643   -0.5828   -1.9036 H       1  UNL1        0.0514
     39 H          -2.8298   -0.1440   -1.5187 H       1  UNL1        0.0514
     40 H          -4.3261   -1.4416   -0.0250 H       1  UNL1        0.0621
     41 H          -4.9146   -3.6396    0.7340 H       1  UNL1        0.0618
     42 H          -3.3132   -5.5119    0.6126 H       1  UNL1        0.0618
     43 H          -1.0916   -5.1350   -0.2885 H       1  UNL1        0.0618
     44 H          -0.4667   -2.9428   -1.0587 H       1  UNL1        0.0621
     45 H          -3.1968    0.3711    1.0248 H       1  UNL1        0.0514
     46 H          -1.8337    1.1146    1.8431 H       1  UNL1        0.0514
     47 H          -1.1345    3.4230    1.2540 H       1  UNL1        0.0621
     48 H          -1.9140    5.5396    0.3646 H       1  UNL1        0.0618
     49 H          -3.9063    5.6988   -1.1004 H       1  UNL1        0.0618
     50 H          -5.1223    3.6355   -1.6616 H       1  UNL1        0.0618
     51 H          -4.4103    1.5122   -0.8196 H       1  UNL1        0.0621
@<TRIPOS>BOND
     1     1     2    1
     2     1     3    1
     3     3     4    1
     4     4     5    2
     5     4     6   am
     6     6     7    1
     7     6     8    1
     8     8     9    1
     9     9    10    1
    10     9    11    2
    11     1    12    1
    12    12    13    2
    13    12    14   am
    14    14    15    1
    15    15    16    1
    16    16    17   ar
    17    17    18   ar
    18    18    19   ar
    19    19    20   ar
    20    20    21   ar
    21    14    22    1
    22    22    23    1
    23    23    24   ar
    24    24    25   ar
    25    25    26   ar
    26    26    27   ar
    27    27    28   ar
    28    21    16   ar
    29    28    23   ar
    30     1    29    1
    31     2    30    1
    32     3    31    1
    33     3    32    1
    34     7    33    1
    35     7    34    1
    36     8    35    1
    37     8    36    1
    38    10    37    1
    39    15    38    1
    40    15    39    1
    41    17    40    1
    42    18    41    1
    43    19    42    1
    44    20    43    1
    45    21    44    1
    46    22    45    1
    47    22    46    1
    48    24    47    1
    49    25    48    1
    50    26    49    1
    51    27    50    1
    52    28    51    1
