
     RDKit          3D

196201  0  0  0  0  0  0  0  0999 V2000
    4.2333   -3.1206    1.5957 C   0  0  0  0  0  0  0  0  0  0  0  0
    3.9540   -2.4321    0.2250 C   0  0  0  0  0  0  0  0  0  0  0  0
    4.5346   -1.0448    0.4133 C   0  0  0  0  0  0  0  0  0  0  0  0
    4.5922   -3.2749   -0.8021 C   0  0  0  0  0  0  0  0  0  0  0  0
    4.5031   -2.9259   -2.2325 C   0  0  2  0  0  0  0  0  0  0  0  0
    5.0651   -1.6343   -2.5371 N   0  0  0  0  0  0  0  0  0  0  0  0
    6.1795   -0.9184   -3.0045 C   0  0  0  0  0  0  0  0  0  0  0  0
    7.0978   -1.7507   -3.2839 O   0  0  0  0  0  0  0  0  0  0  0  0
    6.1109    0.5773   -3.0836 C   0  0  1  0  0  0  0  0  0  0  0  0
    6.7794    1.1230   -4.2862 C   0  0  0  0  0  0  0  0  0  0  0  0
    6.2986    0.6872   -5.5812 C   0  0  0  0  0  0  0  0  0  0  0  0
    6.0879    0.5178   -6.9611 N   0  0  0  0  0  0  0  0  0  0  0  0
    5.4328   -0.1724   -5.2287 O   0  0  0  0  0  0  0  0  0  0  0  0
    4.7662    0.9919   -2.8194 N   0  0  0  0  0  0  0  0  0  0  0  0
    4.0714    1.6437   -1.7506 C   0  0  0  0  0  0  0  0  0  0  0  0
    4.8453    1.9467   -0.7700 O   0  0  0  0  0  0  0  0  0  0  0  0
    2.6125    1.8930   -1.8555 C   0  0  2  0  0  0  0  0  0  0  0  0
    2.3298    2.9200   -2.9501 C   0  0  0  0  0  0  0  0  0  0  0  0
    2.9665    4.2292   -2.7308 C   0  0  0  0  0  0  0  0  0  0  0  0
    4.2650    4.4163   -3.2283 C   0  0  0  0  0  0  0  0  0  0  0  0
    5.0386    5.5877   -3.1265 C   0  0  0  0  0  0  0  0  0  0  0  0
    4.3817    6.6148   -2.4534 C   0  0  0  0  0  0  0  0  0  0  0  0
    5.1892    7.7566   -2.3808 O   0  0  0  0  0  0  0  0  0  0  0  0
    3.1113    6.4976   -1.9408 C   0  0  0  0  0  0  0  0  0  0  0  0
    2.4355    5.3264   -2.0865 C   0  0  0  0  0  0  0  0  0  0  0  0
    2.0172    2.1877   -0.6020 N   0  0  0  0  0  0  0  0  0  0  0  0
    2.4145    3.2843    0.2940 C   0  0  0  0  0  0  0  0  0  0  0  0
    0.9583    1.4537   -0.0090 C   0  0  0  0  0  0  0  0  0  0  0  0
    0.3826    1.6100    1.0952 O   0  0  0  0  0  0  0  0  0  0  0  0
    0.1282    0.3014   -0.3676 C   0  0  2  0  0  0  0  0  0  0  0  0
   -0.8109    0.6166   -1.5494 C   0  0  0  0  0  0  0  0  0  0  0  0
   -1.5496   -0.5670   -1.8043 O   0  0  0  0  0  0  0  0  0  0  0  0
   -0.7460   -0.0637    0.7542 N   0  0  0  0  0  0  0  0  0  0  0  0
   -1.0236   -1.4418    1.0596 C   0  0  0  0  0  0  0  0  0  0  0  0
   -0.4534   -2.2097    0.2329 O   0  0  0  0  0  0  0  0  0  0  0  0
   -1.8201   -2.0171    2.1286 C   0  0  1  0  0  0  0  0  0  0  0  0
   -0.9227   -2.8635    3.0481 C   0  0  0  0  0  0  0  0  0  0  0  0
   -0.2723   -3.9903    2.3264 C   0  0  0  0  0  0  0  0  0  0  0  0
    0.9547   -4.0657    1.7118 C   0  0  0  0  0  0  0  0  0  0  0  0
    1.3728   -5.1608    1.0965 N   0  0  0  0  0  0  0  0  0  0  0  0
    0.6199   -6.2546    1.0416 C   0  0  0  0  0  0  0  0  0  0  0  0
   -0.6049   -6.2372    1.6346 C   0  0  0  0  0  0  0  0  0  0  0  0
   -1.1113   -5.1162    2.3026 C   0  0  0  0  0  0  0  0  0  0  0  0
   -2.3772   -0.9413    2.9362 N   0  0  0  0  0  0  0  0  0  0  0  0
   -3.4019   -1.2438    3.8604 C   0  0  0  0  0  0  0  0  0  0  0  0
   -3.7144   -2.4973    3.8808 O   0  0  0  0  0  0  0  0  0  0  0  0
   -4.2448   -0.5613    4.8415 C   0  0  1  0  0  0  0  0  0  0  0  0
   -3.9098   -1.0024    6.2563 C   0  0  0  0  0  0  0  0  0  0  0  0
   -2.5745   -0.7400    6.7312 C   0  0  0  0  0  0  0  0  0  0  0  0
   -2.4924    0.4246    7.5691 C   0  0  0  0  0  0  0  0  0  0  0  0
   -1.2359    0.7522    8.0735 C   0  0  0  0  0  0  0  0  0  0  0  0
   -0.0589    0.0907    7.8639 C   0  0  0  0  0  0  0  0  0  0  0  0
    1.4570    0.5808    8.5611 Cl  0  0  0  0  0  0  0  0  0  0  0  0
   -0.0756   -1.0640    7.0473 C   0  0  0  0  0  0  0  0  0  0  0  0
   -1.3513   -1.2816    6.6179 C   0  0  0  0  0  0  0  0  0  0  0  0
   -4.2742    0.8627    4.6511 N   0  0  0  0  0  0  0  0  0  0  0  0
   -5.0884    2.0070    4.7500 C   0  0  0  0  0  0  0  0  0  0  0  0
   -6.2578    1.7642    5.2264 O   0  0  0  0  0  0  0  0  0  0  0  0
   -4.7326    3.3490    4.3653 C   0  0  1  0  0  0  0  0  0  0  0  0
   -4.8336    4.3829    5.4268 C   0  0  0  0  0  0  0  0  0  0  0  0
   -4.0055    4.2731    6.6104 C   0  0  0  0  0  0  0  0  0  0  0  0
   -4.1521    3.7959    7.9288 C   0  0  0  0  0  0  0  0  0  0  0  0
   -3.1087    3.8526    8.8242 C   0  0  0  0  0  0  0  0  0  0  0  0
   -1.8765    4.3681    8.5053 C   0  0  0  0  0  0  0  0  0  0  0  0
   -0.9006    4.3790    9.4528 C   0  0  0  0  0  0  0  0  0  0  0  0
   -1.1704    3.8781   10.6892 C   0  0  0  0  0  0  0  0  0  0  0  0
   -2.4136    3.3413   11.0574 C   0  0  0  0  0  0  0  0  0  0  0  0
   -3.4032    3.3409   10.0675 C   0  0  0  0  0  0  0  0  0  0  0  0
   -1.6666    4.8440    7.2608 C   0  0  0  0  0  0  0  0  0  0  0  0
   -2.7158    4.7906    6.3490 C   0  0  0  0  0  0  0  0  0  0  0  0
   -3.4347    3.4061    3.6861 N   0  0  0  0  0  0  0  0  0  0  0  0
   -3.4229    3.7023    2.2868 C   0  0  0  0  0  0  0  0  0  0  0  0
   -2.3194    3.8258    1.2819 C   0  0  0  0  0  0  0  0  0  0  0  0
   -4.4822    3.9241    1.6222 O   0  0  0  0  0  0  0  0  0  0  0  0
    3.1853   -3.1434   -2.8527 C   0  0  0  0  0  0  0  0  0  0  0  0
    2.4198   -3.9990   -2.3415 O   0  0  0  0  0  0  0  0  0  0  0  0
    2.7233   -2.4362   -4.0197 N   0  0  0  0  0  0  0  0  0  0  0  0
    1.4175   -2.6318   -4.6332 C   0  0  1  0  0  0  0  0  0  0  0  0
    1.4024   -2.1093   -6.0167 C   0  0  0  0  0  0  0  0  0  0  0  0
    1.6395   -0.6856   -6.3071 C   0  0  0  0  0  0  0  0  0  0  0  0
    0.6665    0.3123   -5.7359 C   0  0  0  0  0  0  0  0  0  0  0  0
    1.0064    1.7162   -6.2220 C   0  0  0  0  0  0  0  0  0  0  0  0
    0.0785    2.6853   -5.7050 N   0  0  0  0  0  0  0  0  0  0  0  0
    0.2780    4.0165   -6.1756 C   0  0  0  0  0  0  0  0  0  0  0  0
    1.5923    4.6376   -5.8415 C   0  0  0  0  0  0  0  0  0  0  0  0
    0.0452    4.1332   -7.6745 C   0  0  0  0  0  0  0  0  0  0  0  0
    1.2337   -4.1846   -4.7595 C   0  0  0  0  0  0  0  0  0  0  0  0
    1.9997   -5.1942   -4.6354 O   0  0  0  0  0  0  0  0  0  0  0  0
   -0.1208   -4.5730   -5.0943 N   0  0  0  0  0  0  0  0  0  0  0  0
   -0.5452   -5.9393   -5.3363 C   0  0  0  0  0  0  0  0  0  0  0  0
   -1.1913   -5.8256   -6.7039 C   0  0  0  0  0  0  0  0  0  0  0  0
   -1.8241   -4.4274   -6.6665 C   0  0  0  0  0  0  0  0  0  0  0  0
   -1.3798   -3.9189   -5.2814 C   0  0  1  0  0  0  0  0  0  0  0  0
   -2.4564   -4.4111   -4.3576 C   0  0  0  0  0  0  0  0  0  0  0  0
   -2.8502   -5.2347   -3.4720 O   0  0  0  0  0  0  0  0  0  0  0  0
   -3.6328   -3.5871   -4.5046 N   0  0  0  0  0  0  0  0  0  0  0  0
   -4.9256   -3.6619   -3.8304 C   0  0  2  0  0  0  0  0  0  0  0  0
   -6.0874   -3.5458   -4.7573 C   0  0  0  0  0  0  0  0  0  0  0  0
   -5.0108   -2.5097   -2.8643 C   0  0  0  0  0  0  0  0  0  0  0  0
   -6.3055   -2.6115   -2.2390 N   0  0  0  0  0  0  0  0  0  0  0  0
   -4.9900   -1.5197   -2.0849 O   0  0  0  0  0  0  0  0  0  0  0  0
    5.3185   -2.9968    1.8228 H   0  0  0  0  0  0  0  0  0  0  0  0
    3.6722   -2.5991    2.3919 H   0  0  0  0  0  0  0  0  0  0  0  0
    3.9609   -4.1670    1.5073 H   0  0  0  0  0  0  0  0  0  0  0  0
    2.8678   -2.3237    0.1638 H   0  0  0  0  0  0  0  0  0  0  0  0
    4.9589   -0.9041    1.4605 H   0  0  0  0  0  0  0  0  0  0  0  0
    3.7554   -0.2676    0.3457 H   0  0  0  0  0  0  0  0  0  0  0  0
    5.3807   -0.8418   -0.2404 H   0  0  0  0  0  0  0  0  0  0  0  0
    5.7061   -3.2811   -0.5554 H   0  0  0  0  0  0  0  0  0  0  0  0
    4.3007   -4.3470   -0.6036 H   0  0  0  0  0  0  0  0  0  0  0  0
    5.2047   -3.7039   -2.7562 H   0  0  0  0  0  0  0  0  0  0  0  0
    4.2162   -1.0474   -2.2657 H   0  0  0  0  0  0  0  0  0  0  0  0
    6.7695    0.9400   -2.1946 H   0  0  0  0  0  0  0  0  0  0  0  0
    6.7634    2.2439   -4.2401 H   0  0  0  0  0  0  0  0  0  0  0  0
    7.8915    0.8956   -4.2343 H   0  0  0  0  0  0  0  0  0  0  0  0
    5.3744    1.1595   -7.3835 H   0  0  0  0  0  0  0  0  0  0  0  0
    6.6477   -0.2228   -7.4777 H   0  0  0  0  0  0  0  0  0  0  0  0
    4.1250    0.7509   -3.6280 H   0  0  0  0  0  0  0  0  0  0  0  0
    2.1497    0.9560   -2.2722 H   0  0  0  0  0  0  0  0  0  0  0  0
    2.8009    2.4486   -3.8615 H   0  0  0  0  0  0  0  0  0  0  0  0
    1.2465    2.9729   -3.1678 H   0  0  0  0  0  0  0  0  0  0  0  0
    4.7587    3.6030   -3.7584 H   0  0  0  0  0  0  0  0  0  0  0  0
    6.0272    5.6152   -3.5416 H   0  0  0  0  0  0  0  0  0  0  0  0
    6.1673    7.7253   -2.1310 H   0  0  0  0  0  0  0  0  0  0  0  0
    2.6951    7.3685   -1.4303 H   0  0  0  0  0  0  0  0  0  0  0  0
    1.4257    5.1919   -1.7075 H   0  0  0  0  0  0  0  0  0  0  0  0
    3.4088    3.6777    0.0369 H   0  0  0  0  0  0  0  0  0  0  0  0
    1.5928    3.9940    0.3392 H   0  0  0  0  0  0  0  0  0  0  0  0
    2.5346    2.8866    1.3487 H   0  0  0  0  0  0  0  0  0  0  0  0
    0.7497   -0.5593   -0.6205 H   0  0  0  0  0  0  0  0  0  0  0  0
   -0.2385    0.9637   -2.4016 H   0  0  0  0  0  0  0  0  0  0  0  0
   -1.5642    1.3126   -1.1354 H   0  0  0  0  0  0  0  0  0  0  0  0
   -1.9324   -0.5723   -2.7215 H   0  0  0  0  0  0  0  0  0  0  0  0
   -1.2130    0.6222    1.3808 H   0  0  0  0  0  0  0  0  0  0  0  0
   -2.6157   -2.7405    1.8426 H   0  0  0  0  0  0  0  0  0  0  0  0
   -0.1323   -2.1712    3.4058 H   0  0  0  0  0  0  0  0  0  0  0  0
   -1.5396   -3.2047    3.8736 H   0  0  0  0  0  0  0  0  0  0  0  0
    1.4066   -3.0824    1.8816 H   0  0  0  0  0  0  0  0  0  0  0  0
    1.0466   -7.1078    0.5142 H   0  0  0  0  0  0  0  0  0  0  0  0
   -1.1622   -7.1744    1.5441 H   0  0  0  0  0  0  0  0  0  0  0  0
   -2.0995   -5.3555    2.6916 H   0  0  0  0  0  0  0  0  0  0  0  0
   -2.2034    0.0891    3.0281 H   0  0  0  0  0  0  0  0  0  0  0  0
   -5.2973   -0.8892    4.7281 H   0  0  0  0  0  0  0  0  0  0  0  0
   -4.1397   -2.1177    6.2592 H   0  0  0  0  0  0  0  0  0  0  0  0
   -4.7046   -0.5695    6.8940 H   0  0  0  0  0  0  0  0  0  0  0  0
   -3.2695    1.1005    7.8841 H   0  0  0  0  0  0  0  0  0  0  0  0
   -1.1074    1.6317    8.7294 H   0  0  0  0  0  0  0  0  0  0  0  0
    0.7613   -1.6754    6.7933 H   0  0  0  0  0  0  0  0  0  0  0  0
   -1.4256   -2.1907    5.9699 H   0  0  0  0  0  0  0  0  0  0  0  0
   -3.3264    1.1496    4.3264 H   0  0  0  0  0  0  0  0  0  0  0  0
   -5.4730    3.6679    3.5616 H   0  0  0  0  0  0  0  0  0  0  0  0
   -5.9238    4.4293    5.7489 H   0  0  0  0  0  0  0  0  0  0  0  0
   -4.6946    5.4200    4.9740 H   0  0  0  0  0  0  0  0  0  0  0  0
   -5.1599    3.4278    8.0367 H   0  0  0  0  0  0  0  0  0  0  0  0
    0.0627    4.7875    9.2055 H   0  0  0  0  0  0  0  0  0  0  0  0
   -0.3408    3.9095   11.3826 H   0  0  0  0  0  0  0  0  0  0  0  0
   -2.5761    2.9622   12.0516 H   0  0  0  0  0  0  0  0  0  0  0  0
   -4.3615    2.9405   10.3369 H   0  0  0  0  0  0  0  0  0  0  0  0
   -0.6912    5.2320    7.0578 H   0  0  0  0  0  0  0  0  0  0  0  0
   -2.3912    5.2143    5.3819 H   0  0  0  0  0  0  0  0  0  0  0  0
   -2.4553    3.2747    4.0063 H   0  0  0  0  0  0  0  0  0  0  0  0
   -2.4703    3.0688    0.4606 H   0  0  0  0  0  0  0  0  0  0  0  0
   -1.3506    3.6319    1.7545 H   0  0  0  0  0  0  0  0  0  0  0  0
   -2.3212    4.8187    0.8029 H   0  0  0  0  0  0  0  0  0  0  0  0
    3.3961   -1.7493   -4.4144 H   0  0  0  0  0  0  0  0  0  0  0  0
    0.5656   -2.3863   -4.0335 H   0  0  0  0  0  0  0  0  0  0  0  0
    2.1917   -2.6672   -6.6458 H   0  0  0  0  0  0  0  0  0  0  0  0
    0.4360   -2.4039   -6.5089 H   0  0  0  0  0  0  0  0  0  0  0  0
    2.7028   -0.3531   -6.0824 H   0  0  0  0  0  0  0  0  0  0  0  0
    1.5860   -0.5216   -7.4312 H   0  0  0  0  0  0  0  0  0  0  0  0
   -0.3479    0.0520   -6.0807 H   0  0  0  0  0  0  0  0  0  0  0  0
    0.6467    0.3219   -4.6264 H   0  0  0  0  0  0  0  0  0  0  0  0
    0.9512    1.7040   -7.3539 H   0  0  0  0  0  0  0  0  0  0  0  0
    2.0428    1.9224   -5.9900 H   0  0  0  0  0  0  0  0  0  0  0  0
   -0.9089    2.3892   -5.8890 H   0  0  0  0  0  0  0  0  0  0  0  0
   -0.5050    4.6696   -5.7158 H   0  0  0  0  0  0  0  0  0  0  0  0
    1.9696    5.3047   -6.6696 H   0  0  0  0  0  0  0  0  0  0  0  0
    2.3784    3.8910   -5.6888 H   0  0  0  0  0  0  0  0  0  0  0  0
    1.5090    5.3502   -4.9680 H   0  0  0  0  0  0  0  0  0  0  0  0
   -0.8341    3.5127   -7.9584 H   0  0  0  0  0  0  0  0  0  0  0  0
    0.9640    3.8768   -8.2285 H   0  0  0  0  0  0  0  0  0  0  0  0
   -0.2062    5.1887   -7.9048 H   0  0  0  0  0  0  0  0  0  0  0  0
    0.3330   -6.6148   -5.4787 H   0  0  0  0  0  0  0  0  0  0  0  0
   -1.1834   -6.3762   -4.5758 H   0  0  0  0  0  0  0  0  0  0  0  0
   -0.3728   -5.7852   -7.4510 H   0  0  0  0  0  0  0  0  0  0  0  0
   -1.9189   -6.6156   -6.9000 H   0  0  0  0  0  0  0  0  0  0  0  0
   -2.9177   -4.4989   -6.7486 H   0  0  0  0  0  0  0  0  0  0  0  0
   -1.3638   -3.7512   -7.3922 H   0  0  0  0  0  0  0  0  0  0  0  0
   -1.3794   -2.8351   -5.2144 H   0  0  0  0  0  0  0  0  0  0  0  0
   -3.7582   -2.7538   -5.1555 H   0  0  0  0  0  0  0  0  0  0  0  0
   -4.9899   -4.5731   -3.2182 H   0  0  0  0  0  0  0  0  0  0  0  0
   -5.8682   -3.8858   -5.7870 H   0  0  0  0  0  0  0  0  0  0  0  0
   -6.9965   -4.0486   -4.3749 H   0  0  0  0  0  0  0  0  0  0  0  0
   -6.3992   -2.4696   -4.8898 H   0  0  0  0  0  0  0  0  0  0  0  0
   -7.2315   -2.6829   -1.7454 H   0  0  0  0  0  0  0  0  0  0  0  0
   -7.2276   -2.7004   -2.7593 H   0  0  0  0  0  0  0  0  0  0  0  0
  1  2  1  0
  2  3  1  0
  2  4  1  0
  4  5  1  0
  5  6  1  0
  6  7  1  0
  7  8  2  0
  7  9  1  0
  9 10  1  0
 10 11  1  0
 11 12  1  0
 11 13  2  0
  9 14  1  0
 14 15  1  0
 15 16  2  0
 15 17  1  0
 17 18  1  0
 18 19  1  0
 19 20  2  0
 20 21  1  0
 21 22  2  0
 22 23  1  0
 22 24  1  0
 24 25  2  0
 17 26  1  0
 26 27  1  0
 26 28  1  0
 28 29  2  0
 28 30  1  0
 30 31  1  0
 31 32  1  0
 30 33  1  0
 33 34  1  0
 34 35  2  0
 34 36  1  0
 36 37  1  0
 37 38  1  0
 38 39  2  0
 39 40  1  0
 40 41  2  0
 41 42  1  0
 42 43  2  0
 36 44  1  0
 44 45  1  0
 45 46  2  0
 45 47  1  0
 47 48  1  0
 48 49  1  0
 49 50  2  0
 50 51  1  0
 51 52  2  0
 52 53  1  0
 52 54  1  0
 54 55  2  0
 47 56  1  0
 56 57  1  0
 57 58  2  0
 57 59  1  0
 59 60  1  0
 60 61  1  0
 61 62  2  0
 62 63  1  0
 63 64  2  0
 64 65  1  0
 65 66  2  0
 66 67  1  0
 67 68  2  0
 64 69  1  0
 69 70  2  0
 59 71  1  0
 71 72  1  0
 72 73  1  0
 72 74  2  0
  5 75  1  0
 75 76  2  0
 75 77  1  0
 77 78  1  0
 78 79  1  0
 79 80  1  0
 80 81  1  0
 81 82  1  0
 82 83  1  0
 83 84  1  0
 84 85  1  0
 84 86  1  0
 78 87  1  0
 87 88  2  0
 87 89  1  0
 89 90  1  0
 90 91  1  0
 91 92  1  0
 92 93  1  0
 93 94  1  0
 94 95  2  0
 94 96  1  0
 96 97  1  0
 97 98  1  0
 97 99  1  0
 99100  1  0
 99101  2  0
 25 19  1  0
 43 38  1  0
 55 49  1  0
 70 61  1  0
 93 89  1  0
 68 63  1  0
  1102  1  0
  1103  1  0
  1104  1  0
  2105  1  0
  3106  1  0
  3107  1  0
  3108  1  0
  4109  1  0
  4110  1  0
  5111  1  6
  6112  1  0
  9113  1  1
 10114  1  0
 10115  1  0
 12116  1  0
 12117  1  0
 14118  1  0
 17119  1  6
 18120  1  0
 18121  1  0
 20122  1  0
 21123  1  0
 23124  1  0
 24125  1  0
 25126  1  0
 27127  1  0
 27128  1  0
 27129  1  0
 30130  1  6
 31131  1  0
 31132  1  0
 32133  1  0
 33134  1  0
 36135  1  6
 37136  1  0
 37137  1  0
 39138  1  0
 41139  1  0
 42140  1  0
 43141  1  0
 44142  1  0
 47143  1  6
 48144  1  0
 48145  1  0
 50146  1  0
 51147  1  0
 54148  1  0
 55149  1  0
 56150  1  0
 59151  1  6
 60152  1  0
 60153  1  0
 62154  1  0
 65155  1  0
 66156  1  0
 67157  1  0
 68158  1  0
 69159  1  0
 70160  1  0
 71161  1  0
 73162  1  0
 73163  1  0
 73164  1  0
 77165  1  0
 78166  1  1
 79167  1  0
 79168  1  0
 80169  1  0
 80170  1  0
 81171  1  0
 81172  1  0
 82173  1  0
 82174  1  0
 83175  1  0
 84176  1  0
 85177  1  0
 85178  1  0
 85179  1  0
 86180  1  0
 86181  1  0
 86182  1  0
 90183  1  0
 90184  1  0
 91185  1  0
 91186  1  0
 92187  1  0
 92188  1  0
 93189  1  6
 96190  1  0
 97191  1  1
 98192  1  0
 98193  1  0
 98194  1  0
100195  1  0
100196  1  0
M  END
$$$$
