@<TRIPOS>MOLECULE
*****
 196 201 0 0 0
SMALL
GASTEIGER

@<TRIPOS>ATOM
      1 C           4.2333   -3.1206    1.5957 C.3     1  UNL1       -0.0626
      2 C           3.9540   -2.4321    0.2250 C.3     1  UNL1       -0.0446
      3 C           4.5346   -1.0448    0.4133 C.3     1  UNL1       -0.0626
      4 C           4.5922   -3.2749   -0.8021 C.3     1  UNL1       -0.0236
      5 C           4.5031   -2.9259   -2.2325 C.3     1  UNL1        0.0996
      6 N           5.0651   -1.6343   -2.5371 N.am    1  UNL1       -0.3025
      7 C           6.1795   -0.9184   -3.0045 C.2     1  UNL1        0.2344
      8 O           7.0978   -1.7507   -3.2839 O.2     1  UNL1       -0.2737
      9 C           6.1109    0.5773   -3.0836 C.3     1  UNL1        0.1076
     10 C           6.7794    1.1230   -4.2862 C.3     1  UNL1        0.0506
     11 C           6.2986    0.6872   -5.5812 C.2     1  UNL1        0.2127
     12 N           6.0879    0.5178   -6.9611 N.am    1  UNL1       -0.3293
     13 O           5.4328   -0.1724   -5.2287 O.2     1  UNL1       -0.2760
     14 N           4.7662    0.9919   -2.8194 N.am    1  UNL1       -0.3020
     15 C           4.0714    1.6437   -1.7506 C.2     1  UNL1        0.2345
     16 O           4.8453    1.9467   -0.7700 O.2     1  UNL1       -0.2737
     17 C           2.6125    1.8930   -1.8555 C.3     1  UNL1        0.1058
     18 C           2.3298    2.9200   -2.9501 C.3     1  UNL1       -0.0005
     19 C           2.9665    4.2292   -2.7308 C.ar    1  UNL1       -0.0449
     20 C           4.2650    4.4163   -3.2283 C.ar    1  UNL1       -0.0551
     21 C           5.0386    5.5877   -3.1265 C.ar    1  UNL1       -0.0199
     22 C           4.3817    6.6148   -2.4534 C.ar    1  UNL1        0.1169
     23 O           5.1892    7.7566   -2.3808 O.3     1  UNL1       -0.5068
     24 C           3.1113    6.4976   -1.9408 C.ar    1  UNL1       -0.0199
     25 C           2.4355    5.3264   -2.0865 C.ar    1  UNL1       -0.0551
     26 N           2.0172    2.1877   -0.6020 N.am    1  UNL1       -0.2911
     27 C           2.4145    3.2843    0.2940 C.3     1  UNL1        0.0040
     28 C           0.9583    1.4537   -0.0090 C.2     1  UNL1        0.2385
     29 O           0.3826    1.6100    1.0952 O.2     1  UNL1       -0.2735
     30 CA          0.1282    0.3014   -0.3676 C.3     1  UNL1        0.1228
     31 C          -0.8109    0.6166   -1.5494 C.3     1  UNL1        0.0711
     32 O          -1.5496   -0.5670   -1.8043 O.3     1  UNL1       -0.3927
     33 N          -0.7460   -0.0637    0.7542 N.am    1  UNL1       -0.3005
     34 C          -1.0236   -1.4418    1.0596 C.2     1  UNL1        0.2343
     35 O          -0.4534   -2.2097    0.2329 O.2     1  UNL1       -0.2738
     36 CA         -1.8201   -2.0171    2.1286 C.3     1  UNL1        0.1034
     37 C          -0.9227   -2.8635    3.0481 C.3     1  UNL1        0.0008
     38 C          -0.2723   -3.9903    2.3264 C.ar    1  UNL1       -0.0270
     39 C           0.9547   -4.0657    1.7118 C.ar    1  UNL1        0.0308
     40 N           1.3728   -5.1608    1.0965 N.ar    1  UNL1       -0.2630
     41 C           0.6199   -6.2546    1.0416 C.ar    1  UNL1        0.0276
     42 C          -0.6049   -6.2372    1.6346 C.ar    1  UNL1       -0.0433
     43 C          -1.1113   -5.1162    2.3026 C.ar    1  UNL1       -0.0556
     44 N          -2.3772   -0.9413    2.9362 N.am    1  UNL1       -0.3022
     45 C          -3.4019   -1.2438    3.8604 C.2     1  UNL1        0.2343
     46 O          -3.7144   -2.4973    3.8808 O.2     1  UNL1       -0.2738
     47 CA         -4.2448   -0.5613    4.8415 C.3     1  UNL1        0.1034
     48 C          -3.9098   -1.0024    6.2563 C.3     1  UNL1       -0.0007
     49 C          -2.5745   -0.7400    6.7312 C.ar    1  UNL1       -0.0451
     50 C          -2.4924    0.4246    7.5691 C.ar    1  UNL1       -0.0571
     51 C          -1.2359    0.7522    8.0735 C.ar    1  UNL1       -0.0431
     52 C          -0.0589    0.0907    7.8639 C.ar    1  UNL1        0.0410
     53 CL          1.4570    0.5808    8.5611 Cl      1  UNL1       -0.0835
     54 C          -0.0756   -1.0640    7.0473 C.ar    1  UNL1       -0.0431
     55 C          -1.3513   -1.2816    6.6179 C.ar    1  UNL1       -0.0571
     56 N          -4.2742    0.8627    4.6511 N.am    1  UNL1       -0.3022
     57 C          -5.0884    2.0070    4.7500 C.2     1  UNL1        0.2343
     58 O          -6.2578    1.7642    5.2264 O.2     1  UNL1       -0.2738
     59 CA         -4.7326    3.3490    4.3653 C.3     1  UNL1        0.1033
     60 C          -4.8336    4.3829    5.4268 C.3     1  UNL1       -0.0006
     61 C          -4.0055    4.2731    6.6104 C.ar    1  UNL1       -0.0445
     62 C          -4.1521    3.7959    7.9288 C.ar    1  UNL1       -0.0508
     63 C          -3.1087    3.8526    8.8242 C.ar    1  UNL1       -0.0176
     64 C          -1.8765    4.3681    8.5053 C.ar    1  UNL1       -0.0179
     65 C          -0.9006    4.3790    9.4528 C.ar    1  UNL1       -0.0540
     66 C          -1.1704    3.8781   10.6892 C.ar    1  UNL1       -0.0612
     67 C          -2.4136    3.3413   11.0574 C.ar    1  UNL1       -0.0612
     68 C          -3.4032    3.3409   10.0675 C.ar    1  UNL1       -0.0540
     69 C          -1.6666    4.8440    7.2608 C.ar    1  UNL1       -0.0538
     70 C          -2.7158    4.7906    6.3490 C.ar    1  UNL1       -0.0579
     71 N          -3.4347    3.4061    3.6861 N.am    1  UNL1       -0.3039
     72 C          -3.4229    3.7023    2.2868 C.2     1  UNL1        0.2105
     73 C          -2.3194    3.8258    1.2819 C.3     1  UNL1        0.0122
     74 O          -4.4822    3.9241    1.6222 O.2     1  UNL1       -0.2761
     75 C           3.1853   -3.1434   -2.8527 C.2     1  UNL1        0.2340
     76 O           2.4198   -3.9990   -2.3415 O.2     1  UNL1       -0.2738
     77 N           2.7233   -2.4362   -4.0197 N.am    1  UNL1       -0.3025
     78 C           1.4175   -2.6318   -4.6332 C.3     1  UNL1        0.0996
     79 C           1.4024   -2.1093   -6.0167 C.3     1  UNL1       -0.0259
     80 C           1.6395   -0.6856   -6.3071 C.3     1  UNL1       -0.0498
     81 C           0.6665    0.3123   -5.7359 C.3     1  UNL1       -0.0404
     82 C           1.0064    1.7162   -6.2220 C.3     1  UNL1       -0.0039
     83 N           0.0785    2.6853   -5.7050 N.3     1  UNL1       -0.3138
     84 C           0.2780    4.0165   -6.1756 C.3     1  UNL1        0.0020
     85 C           1.5923    4.6376   -5.8415 C.3     1  UNL1       -0.0499
     86 C           0.0452    4.1332   -7.6745 C.3     1  UNL1       -0.0499
     87 C           1.2337   -4.1846   -4.7595 C.2     1  UNL1        0.2365
     88 O           1.9997   -5.1942   -4.6354 O.2     1  UNL1       -0.2735
     89 N          -0.1208   -4.5730   -5.0943 N.am    1  UNL1       -0.2884
     90 C          -0.5452   -5.9393   -5.3363 C.3     1  UNL1        0.0156
     91 C          -1.1913   -5.8256   -6.7039 C.3     1  UNL1       -0.0350
     92 C          -1.8241   -4.4274   -6.6665 C.3     1  UNL1       -0.0243
     93 C          -1.3798   -3.9189   -5.2814 C.3     1  UNL1        0.1023
     94 C          -2.4564   -4.4111   -4.3576 C.2     1  UNL1        0.2342
     95 O          -2.8502   -5.2347   -3.4720 O.2     1  UNL1       -0.2738
     96 N          -3.6328   -3.5871   -4.5046 N.am    1  UNL1       -0.3027
     97 C          -4.9256   -3.6619   -3.8304 C.3     1  UNL1        0.0964
     98 C          -6.0874   -3.5458   -4.7573 C.3     1  UNL1       -0.0381
     99 C          -5.0108   -2.5097   -2.8643 C.2     1  UNL1        0.2306
    100 N          -6.3055   -2.6115   -2.2390 N.am    1  UNL1       -0.3278
    101 O          -4.9900   -1.5197   -2.0849 O.2     1  UNL1       -0.2740
    102 H           5.3185   -2.9968    1.8228 H       1  UNL1        0.0232
    103 H           3.6722   -2.5991    2.3919 H       1  UNL1        0.0232
    104 H           3.9609   -4.1670    1.5073 H       1  UNL1        0.0232
    105 H           2.8678   -2.3237    0.1638 H       1  UNL1        0.0296
    106 H           4.9589   -0.9041    1.4605 H       1  UNL1        0.0232
    107 H           3.7554   -0.2676    0.3457 H       1  UNL1        0.0232
    108 H           5.3807   -0.8418   -0.2404 H       1  UNL1        0.0232
    109 H           5.7061   -3.2811   -0.5554 H       1  UNL1        0.0290
    110 H           4.3007   -4.3470   -0.6036 H       1  UNL1        0.0290
    111 H           5.2047   -3.7039   -2.7562 H       1  UNL1        0.0594
    112 H           4.2162   -1.0474   -2.2657 H       1  UNL1        0.1495
    113 H           6.7695    0.9400   -2.1946 H       1  UNL1        0.0599
    114 H           6.7634    2.2439   -4.2401 H       1  UNL1        0.0381
    115 H           7.8915    0.8956   -4.2343 H       1  UNL1        0.0381
    116 H           5.3744    1.1595   -7.3835 H       1  UNL1        0.1449
    117 H           6.6477   -0.2228   -7.4777 H       1  UNL1        0.1449
    118 H           4.1250    0.7509   -3.6280 H       1  UNL1        0.1495
    119 H           2.1497    0.9560   -2.2722 H       1  UNL1        0.0600
    120 H           2.8009    2.4486   -3.8615 H       1  UNL1        0.0336
    121 H           1.2465    2.9729   -3.1678 H       1  UNL1        0.0336
    122 H           4.7587    3.6030   -3.7584 H       1  UNL1        0.0621
    123 H           6.0272    5.6152   -3.5416 H       1  UNL1        0.0654
    124 H           6.1673    7.7253   -2.1310 H       1  UNL1        0.2921
    125 H           2.6951    7.3685   -1.4303 H       1  UNL1        0.0654
    126 H           1.4257    5.1919   -1.7075 H       1  UNL1        0.0621
    127 H           3.4088    3.6777    0.0369 H       1  UNL1        0.0429
    128 H           1.5928    3.9940    0.3392 H       1  UNL1        0.0429
    129 H           2.5346    2.8866    1.3487 H       1  UNL1        0.0429
    130 HA          0.7497   -0.5593   -0.6205 H       1  UNL1        0.0618
    131 H1         -0.2385    0.9637   -2.4016 H       1  UNL1        0.0580
    132 H2         -1.5642    1.3126   -1.1354 H       1  UNL1        0.0580
    133 H          -1.9324   -0.5723   -2.7215 H       1  UNL1        0.2095
    134 H          -1.2130    0.6222    1.3808 H       1  UNL1        0.1496
    135 HA         -2.6157   -2.7405    1.8426 H       1  UNL1        0.0598
    136 H          -0.1323   -2.1712    3.4058 H       1  UNL1        0.0336
    137 H          -1.5396   -3.2047    3.8736 H       1  UNL1        0.0336
    138 H           1.4066   -3.0824    1.8816 H       1  UNL1        0.0832
    139 H           1.0466   -7.1078    0.5142 H       1  UNL1        0.0829
    140 H          -1.1622   -7.1744    1.5441 H       1  UNL1        0.0633
    141 H          -2.0995   -5.3555    2.6916 H       1  UNL1        0.0621
    142 H          -2.2034    0.0891    3.0281 H       1  UNL1        0.1495
    143 HA         -5.2973   -0.8892    4.7281 H       1  UNL1        0.0598
    144 H          -4.1397   -2.1177    6.2592 H       1  UNL1        0.0336
    145 H          -4.7046   -0.5695    6.8940 H       1  UNL1        0.0336
    146 H          -3.2695    1.1005    7.8841 H       1  UNL1        0.0621
    147 H          -1.1074    1.6317    8.7294 H       1  UNL1        0.0632
    148 H           0.7613   -1.6754    6.7933 H       1  UNL1        0.0632
    149 H          -1.4256   -2.1907    5.9699 H       1  UNL1        0.0621
    150 H          -3.3264    1.1496    4.3264 H       1  UNL1        0.1495
    151 HA         -5.4730    3.6679    3.5616 H       1  UNL1        0.0598
    152 H          -5.9238    4.4293    5.7489 H       1  UNL1        0.0336
    153 H          -4.6946    5.4200    4.9740 H       1  UNL1        0.0336
    154 H          -5.1599    3.4278    8.0367 H       1  UNL1        0.0626
    155 H           0.0627    4.7875    9.2055 H       1  UNL1        0.0624
    156 H          -0.3408    3.9095   11.3826 H       1  UNL1        0.0618
    157 H          -2.5761    2.9622   12.0516 H       1  UNL1        0.0618
    158 H          -4.3615    2.9405   10.3369 H       1  UNL1        0.0624
    159 H          -0.6912    5.2320    7.0578 H       1  UNL1        0.0624
    160 H          -2.3912    5.2143    5.3819 H       1  UNL1        0.0620
    161 H          -2.4553    3.2747    4.0063 H       1  UNL1        0.1495
    162 H          -2.4703    3.0688    0.4606 H       1  UNL1        0.0322
    163 H          -1.3506    3.6319    1.7545 H       1  UNL1        0.0322
    164 H          -2.3212    4.8187    0.8029 H       1  UNL1        0.0322
    165 H           3.3961   -1.7493   -4.4144 H       1  UNL1        0.1495
    166 H           0.5656   -2.3863   -4.0335 H       1  UNL1        0.0594
    167 H           2.1917   -2.6672   -6.6458 H       1  UNL1        0.0288
    168 H           0.4360   -2.4039   -6.5089 H       1  UNL1        0.0288
    169 H           2.7028   -0.3531   -6.0824 H       1  UNL1        0.0266
    170 H           1.5860   -0.5216   -7.4312 H       1  UNL1        0.0266
    171 H          -0.3479    0.0520   -6.0807 H       1  UNL1        0.0277
    172 H           0.6467    0.3219   -4.6264 H       1  UNL1        0.0277
    173 H           0.9512    1.7040   -7.3539 H       1  UNL1        0.0424
    174 H           2.0428    1.9224   -5.9900 H       1  UNL1        0.0424
    175 H          -0.9089    2.3892   -5.8890 H       1  UNL1        0.1222
    176 H          -0.5050    4.6696   -5.7158 H       1  UNL1        0.0455
    177 H           1.9696    5.3047   -6.6696 H       1  UNL1        0.0245
    178 H           2.3784    3.8910   -5.6888 H       1  UNL1        0.0245
    179 H           1.5090    5.3502   -4.9680 H       1  UNL1        0.0245
    180 H          -0.8341    3.5127   -7.9584 H       1  UNL1        0.0245
    181 H           0.9640    3.8768   -8.2285 H       1  UNL1        0.0245
    182 H          -0.2062    5.1887   -7.9048 H       1  UNL1        0.0245
    183 H           0.3330   -6.6148   -5.4787 H       1  UNL1        0.0465
    184 H          -1.1834   -6.3762   -4.5758 H       1  UNL1        0.0465
    185 H          -0.3728   -5.7852   -7.4510 H       1  UNL1        0.0281
    186 H          -1.9189   -6.6156   -6.9000 H       1  UNL1        0.0281
    187 H          -2.9177   -4.4989   -6.7486 H       1  UNL1        0.0288
    188 H          -1.3638   -3.7512   -7.3922 H       1  UNL1        0.0288
    189 H          -1.3794   -2.8351   -5.2144 H       1  UNL1        0.0597
    190 H          -3.7582   -2.7538   -5.1555 H       1  UNL1        0.1495
    191 H          -4.9899   -4.5731   -3.2182 H       1  UNL1        0.0592
    192 H          -5.8682   -3.8858   -5.7870 H       1  UNL1        0.0252
    193 H          -6.9965   -4.0486   -4.3749 H       1  UNL1        0.0252
    194 H          -6.3992   -2.4696   -4.8898 H       1  UNL1        0.0252
    195 H          -7.2315   -2.6829   -1.7454 H       1  UNL1        0.1450
    196 H          -7.2276   -2.7004   -2.7593 H       1  UNL1        0.1450
@<TRIPOS>BOND
     1     1     2    1
     2     2     3    1
     3     2     4    1
     4     4     5    1
     5     5     6    1
     6     6     7   am
     7     7     8    2
     8     7     9    1
     9     9    10    1
    10    10    11    1
    11    11    12   am
    12    11    13    2
    13     9    14    1
    14    14    15   am
    15    15    16    2
    16    15    17    1
    17    17    18    1
    18    18    19    1
    19    19    20   ar
    20    20    21   ar
    21    21    22   ar
    22    22    23    1
    23    22    24   ar
    24    24    25   ar
    25    17    26    1
    26    26    27    1
    27    26    28   am
    28    28    29    2
    29    28    30    1
    30    30    31    1
    31    31    32    1
    32    30    33    1
    33    33    34   am
    34    34    35    2
    35    34    36    1
    36    36    37    1
    37    37    38    1
    38    38    39   ar
    39    39    40   ar
    40    40    41   ar
    41    41    42   ar
    42    42    43   ar
    43    36    44    1
    44    44    45   am
    45    45    46    2
    46    45    47    1
    47    47    48    1
    48    48    49    1
    49    49    50   ar
    50    50    51   ar
    51    51    52   ar
    52    52    53    1
    53    52    54   ar
    54    54    55   ar
    55    47    56    1
    56    56    57   am
    57    57    58    2
    58    57    59    1
    59    59    60    1
    60    60    61    1
    61    61    62   ar
    62    62    63   ar
    63    63    64   ar
    64    64    65   ar
    65    65    66   ar
    66    66    67   ar
    67    67    68   ar
    68    64    69   ar
    69    69    70   ar
    70    59    71    1
    71    71    72   am
    72    72    73    1
    73    72    74    2
    74     5    75    1
    75    75    76    2
    76    75    77   am
    77    77    78    1
    78    78    79    1
    79    79    80    1
    80    80    81    1
    81    81    82    1
    82    82    83    1
    83    83    84    1
    84    84    85    1
    85    84    86    1
    86    78    87    1
    87    87    88    2
    88    87    89   am
    89    89    90    1
    90    90    91    1
    91    91    92    1
    92    92    93    1
    93    93    94    1
    94    94    95    2
    95    94    96   am
    96    96    97    1
    97    97    98    1
    98    97    99    1
    99    99   100   am
   100    99   101    2
   101    25    19   ar
   102    43    38   ar
   103    55    49   ar
   104    70    61   ar
   105    93    89    1
   106    68    63   ar
   107     1   102    1
   108     1   103    1
   109     1   104    1
   110     2   105    1
   111     3   106    1
   112     3   107    1
   113     3   108    1
   114     4   109    1
   115     4   110    1
   116     5   111    1
   117     6   112    1
   118     9   113    1
   119    10   114    1
   120    10   115    1
   121    12   116    1
   122    12   117    1
   123    14   118    1
   124    17   119    1
   125    18   120    1
   126    18   121    1
   127    20   122    1
   128    21   123    1
   129    23   124    1
   130    24   125    1
   131    25   126    1
   132    27   127    1
   133    27   128    1
   134    27   129    1
   135    30   130    1
   136    31   131    1
   137    31   132    1
   138    32   133    1
   139    33   134    1
   140    36   135    1
   141    37   136    1
   142    37   137    1
   143    39   138    1
   144    41   139    1
   145    42   140    1
   146    43   141    1
   147    44   142    1
   148    47   143    1
   149    48   144    1
   150    48   145    1
   151    50   146    1
   152    51   147    1
   153    54   148    1
   154    55   149    1
   155    56   150    1
   156    59   151    1
   157    60   152    1
   158    60   153    1
   159    62   154    1
   160    65   155    1
   161    66   156    1
   162    67   157    1
   163    68   158    1
   164    69   159    1
   165    70   160    1
   166    71   161    1
   167    73   162    1
   168    73   163    1
   169    73   164    1
   170    77   165    1
   171    78   166    1
   172    79   167    1
   173    79   168    1
   174    80   169    1
   175    80   170    1
   176    81   171    1
   177    81   172    1
   178    82   173    1
   179    82   174    1
   180    83   175    1
   181    84   176    1
   182    85   177    1
   183    85   178    1
   184    85   179    1
   185    86   180    1
   186    86   181    1
   187    86   182    1
   188    90   183    1
   189    90   184    1
   190    91   185    1
   191    91   186    1
   192    92   187    1
   193    92   188    1
   194    93   189    1
   195    96   190    1
   196    97   191    1
   197    98   192    1
   198    98   193    1
   199    98   194    1
   200   100   195    1
   201   100   196    1
