
     RDKit          3D

 43 45  0  0  0  0  0  0  0  0999 V2000
    4.2649   -3.6283   -1.4231 O   0  0  0  0  0  0  0  0  0  0  0  0
    4.3401   -2.1310   -1.1476 S   0  0  0  0  0  6  0  0  0  0  0  0
    4.9986   -1.5790   -2.4201 O   0  0  0  0  0  0  0  0  0  0  0  0
    5.3116   -1.8611    0.1879 N   0  0  0  0  0  0  0  0  0  0  0  0
    5.7490   -0.6778    0.7758 C   0  0  0  0  0  0  0  0  0  0  0  0
    6.4370   -0.3954    1.7525 N   0  0  0  0  0  0  0  0  0  0  0  0
    6.7987    0.7599    2.1725 C   0  0  0  0  0  0  0  0  0  0  0  0
    6.3732    1.8624    1.4500 C   0  0  0  0  0  0  0  0  0  0  0  0
    5.4222    1.0355    0.1408 S   0  0  0  0  0  0  0  0  0  0  0  0
    2.7072   -1.5438   -1.0675 C   0  0  0  0  0  0  0  0  0  0  0  0
    1.7121   -2.4412   -0.6482 C   0  0  0  0  0  0  0  0  0  0  0  0
    0.4085   -2.0891   -0.4748 C   0  0  0  0  0  0  0  0  0  0  0  0
   -0.7265   -3.3154    0.0534 Cl  0  0  0  0  0  0  0  0  0  0  0  0
   -0.0159   -0.8002   -0.7073 C   0  0  0  0  0  0  0  0  0  0  0  0
   -1.3866   -0.4288   -0.5236 N   0  0  0  0  0  0  0  0  0  0  0  0
   -1.7593    0.9443   -0.7872 C   0  0  0  0  0  0  0  0  0  0  0  0
   -3.2206    1.2007   -0.5569 C   0  0  2  0  0  0  0  0  0  0  0  0
   -3.6613    0.9264    0.8408 C   0  0  0  0  0  0  0  0  0  0  0  0
   -5.1128    1.1946    1.0126 C   0  0  0  0  0  0  0  0  0  0  0  0
   -5.9682    0.8016   -0.1438 C   0  0  0  0  0  0  0  0  0  0  0  0
   -5.4240    1.1027   -1.4274 N   0  0  0  0  0  0  0  0  0  0  0  0
   -4.1080    0.4587   -1.5078 C   0  0  0  0  0  0  0  0  0  0  0  0
    0.9369    0.0906   -1.1181 C   0  0  0  0  0  0  0  0  0  0  0  0
    2.2810   -0.2723   -1.2984 C   0  0  0  0  0  0  0  0  0  0  0  0
    3.1518    0.6393   -1.7787 F   0  0  0  0  0  0  0  0  0  0  0  0
    5.6715   -2.7604    0.6954 H   0  0  0  0  0  0  0  0  0  0  0  0
    7.4246    0.9290    3.0690 H   0  0  0  0  0  0  0  0  0  0  0  0
    6.5166    2.9026    1.5626 H   0  0  0  0  0  0  0  0  0  0  0  0
    2.0517   -3.4696   -0.4631 H   0  0  0  0  0  0  0  0  0  0  0  0
   -2.0493   -1.1645   -0.2092 H   0  0  0  0  0  0  0  0  0  0  0  0
   -1.1249    1.6192   -0.1811 H   0  0  0  0  0  0  0  0  0  0  0  0
   -1.5478    1.1532   -1.8532 H   0  0  0  0  0  0  0  0  0  0  0  0
   -3.3835    2.2940   -0.7476 H   0  0  0  0  0  0  0  0  0  0  0  0
   -3.4088   -0.1067    1.1748 H   0  0  0  0  0  0  0  0  0  0  0  0
   -3.1080    1.6471    1.5121 H   0  0  0  0  0  0  0  0  0  0  0  0
   -5.3081    2.2606    1.3303 H   0  0  0  0  0  0  0  0  0  0  0  0
   -5.4622    0.5879    1.8993 H   0  0  0  0  0  0  0  0  0  0  0  0
   -6.9336    1.3808   -0.0507 H   0  0  0  0  0  0  0  0  0  0  0  0
   -6.2750   -0.2685   -0.1266 H   0  0  0  0  0  0  0  0  0  0  0  0
   -5.2202    2.1417   -1.4752 H   0  0  0  0  0  0  0  0  0  0  0  0
   -4.2603   -0.5662   -1.0961 H   0  0  0  0  0  0  0  0  0  0  0  0
   -3.7342    0.4452   -2.5442 H   0  0  0  0  0  0  0  0  0  0  0  0
    0.6421    1.1214   -1.3130 H   0  0  0  0  0  0  0  0  0  0  0  0
  1  2  2  0
  2  3  2  0
  2  4  1  0
  4  5  1  0
  5  6  2  0
  6  7  1  0
  7  8  2  0
  8  9  1  0
  2 10  1  0
 10 11  2  0
 11 12  1  0
 12 13  1  0
 12 14  2  0
 14 15  1  0
 15 16  1  0
 16 17  1  0
 17 18  1  0
 18 19  1  0
 19 20  1  0
 20 21  1  0
 21 22  1  0
 14 23  1  0
 23 24  2  0
 24 25  1  0
  9  5  1  0
 24 10  1  0
 22 17  1  0
  4 26  1  0
  7 27  1  0
  8 28  1  0
 11 29  1  0
 15 30  1  0
 16 31  1  0
 16 32  1  0
 17 33  1  6
 18 34  1  0
 18 35  1  0
 19 36  1  0
 19 37  1  0
 20 38  1  0
 20 39  1  0
 21 40  1  0
 22 41  1  0
 22 42  1  0
 23 43  1  0
M  END
$$$$
