@<TRIPOS>MOLECULE
*****
 43 45 0 0 0
SMALL
GASTEIGER

@<TRIPOS>ATOM
      1 O           4.2649   -3.6283   -1.4231 O.2     1  UNL1       -0.1498
      2 S           4.3401   -2.1310   -1.1476 S.O2    1  UNL1        0.0766
      3 O           4.9986   -1.5790   -2.4201 O.2     1  UNL1       -0.1498
      4 N           5.3116   -1.8611    0.1879 N.pl3   1  UNL1       -0.1937
      5 C           5.7490   -0.6778    0.7758 C.ar    1  UNL1        0.1774
      6 N           6.4370   -0.3954    1.7525 N.ar    1  UNL1       -0.2321
      7 C           6.7987    0.7599    2.1725 C.ar    1  UNL1        0.0369
      8 C           6.3732    1.8624    1.4500 C.ar    1  UNL1       -0.0030
      9 S           5.4222    1.0355    0.1408 S.2     1  UNL1       -0.0594
     10 C           2.7072   -1.5438   -1.0675 C.ar    1  UNL1        0.1450
     11 C           1.7121   -2.4412   -0.6482 C.ar    1  UNL1       -0.0121
     12 C           0.4085   -2.0891   -0.4748 C.ar    1  UNL1        0.0638
     13 CL         -0.7265   -3.3154    0.0534 Cl      1  UNL1       -0.0816
     14 C          -0.0159   -0.8002   -0.7073 C.ar    1  UNL1        0.0485
     15 N          -1.3866   -0.4288   -0.5236 N.pl3   1  UNL1       -0.3423
     16 C          -1.7593    0.9443   -0.7872 C.3     1  UNL1        0.0131
     17 C          -3.2206    1.2007   -0.5569 C.3     1  UNL1       -0.0130
     18 C          -3.6613    0.9264    0.8408 C.3     1  UNL1       -0.0465
     19 C          -5.1128    1.1946    1.0126 C.3     1  UNL1       -0.0401
     20 C          -5.9682    0.8016   -0.1438 C.3     1  UNL1       -0.0041
     21 N          -5.4240    1.1027   -1.4274 N.3     1  UNL1       -0.3157
     22 C          -4.1080    0.4587   -1.5078 C.3     1  UNL1        0.0001
     23 C           0.9369    0.0906   -1.1181 C.ar    1  UNL1       -0.0022
     24 C           2.2810   -0.2723   -1.2984 C.ar    1  UNL1        0.1517
     25 F           3.1518    0.6393   -1.7787 F       1  UNL1       -0.2034
     26 H           5.6715   -2.7604    0.6954 H       1  UNL1        0.1758
     27 H           7.4246    0.9290    3.0690 H       1  UNL1        0.0835
     28 H           6.5166    2.9026    1.5626 H       1  UNL1        0.0710
     29 H           2.0517   -3.4696   -0.4631 H       1  UNL1        0.0653
     30 H          -2.0493   -1.1645   -0.2092 H       1  UNL1        0.1461
     31 H          -1.1249    1.6192   -0.1811 H       1  UNL1        0.0464
     32 H          -1.5478    1.1532   -1.8532 H       1  UNL1        0.0464
     33 H          -3.3835    2.2940   -0.7476 H       1  UNL1        0.0328
     34 H          -3.4088   -0.1067    1.1748 H       1  UNL1        0.0269
     35 H          -3.1080    1.6471    1.5121 H       1  UNL1        0.0269
     36 H          -5.3081    2.2606    1.3303 H       1  UNL1        0.0278
     37 H          -5.4622    0.5879    1.8993 H       1  UNL1        0.0278
     38 H          -6.9336    1.3808   -0.0507 H       1  UNL1        0.0424
     39 H          -6.2750   -0.2685   -0.1266 H       1  UNL1        0.0424
     40 H          -5.2202    2.1417   -1.4752 H       1  UNL1        0.1219
     41 H          -4.2603   -0.5662   -1.0961 H       1  UNL1        0.0427
     42 H          -3.7342    0.4452   -2.5442 H       1  UNL1        0.0427
     43 H           0.6421    1.1214   -1.3130 H       1  UNL1        0.0666
@<TRIPOS>BOND
     1     1     2    2
     2     2     3    2
     3     2     4    1
     4     4     5    1
     5     5     6   ar
     6     6     7   ar
     7     7     8   ar
     8     8     9   ar
     9     2    10    1
    10    10    11   ar
    11    11    12   ar
    12    12    13    1
    13    12    14   ar
    14    14    15    1
    15    15    16    1
    16    16    17    1
    17    17    18    1
    18    18    19    1
    19    19    20    1
    20    20    21    1
    21    21    22    1
    22    14    23   ar
    23    23    24   ar
    24    24    25    1
    25     9     5   ar
    26    24    10   ar
    27    22    17    1
    28     4    26    1
    29     7    27    1
    30     8    28    1
    31    11    29    1
    32    15    30    1
    33    16    31    1
    34    16    32    1
    35    17    33    1
    36    18    34    1
    37    18    35    1
    38    19    36    1
    39    19    37    1
    40    20    38    1
    41    20    39    1
    42    21    40    1
    43    22    41    1
    44    22    42    1
    45    23    43    1
