@<TRIPOS>MOLECULE
*****
 76 80 0 0 0
SMALL
GASTEIGER

@<TRIPOS>ATOM
      1 C          -5.1061    4.6995    2.3494 C.3     1  UNL1       -0.0397
      2 C          -5.0317    3.3871    1.6172 C.ar    1  UNL1       -0.0503
      3 C          -5.3724    3.2965    0.2888 C.ar    1  UNL1       -0.0568
      4 C          -5.3020    2.0863   -0.3814 C.ar    1  UNL1       -0.0359
      5 C          -4.8914    0.9284    0.2460 C.ar    1  UNL1        0.0674
      6 N          -4.8082   -0.3293   -0.4135 N.ar    1  UNL1       -0.2181
      7 N          -5.6822   -1.3058   -0.2366 N.ar    1  UNL1       -0.1691
      8 C          -5.3449   -2.3757   -0.9917 C.ar    1  UNL1        0.0706
      9 C          -6.0267   -3.6903   -1.1166 C.3     1  UNL1        0.0063
     10 C          -5.5139   -4.6919   -0.1200 C.3     1  UNL1       -0.0546
     11 C          -5.9675   -4.2223   -2.5329 C.3     1  UNL1       -0.0546
     12 C          -7.5087   -3.4676   -0.7896 C.3     1  UNL1       -0.0546
     13 C          -4.1803   -1.9928   -1.6630 C.ar    1  UNL1        0.0021
     14 C          -3.8559   -0.7058   -1.2898 C.ar    1  UNL1        0.1299
     15 N          -2.7434    0.0549   -1.7428 N.am    1  UNL1       -0.2538
     16 C          -1.4930    0.0597   -1.1041 C.2     1  UNL1        0.3092
     17 O          -1.3365   -0.6349   -0.0814 O.2     1  UNL1       -0.2521
     18 N          -0.4042    0.8508   -1.6153 N.am    1  UNL1       -0.2686
     19 C           0.8589    0.8624   -0.9747 C.ar    1  UNL1        0.0427
     20 C           1.8151   -0.0572   -1.3361 C.ar    1  UNL1       -0.0364
     21 C           3.0706   -0.0708   -0.7231 C.ar    1  UNL1       -0.0176
     22 C           3.3915    0.8270    0.2531 C.ar    1  UNL1        0.1283
     23 O           4.5468    0.9138    0.9100 O.3     1  UNL1       -0.4901
     24 C           5.7532    0.2423    0.8774 C.3     1  UNL1        0.1023
     25 C           6.4392    0.4041   -0.4270 C.3     1  UNL1        0.0333
     26 N           7.6977   -0.2769   -0.5318 N.3     1  UNL1       -0.2948
     27 C           7.6562   -1.6920   -0.5448 C.3     1  UNL1        0.0225
     28 C           8.8214   -2.2320    0.2571 C.3     1  UNL1        0.0604
     29 O           8.7915   -1.6474    1.5224 O.3     1  UNL1       -0.3772
     30 C           9.1301   -0.3078    1.4761 C.3     1  UNL1        0.0604
     31 C           8.7858    0.3315    0.1571 C.3     1  UNL1        0.0225
     32 C           2.3875    1.7494    0.5936 C.ar    1  UNL1        0.0256
     33 C           2.6333    2.6879    1.5697 C.ar    1  UNL1       -0.0505
     34 C           1.6868    3.6117    1.9393 C.ar    1  UNL1       -0.0611
     35 C           0.4366    3.6274    1.3316 C.ar    1  UNL1       -0.0611
     36 C           0.1816    2.6988    0.3599 C.ar    1  UNL1       -0.0521
     37 C           1.1574    1.7722    0.0022 C.ar    1  UNL1        0.0069
     38 C          -4.5494    1.0195    1.5793 C.ar    1  UNL1       -0.0359
     39 C          -4.6190    2.2395    2.2601 C.ar    1  UNL1       -0.0568
     40 H          -4.7080    4.5314    3.3648 H       1  UNL1        0.0278
     41 H          -4.4854    5.4526    1.7846 H       1  UNL1        0.0278
     42 H          -6.1474    5.0541    2.4023 H       1  UNL1        0.0278
     43 H          -5.6966    4.1740   -0.2351 H       1  UNL1        0.0621
     44 H          -5.5672    1.9929   -1.4309 H       1  UNL1        0.0639
     45 H          -4.6428   -4.2597    0.4358 H       1  UNL1        0.0239
     46 H          -6.2946   -5.0493    0.5823 H       1  UNL1        0.0239
     47 H          -5.1595   -5.6057   -0.6781 H       1  UNL1        0.0239
     48 H          -6.9880   -4.3875   -2.9653 H       1  UNL1        0.0239
     49 H          -5.3640   -5.1508   -2.5719 H       1  UNL1        0.0239
     50 H          -5.4857   -3.4611   -3.1804 H       1  UNL1        0.0239
     51 H          -7.8128   -2.5548   -1.3463 H       1  UNL1        0.0239
     52 H          -8.1243   -4.2975   -1.1444 H       1  UNL1        0.0239
     53 H          -7.6376   -3.2522    0.2896 H       1  UNL1        0.0239
     54 H          -3.6449   -2.6268   -2.3561 H       1  UNL1        0.0671
     55 H          -2.8588    0.6541   -2.6145 H       1  UNL1        0.1578
     56 H          -0.5817    1.4193   -2.4810 H       1  UNL1        0.1564
     57 H           1.6013   -0.7890   -2.1092 H       1  UNL1        0.0637
     58 H           3.7622   -0.8157   -1.0332 H       1  UNL1        0.0655
     59 H           5.5280   -0.8333    1.1220 H       1  UNL1        0.0709
     60 H           6.3735    0.6851    1.7218 H       1  UNL1        0.0709
     61 H           5.7942    0.1930   -1.2625 H       1  UNL1        0.0460
     62 H           6.7016    1.5094   -0.5055 H       1  UNL1        0.0460
     63 H           6.6925   -2.1331   -0.2307 H       1  UNL1        0.0449
     64 H           7.8166   -2.0376   -1.6003 H       1  UNL1        0.0449
     65 H           8.8052   -3.3239    0.3611 H       1  UNL1        0.0572
     66 H           9.7462   -1.9719   -0.2974 H       1  UNL1        0.0572
     67 H          10.2451   -0.2417    1.5737 H       1  UNL1        0.0572
     68 H           8.6354    0.2083    2.3421 H       1  UNL1        0.0572
     69 H           9.6616    0.3238   -0.5270 H       1  UNL1        0.0449
     70 H           8.5393    1.4006    0.3153 H       1  UNL1        0.0449
     71 H           3.5899    2.7027    2.0593 H       1  UNL1        0.0625
     72 H           1.8640    4.3525    2.7021 H       1  UNL1        0.0618
     73 H          -0.2982    4.3610    1.6331 H       1  UNL1        0.0618
     74 H          -0.7964    2.6880   -0.1357 H       1  UNL1        0.0624
     75 H          -4.2209    0.1524    2.1253 H       1  UNL1        0.0639
     76 H          -4.3455    2.2866    3.3065 H       1  UNL1        0.0621
@<TRIPOS>BOND
     1     1     2    1
     2     2     3   ar
     3     3     4   ar
     4     4     5   ar
     5     5     6    1
     6     6     7   ar
     7     7     8   ar
     8     8     9    1
     9     9    10    1
    10     9    11    1
    11     9    12    1
    12     8    13   ar
    13    13    14   ar
    14    14    15    1
    15    15    16   am
    16    16    17    2
    17    16    18   am
    18    18    19    1
    19    19    20   ar
    20    20    21   ar
    21    21    22   ar
    22    22    23    1
    23    23    24    1
    24    24    25    1
    25    25    26    1
    26    26    27    1
    27    27    28    1
    28    28    29    1
    29    29    30    1
    30    30    31    1
    31    22    32   ar
    32    32    33   ar
    33    33    34   ar
    34    34    35   ar
    35    35    36   ar
    36    36    37   ar
    37     5    38   ar
    38    38    39   ar
    39    39     2   ar
    40    14     6   ar
    41    37    19   ar
    42    31    26    1
    43    37    32   ar
    44     1    40    1
    45     1    41    1
    46     1    42    1
    47     3    43    1
    48     4    44    1
    49    10    45    1
    50    10    46    1
    51    10    47    1
    52    11    48    1
    53    11    49    1
    54    11    50    1
    55    12    51    1
    56    12    52    1
    57    12    53    1
    58    13    54    1
    59    15    55    1
    60    18    56    1
    61    20    57    1
    62    21    58    1
    63    24    59    1
    64    24    60    1
    65    25    61    1
    66    25    62    1
    67    27    63    1
    68    27    64    1
    69    28    65    1
    70    28    66    1
    71    30    67    1
    72    30    68    1
    73    31    69    1
    74    31    70    1
    75    33    71    1
    76    34    72    1
    77    35    73    1
    78    36    74    1
    79    38    75    1
    80    39    76    1
