@<TRIPOS>MOLECULE
*****
 38 40 0 0 0
SMALL
GASTEIGER

@<TRIPOS>ATOM
      1 C           5.0896   -1.4249    1.3554 C.3     1  UNL1        0.0365
      2 O           3.7595   -1.5640    0.9593 O.3     1  UNL1       -0.3814
      3 C           3.2625   -0.2764    0.7704 C.3     1  UNL1        0.0645
      4 C           1.8009   -0.3137    0.3316 C.3     1  UNL1        0.0552
      5 C           1.7143   -1.0197   -0.9819 C.3     1  UNL1       -0.0323
      6 C           1.6687    0.0927   -1.9885 C.3     1  UNL1       -0.0370
      7 C           1.1644    1.3027   -1.2228 C.3     1  UNL1        0.0209
      8 N           1.3754    1.0402    0.1622 N.3     1  UNL1       -0.1713
      9 S           0.1154    1.5288    1.1894 S.O2    1  UNL1        0.0612
     10 O           0.5677    1.3168    2.6185 O.2     1  UNL1       -0.1528
     11 O          -0.0642    3.0230    1.0327 O.2     1  UNL1       -0.1528
     12 C          -1.3967    0.7432    0.8789 C.ar    1  UNL1        0.1063
     13 C          -1.7024   -0.4442    1.5335 C.ar    1  UNL1       -0.0336
     14 C          -2.9085   -1.0323    1.2590 C.ar    1  UNL1       -0.0379
     15 C          -3.8327   -0.5104    0.3704 C.ar    1  UNL1        0.0449
     16 C          -3.5174    0.6607   -0.2674 C.ar    1  UNL1        0.0499
     17 C          -2.3088    1.2757   -0.0102 C.ar    1  UNL1       -0.0226
     18 C          -4.6393    1.0107   -1.1483 C.2     1  UNL1        0.2494
     19 O          -4.6561    2.0359   -1.8729 O.2     1  UNL1       -0.2817
     20 C          -5.6257   -0.0357   -0.9784 C.2     1  UNL1        0.2887
     21 O          -6.7386   -0.0661   -1.5889 O.2     1  UNL1       -0.2663
     22 N          -5.1140   -0.9732   -0.0340 N.am    1  UNL1       -0.2782
     23 H           5.0943   -0.8278    2.3139 H       1  UNL1        0.0523
     24 H           5.6195   -0.7900    0.6208 H       1  UNL1        0.0523
     25 H           5.5895   -2.4016    1.5118 H       1  UNL1        0.0523
     26 H           3.8832    0.2283    0.0254 H       1  UNL1        0.0576
     27 H           3.2859    0.3131    1.7118 H       1  UNL1        0.0576
     28 H           1.2209   -0.8445    1.1259 H       1  UNL1        0.0502
     29 H           2.6256   -1.6642   -1.1509 H       1  UNL1        0.0282
     30 H           0.8310   -1.7003   -1.0652 H       1  UNL1        0.0282
     31 H           0.9809   -0.1797   -2.8315 H       1  UNL1        0.0279
     32 H           2.7120    0.2533   -2.3665 H       1  UNL1        0.0279
     33 H           1.8067    2.1606   -1.5208 H       1  UNL1        0.0444
     34 H           0.1064    1.5329   -1.4643 H       1  UNL1        0.0444
     35 H          -0.9700   -0.8392    2.2247 H       1  UNL1        0.0638
     36 H          -3.1310   -1.9693    1.7863 H       1  UNL1        0.0637
     37 H          -2.0690    2.1961   -0.5161 H       1  UNL1        0.0645
     38 H          -5.5996   -1.8373    0.2930 H       1  UNL1        0.1552
@<TRIPOS>BOND
     1     1     2    1
     2     2     3    1
     3     3     4    1
     4     4     5    1
     5     5     6    1
     6     6     7    1
     7     7     8    1
     8     8     9    1
     9     9    10    2
    10     9    11    2
    11     9    12    1
    12    12    13   ar
    13    13    14   ar
    14    14    15   ar
    15    15    16   ar
    16    16    17   ar
    17    16    18    1
    18    18    19    2
    19    18    20    1
    20    20    21    2
    21    20    22   am
    22     8     4    1
    23    17    12   ar
    24    22    15    1
    25     1    23    1
    26     1    24    1
    27     1    25    1
    28     3    26    1
    29     3    27    1
    30     4    28    1
    31     5    29    1
    32     5    30    1
    33     6    31    1
    34     6    32    1
    35     7    33    1
    36     7    34    1
    37    13    35    1
    38    14    36    1
    39    17    37    1
    40    22    38    1
