@<TRIPOS>MOLECULE
*****
 40 42 0 0 0
SMALL
GASTEIGER

@<TRIPOS>ATOM
      1 C          -4.3011    2.1643    0.4247 C.3     1  UNL1       -0.0158
      2 N          -3.4730    1.5036    1.4086 N.3     1  UNL1       -0.3187
      3 C          -2.0860    1.5448    1.0366 C.3     1  UNL1       -0.0012
      4 C          -1.7641    0.7013   -0.1856 C.3     1  UNL1       -0.0237
      5 C          -2.0947   -0.7246    0.0412 C.3     1  UNL1       -0.0234
      6 C          -1.0158   -1.6941   -0.2482 C.ar    1  UNL1       -0.0433
      7 C          -1.3127   -3.0059   -0.6358 C.ar    1  UNL1       -0.0583
      8 C          -0.2898   -3.8949   -0.8934 C.ar    1  UNL1       -0.0615
      9 C           1.0520   -3.5520   -0.7869 C.ar    1  UNL1       -0.0615
     10 C           1.3313   -2.2490   -0.4022 C.ar    1  UNL1       -0.0577
     11 C           0.3141   -1.3547   -0.1432 C.ar    1  UNL1       -0.0368
     12 C           0.6031    0.0439    0.2567 C.3     1  UNL1        0.0098
     13 C           1.9954    0.4548    0.0869 C.ar    1  UNL1       -0.0385
     14 C           2.5269    0.8000   -1.1280 C.ar    1  UNL1       -0.0565
     15 C           3.8570    1.1935   -1.2678 C.ar    1  UNL1       -0.0417
     16 C           4.6346    1.2295   -0.1542 C.ar    1  UNL1        0.0593
     17 CL          6.3313    1.7181   -0.2479 Cl      1  UNL1       -0.0820
     18 C           4.1561    0.8932    1.0964 C.ar    1  UNL1        0.0595
     19 CL          5.2030    0.9590    2.5078 Cl      1  UNL1       -0.0820
     20 C           2.8371    0.5100    1.1921 C.ar    1  UNL1       -0.0382
     21 C          -0.3122    0.9813   -0.5052 C.3     1  UNL1       -0.0379
     22 H          -4.9226    2.9053    0.9732 H       1  UNL1        0.0388
     23 H          -3.6235    2.7314   -0.2717 H       1  UNL1        0.0388
     24 H          -4.8888    1.4714   -0.1806 H       1  UNL1        0.0388
     25 H          -3.8124    0.5766    1.6917 H       1  UNL1        0.1216
     26 H          -1.8201    2.5923    0.7834 H       1  UNL1        0.0427
     27 H          -1.4273    1.2252    1.8577 H       1  UNL1        0.0427
     28 H          -2.3605    1.1295   -1.0294 H       1  UNL1        0.0316
     29 H          -2.3990   -0.8435    1.1094 H       1  UNL1        0.0316
     30 H          -2.9711   -1.0467   -0.5826 H       1  UNL1        0.0316
     31 H          -2.3582   -3.2647   -0.7180 H       1  UNL1        0.0620
     32 H          -0.5246   -4.9154   -1.1956 H       1  UNL1        0.0618
     33 H           1.8083   -4.2858   -0.9993 H       1  UNL1        0.0618
     34 H           2.3794   -1.9749   -0.3172 H       1  UNL1        0.0621
     35 H           0.2904    0.1206    1.3369 H       1  UNL1        0.0397
     36 H           1.9013    0.7678   -2.0148 H       1  UNL1        0.0621
     37 H           4.2375    1.4574   -2.2417 H       1  UNL1        0.0633
     38 H           2.4350    0.2413    2.1620 H       1  UNL1        0.0635
     39 H          -0.0199    2.0138   -0.2264 H       1  UNL1        0.0277
     40 H          -0.1166    0.8761   -1.5897 H       1  UNL1        0.0277
@<TRIPOS>BOND
     1     1     2    1
     2     2     3    1
     3     3     4    1
     4     4     5    1
     5     5     6    1
     6     6     7   ar
     7     7     8   ar
     8     8     9   ar
     9     9    10   ar
    10    10    11   ar
    11    11    12    1
    12    12    13    1
    13    13    14   ar
    14    14    15   ar
    15    15    16   ar
    16    16    17    1
    17    16    18   ar
    18    18    19    1
    19    18    20   ar
    20    12    21    1
    21    21     4    1
    22    11     6   ar
    23    20    13   ar
    24     1    22    1
    25     1    23    1
    26     1    24    1
    27     2    25    1
    28     3    26    1
    29     3    27    1
    30     4    28    1
    31     5    29    1
    32     5    30    1
    33     7    31    1
    34     8    32    1
    35     9    33    1
    36    10    34    1
    37    12    35    1
    38    14    36    1
    39    15    37    1
    40    20    38    1
    41    21    39    1
    42    21    40    1
