
     RDKit          3D

 40 42  0  0  0  0  0  0  0  0999 V2000
   -4.3011    2.1643    0.4247 C   0  0  0  0  0  0  0  0  0  0  0  0
   -3.4730    1.5036    1.4086 N   0  0  0  0  0  0  0  0  0  0  0  0
   -2.0860    1.5448    1.0366 C   0  0  0  0  0  0  0  0  0  0  0  0
   -1.7641    0.7013   -0.1856 C   0  0  2  0  0  0  0  0  0  0  0  0
   -2.0947   -0.7246    0.0412 C   0  0  0  0  0  0  0  0  0  0  0  0
   -1.0158   -1.6941   -0.2482 C   0  0  0  0  0  0  0  0  0  0  0  0
   -1.3127   -3.0059   -0.6358 C   0  0  0  0  0  0  0  0  0  0  0  0
   -0.2898   -3.8949   -0.8934 C   0  0  0  0  0  0  0  0  0  0  0  0
    1.0520   -3.5520   -0.7869 C   0  0  0  0  0  0  0  0  0  0  0  0
    1.3313   -2.2490   -0.4022 C   0  0  0  0  0  0  0  0  0  0  0  0
    0.3141   -1.3547   -0.1432 C   0  0  0  0  0  0  0  0  0  0  0  0
    0.6031    0.0439    0.2567 C   0  0  1  0  0  0  0  0  0  0  0  0
    1.9954    0.4548    0.0869 C   0  0  0  0  0  0  0  0  0  0  0  0
    2.5269    0.8000   -1.1280 C   0  0  0  0  0  0  0  0  0  0  0  0
    3.8570    1.1935   -1.2678 C   0  0  0  0  0  0  0  0  0  0  0  0
    4.6346    1.2295   -0.1542 C   0  0  0  0  0  0  0  0  0  0  0  0
    6.3313    1.7181   -0.2479 Cl  0  0  0  0  0  0  0  0  0  0  0  0
    4.1561    0.8932    1.0964 C   0  0  0  0  0  0  0  0  0  0  0  0
    5.2030    0.9590    2.5078 Cl  0  0  0  0  0  0  0  0  0  0  0  0
    2.8371    0.5100    1.1921 C   0  0  0  0  0  0  0  0  0  0  0  0
   -0.3122    0.9813   -0.5052 C   0  0  0  0  0  0  0  0  0  0  0  0
   -4.9226    2.9053    0.9732 H   0  0  0  0  0  0  0  0  0  0  0  0
   -3.6235    2.7314   -0.2717 H   0  0  0  0  0  0  0  0  0  0  0  0
   -4.8888    1.4714   -0.1806 H   0  0  0  0  0  0  0  0  0  0  0  0
   -3.8124    0.5766    1.6917 H   0  0  0  0  0  0  0  0  0  0  0  0
   -1.8201    2.5923    0.7834 H   0  0  0  0  0  0  0  0  0  0  0  0
   -1.4273    1.2252    1.8577 H   0  0  0  0  0  0  0  0  0  0  0  0
   -2.3605    1.1295   -1.0294 H   0  0  0  0  0  0  0  0  0  0  0  0
   -2.3990   -0.8435    1.1094 H   0  0  0  0  0  0  0  0  0  0  0  0
   -2.9711   -1.0467   -0.5826 H   0  0  0  0  0  0  0  0  0  0  0  0
   -2.3582   -3.2647   -0.7180 H   0  0  0  0  0  0  0  0  0  0  0  0
   -0.5246   -4.9154   -1.1956 H   0  0  0  0  0  0  0  0  0  0  0  0
    1.8083   -4.2858   -0.9993 H   0  0  0  0  0  0  0  0  0  0  0  0
    2.3794   -1.9749   -0.3172 H   0  0  0  0  0  0  0  0  0  0  0  0
    0.2904    0.1206    1.3369 H   0  0  0  0  0  0  0  0  0  0  0  0
    1.9013    0.7678   -2.0148 H   0  0  0  0  0  0  0  0  0  0  0  0
    4.2375    1.4574   -2.2417 H   0  0  0  0  0  0  0  0  0  0  0  0
    2.4350    0.2413    2.1620 H   0  0  0  0  0  0  0  0  0  0  0  0
   -0.0199    2.0138   -0.2264 H   0  0  0  0  0  0  0  0  0  0  0  0
   -0.1166    0.8761   -1.5897 H   0  0  0  0  0  0  0  0  0  0  0  0
  1  2  1  0
  2  3  1  0
  3  4  1  0
  4  5  1  0
  5  6  1  0
  6  7  2  0
  7  8  1  0
  8  9  2  0
  9 10  1  0
 10 11  2  0
 11 12  1  0
 12 13  1  0
 13 14  2  0
 14 15  1  0
 15 16  2  0
 16 17  1  0
 16 18  1  0
 18 19  1  0
 18 20  2  0
 12 21  1  0
 21  4  1  0
 11  6  1  0
 20 13  1  0
  1 22  1  0
  1 23  1  0
  1 24  1  0
  2 25  1  0
  3 26  1  0
  3 27  1  0
  4 28  1  6
  5 29  1  0
  5 30  1  0
  7 31  1  0
  8 32  1  0
  9 33  1  0
 10 34  1  0
 12 35  1  1
 14 36  1  0
 15 37  1  0
 20 38  1  0
 21 39  1  0
 21 40  1  0
M  END
$$$$
