
     RDKit          3D

 41 43  0  0  0  0  0  0  0  0999 V2000
   -2.1989   -2.1878   -0.9773 O   0  0  0  0  0  0  0  0  0  0  0  0
   -1.9832   -0.9167   -0.7300 C   0  0  0  0  0  0  0  0  0  0  0  0
   -3.0843   -0.2185   -0.2471 N   0  0  0  0  0  0  0  0  0  0  0  0
   -3.1326    1.1705    0.1076 C   0  0  0  0  0  0  0  0  0  0  0  0
   -4.6064    1.5803    0.2786 C   0  0  0  0  0  0  0  0  0  0  0  0
   -5.2323    0.8649    1.2649 O   0  0  0  0  0  0  0  0  0  0  0  0
   -4.8921   -0.4713    1.2958 C   0  0  0  0  0  0  0  0  0  0  0  0
   -4.3745   -0.9193   -0.0541 C   0  0  0  0  0  0  0  0  0  0  0  0
   -0.6767   -0.4805   -0.9957 N   0  0  0  0  0  0  0  0  0  0  0  0
    0.2881   -1.4768   -1.5062 C   0  0  0  0  0  0  0  0  0  0  0  0
    1.3924   -1.4866   -0.4404 C   0  0  0  0  0  0  0  0  0  0  0  0
    1.9809   -0.1693   -0.4736 N   0  0  0  0  0  0  0  0  0  0  0  0
    3.3501   -0.0456   -0.1132 C   0  0  0  0  0  0  0  0  0  0  0  0
    3.6992    0.7453    0.9705 C   0  0  0  0  0  0  0  0  0  0  0  0
    5.0013    0.8998    1.3636 C   0  0  0  0  0  0  0  0  0  0  0  0
    6.0177    0.2631    0.6818 C   0  0  0  0  0  0  0  0  0  0  0  0
    7.6899    0.4576    1.1815 Cl  0  0  0  0  0  0  0  0  0  0  0  0
    5.6953   -0.5288   -0.3993 C   0  0  0  0  0  0  0  0  0  0  0  0
    4.3819   -0.6711   -0.7782 C   0  0  0  0  0  0  0  0  0  0  0  0
    4.0101   -1.6832   -2.1569 Cl  0  0  0  0  0  0  0  0  0  0  0  0
    1.2655    1.0067   -0.8471 C   0  0  0  0  0  0  0  0  0  0  0  0
   -0.2447    0.8527   -0.8014 C   0  0  0  0  0  0  0  0  0  0  0  0
   -2.7058    1.3048    1.1238 H   0  0  0  0  0  0  0  0  0  0  0  0
   -2.7532    1.8465   -0.6597 H   0  0  0  0  0  0  0  0  0  0  0  0
   -5.1674    1.4791   -0.6584 H   0  0  0  0  0  0  0  0  0  0  0  0
   -4.5704    2.6606    0.5445 H   0  0  0  0  0  0  0  0  0  0  0  0
   -5.8279   -1.0454    1.5366 H   0  0  0  0  0  0  0  0  0  0  0  0
   -4.1239   -0.5961    2.0908 H   0  0  0  0  0  0  0  0  0  0  0  0
   -4.2341   -2.0119   -0.0675 H   0  0  0  0  0  0  0  0  0  0  0  0
   -5.0403   -0.5484   -0.8371 H   0  0  0  0  0  0  0  0  0  0  0  0
    0.7327   -1.0483   -2.4212 H   0  0  0  0  0  0  0  0  0  0  0  0
   -0.1608   -2.4597   -1.6214 H   0  0  0  0  0  0  0  0  0  0  0  0
    2.1071   -2.2939   -0.5812 H   0  0  0  0  0  0  0  0  0  0  0  0
    0.9177   -1.5820    0.5799 H   0  0  0  0  0  0  0  0  0  0  0  0
    2.8973    1.2481    1.5091 H   0  0  0  0  0  0  0  0  0  0  0  0
    5.2012    1.5292    2.2146 H   0  0  0  0  0  0  0  0  0  0  0  0
    6.5191   -1.0159   -0.9142 H   0  0  0  0  0  0  0  0  0  0  0  0
    1.5572    1.3501   -1.8697 H   0  0  0  0  0  0  0  0  0  0  0  0
    1.5651    1.8283   -0.1650 H   0  0  0  0  0  0  0  0  0  0  0  0
   -0.5924    1.2931    0.1468 H   0  0  0  0  0  0  0  0  0  0  0  0
   -0.6679    1.4762   -1.6269 H   0  0  0  0  0  0  0  0  0  0  0  0
  1  2  2  0
  2  3  1  0
  3  4  1  0
  4  5  1  0
  5  6  1  0
  6  7  1  0
  7  8  1  0
  2  9  1  0
  9 10  1  0
 10 11  1  0
 11 12  1  0
 12 13  1  0
 13 14  2  0
 14 15  1  0
 15 16  2  0
 16 17  1  0
 16 18  1  0
 18 19  2  0
 19 20  1  0
 12 21  1  0
 21 22  1  0
  8  3  1  0
 22  9  1  0
 19 13  1  0
  4 23  1  0
  4 24  1  0
  5 25  1  0
  5 26  1  0
  7 27  1  0
  7 28  1  0
  8 29  1  0
  8 30  1  0
 10 31  1  0
 10 32  1  0
 11 33  1  0
 11 34  1  0
 14 35  1  0
 15 36  1  0
 18 37  1  0
 21 38  1  0
 21 39  1  0
 22 40  1  0
 22 41  1  0
M  END
$$$$
