@<TRIPOS>MOLECULE
*****
 41 43 0 0 0
SMALL
GASTEIGER

@<TRIPOS>ATOM
      1 O          -2.1989   -2.1878   -0.9773 O.2     1  UNL1       -0.2524
      2 C          -1.9832   -0.9167   -0.7300 C.2     1  UNL1        0.3050
      3 N          -3.0843   -0.2185   -0.2471 N.am    1  UNL1       -0.2811
      4 C          -3.1326    1.1705    0.1076 C.3     1  UNL1        0.0396
      5 C          -4.6064    1.5803    0.2786 C.3     1  UNL1        0.0635
      6 O          -5.2323    0.8649    1.2649 O.3     1  UNL1       -0.3767
      7 C          -4.8921   -0.4713    1.2958 C.3     1  UNL1        0.0635
      8 C          -4.3745   -0.9193   -0.0541 C.3     1  UNL1        0.0396
      9 N          -0.6767   -0.4805   -0.9957 N.am    1  UNL1       -0.2825
     10 C           0.2881   -1.4768   -1.5062 C.3     1  UNL1        0.0319
     11 C           1.3924   -1.4866   -0.4404 C.3     1  UNL1        0.0281
     12 N           1.9809   -0.1693   -0.4736 N.pl3   1  UNL1       -0.3258
     13 C           3.3501   -0.0456   -0.1132 C.ar    1  UNL1        0.0484
     14 C           3.6992    0.7453    0.9705 C.ar    1  UNL1       -0.0379
     15 C           5.0013    0.8998    1.3636 C.ar    1  UNL1       -0.0416
     16 C           6.0177    0.2631    0.6818 C.ar    1  UNL1        0.0425
     17 CL          7.6899    0.4576    1.1815 Cl      1  UNL1       -0.0835
     18 C           5.6953   -0.5288   -0.3993 C.ar    1  UNL1       -0.0232
     19 C           4.3819   -0.6711   -0.7782 C.ar    1  UNL1        0.0633
     20 CL          4.0101   -1.6832   -2.1569 Cl      1  UNL1       -0.0816
     21 C           1.2655    1.0067   -0.8471 C.3     1  UNL1        0.0281
     22 C          -0.2447    0.8527   -0.8014 C.3     1  UNL1        0.0319
     23 H          -2.7058    1.3048    1.1238 H       1  UNL1        0.0488
     24 H          -2.7532    1.8465   -0.6597 H       1  UNL1        0.0488
     25 H          -5.1674    1.4791   -0.6584 H       1  UNL1        0.0575
     26 H          -4.5704    2.6606    0.5445 H       1  UNL1        0.0575
     27 H          -5.8279   -1.0454    1.5366 H       1  UNL1        0.0575
     28 H          -4.1239   -0.5961    2.0908 H       1  UNL1        0.0575
     29 H          -4.2341   -2.0119   -0.0675 H       1  UNL1        0.0488
     30 H          -5.0403   -0.5484   -0.8371 H       1  UNL1        0.0488
     31 H           0.7327   -1.0483   -2.4212 H       1  UNL1        0.0480
     32 H          -0.1608   -2.4597   -1.6214 H       1  UNL1        0.0480
     33 H           2.1071   -2.2939   -0.5812 H       1  UNL1        0.0479
     34 H           0.9177   -1.5820    0.5799 H       1  UNL1        0.0479
     35 H           2.8973    1.2481    1.5091 H       1  UNL1        0.0637
     36 H           5.2012    1.5292    2.2146 H       1  UNL1        0.0633
     37 H           6.5191   -1.0159   -0.9142 H       1  UNL1        0.0647
     38 H           1.5572    1.3501   -1.8697 H       1  UNL1        0.0479
     39 H           1.5651    1.8283   -0.1650 H       1  UNL1        0.0479
     40 H          -0.5924    1.2931    0.1468 H       1  UNL1        0.0480
     41 H          -0.6679    1.4762   -1.6269 H       1  UNL1        0.0480
@<TRIPOS>BOND
     1     1     2    2
     2     2     3   am
     3     3     4    1
     4     4     5    1
     5     5     6    1
     6     6     7    1
     7     7     8    1
     8     2     9   am
     9     9    10    1
    10    10    11    1
    11    11    12    1
    12    12    13    1
    13    13    14   ar
    14    14    15   ar
    15    15    16   ar
    16    16    17    1
    17    16    18   ar
    18    18    19   ar
    19    19    20    1
    20    12    21    1
    21    21    22    1
    22     8     3    1
    23    22     9    1
    24    19    13   ar
    25     4    23    1
    26     4    24    1
    27     5    25    1
    28     5    26    1
    29     7    27    1
    30     7    28    1
    31     8    29    1
    32     8    30    1
    33    10    31    1
    34    10    32    1
    35    11    33    1
    36    11    34    1
    37    14    35    1
    38    15    36    1
    39    18    37    1
    40    21    38    1
    41    21    39    1
    42    22    40    1
    43    22    41    1
