@<TRIPOS>MOLECULE
*****
 72 76 0 0 0
SMALL
GASTEIGER

@<TRIPOS>ATOM
      1 C          -6.1895    4.0444    1.0148 C.3     1  UNL1       -0.0597
      2 C          -6.7358    3.0526    2.0111 C.3     1  UNL1       -0.0097
      3 C          -7.4058    1.9131    1.3560 C.ar    1  UNL1        0.0839
      4 N          -8.7341    1.7556    1.2732 N.ar    1  UNL1       -0.1746
      5 N          -8.9663    0.6358    0.6289 N.ar    1  UNL1       -0.2724
      6 C         -10.2662    0.0679    0.3078 C.3     1  UNL1        0.0303
      7 C          -7.7999    0.0438    0.2805 C.ar    1  UNL1        0.0467
      8 C          -6.7938    0.8512    0.7396 C.ar    1  UNL1        0.0747
      9 N          -5.4171    0.6440    0.6108 N.pl3   1  UNL1       -0.2809
     10 C          -4.7802   -0.4614   -0.0002 C.ar    1  UNL1        0.2201
     11 N          -5.5165   -1.4549   -0.5321 N.ar    1  UNL1       -0.2224
     12 C          -4.9438   -2.5185   -1.1083 C.ar    1  UNL1        0.0361
     13 C          -3.5949   -2.6240   -1.1711 C.ar    1  UNL1       -0.0062
     14 C          -2.8878   -3.7823   -1.8033 C.3     1  UNL1       -0.0362
     15 C          -2.8077   -1.6082   -0.6279 C.ar    1  UNL1        0.0809
     16 C          -1.3672   -1.7167   -0.6966 C.ar    1  UNL1        0.0258
     17 C          -0.5928   -2.7661   -0.1986 C.ar    1  UNL1        0.0120
     18 N           0.7030   -2.4874   -0.4526 N.ar    1  UNL1       -0.3586
     19 C           0.8232   -1.3259   -1.0834 C.ar    1  UNL1        0.0686
     20 C           1.9263   -0.6408   -1.5440 C.ar    1  UNL1        0.0576
     21 N           3.2641   -1.0917   -1.3982 N.am    1  UNL1       -0.2825
     22 C           3.9952   -0.6721   -0.2519 C.2     1  UNL1        0.2342
     23 O           3.4003    0.0772    0.5624 O.2     1  UNL1       -0.2738
     24 C           5.3740   -1.0542    0.0268 C.3     1  UNL1        0.0848
     25 C           6.2762   -1.0948   -1.1693 C.3     1  UNL1       -0.0409
     26 N           5.8927   -0.3328    1.1212 N.3     1  UNL1       -0.2893
     27 C           7.2262   -0.6610    1.5221 C.3     1  UNL1        0.0124
     28 C           8.3112    0.1858    0.9595 C.3     1  UNL1        0.0114
     29 N           7.9864    1.5833    0.8763 N.3     1  UNL1       -0.3029
     30 C           8.1209    2.1201   -0.4503 C.3     1  UNL1       -0.0127
     31 C           6.7752    1.9397    1.5441 C.3     1  UNL1        0.0114
     32 C           5.6011    1.0687    1.1678 C.3     1  UNL1        0.0124
     33 C           1.7320    0.5681   -2.1799 C.ar    1  UNL1       -0.0384
     34 C           0.4501    1.0572   -2.3375 C.ar    1  UNL1       -0.0593
     35 C          -0.6537    0.3753   -1.8781 C.ar    1  UNL1       -0.0518
     36 C          -0.4651   -0.8317   -1.2430 C.ar    1  UNL1        0.0107
     37 N          -3.4400   -0.5742   -0.0677 N.ar    1  UNL1       -0.2139
     38 H          -5.5853    3.5809    0.2160 H       1  UNL1        0.0233
     39 H          -7.0899    4.4804    0.4974 H       1  UNL1        0.0233
     40 H          -5.6901    4.8788    1.5299 H       1  UNL1        0.0233
     41 H          -7.4115    3.5969    2.6967 H       1  UNL1        0.0327
     42 H          -5.8492    2.6506    2.5621 H       1  UNL1        0.0327
     43 H         -10.5896   -0.6238    1.1167 H       1  UNL1        0.0473
     44 H         -11.0357    0.8352    0.1847 H       1  UNL1        0.0473
     45 H         -10.1673   -0.5853   -0.6063 H       1  UNL1        0.0473
     46 H          -7.7558   -0.8963   -0.2617 H       1  UNL1        0.0845
     47 H          -4.7659    1.3877    1.0086 H       1  UNL1        0.1551
     48 H          -5.5282   -3.3325   -1.5450 H       1  UNL1        0.0834
     49 H          -3.4839   -4.1178   -2.6774 H       1  UNL1        0.0279
     50 H          -1.8825   -3.5059   -2.1630 H       1  UNL1        0.0279
     51 H          -2.7947   -4.5550   -1.0158 H       1  UNL1        0.0279
     52 H          -1.0160   -3.6400    0.3031 H       1  UNL1        0.0814
     53 H           1.5234   -3.0947   -0.1950 H       1  UNL1        0.1654
     54 H           3.7410   -1.7115   -2.0821 H       1  UNL1        0.1549
     55 H           5.3122   -2.1369    0.3693 H       1  UNL1        0.0556
     56 H           6.6359   -0.1241   -1.5194 H       1  UNL1        0.0249
     57 H           5.8242   -1.6069   -2.0395 H       1  UNL1        0.0249
     58 H           7.1699   -1.7082   -0.9047 H       1  UNL1        0.0249
     59 H           7.2676   -0.5802    2.6362 H       1  UNL1        0.0439
     60 H           7.4538   -1.7159    1.2840 H       1  UNL1        0.0439
     61 H           8.7302   -0.1332   -0.0017 H       1  UNL1        0.0439
     62 H           9.1785    0.1219    1.6836 H       1  UNL1        0.0439
     63 H           8.7642    1.3938   -1.0143 H       1  UNL1        0.0391
     64 H           7.1556    2.2847   -0.9559 H       1  UNL1        0.0391
     65 H           8.6901    3.0681   -0.3982 H       1  UNL1        0.0391
     66 H           6.5147    2.9844    1.2790 H       1  UNL1        0.0439
     67 H           6.9423    1.9169    2.6399 H       1  UNL1        0.0439
     68 H           5.2059    1.4604    0.2224 H       1  UNL1        0.0439
     69 H           4.8405    1.2345    1.9577 H       1  UNL1        0.0439
     70 H           2.5495    1.1577   -2.5657 H       1  UNL1        0.0637
     71 H           0.3221    2.0096   -2.8406 H       1  UNL1        0.0618
     72 H          -1.6760    0.7408   -1.9906 H       1  UNL1        0.0624
@<TRIPOS>BOND
     1     1     2    1
     2     2     3    1
     3     3     4   ar
     4     4     5   ar
     5     5     6    1
     6     5     7   ar
     7     7     8   ar
     8     8     9    1
     9     9    10    1
    10    10    11   ar
    11    11    12   ar
    12    12    13   ar
    13    13    14    1
    14    13    15   ar
    15    15    16    1
    16    16    17   ar
    17    17    18   ar
    18    18    19   ar
    19    19    20   ar
    20    20    21    1
    21    21    22   am
    22    22    23    2
    23    22    24    1
    24    24    25    1
    25    24    26    1
    26    26    27    1
    27    27    28    1
    28    28    29    1
    29    29    30    1
    30    29    31    1
    31    31    32    1
    32    20    33   ar
    33    33    34   ar
    34    34    35   ar
    35    35    36   ar
    36    15    37   ar
    37     8     3   ar
    38    37    10   ar
    39    36    16   ar
    40    36    19   ar
    41    32    26    1
    42     1    38    1
    43     1    39    1
    44     1    40    1
    45     2    41    1
    46     2    42    1
    47     6    43    1
    48     6    44    1
    49     6    45    1
    50     7    46    1
    51     9    47    1
    52    12    48    1
    53    14    49    1
    54    14    50    1
    55    14    51    1
    56    17    52    1
    57    18    53    1
    58    21    54    1
    59    24    55    1
    60    25    56    1
    61    25    57    1
    62    25    58    1
    63    27    59    1
    64    27    60    1
    65    28    61    1
    66    28    62    1
    67    30    63    1
    68    30    64    1
    69    30    65    1
    70    31    66    1
    71    31    67    1
    72    32    68    1
    73    32    69    1
    74    33    70    1
    75    34    71    1
    76    35    72    1
