@<TRIPOS>MOLECULE
*****
 69 71 0 0 0
SMALL
GASTEIGER

@<TRIPOS>ATOM
      1 C           7.3930   -1.3993    2.3308 C.3     1  UNL1       -0.0130
      2 N           6.8403   -0.0552    2.1979 N.3     1  UNL1       -0.3069
      3 C           7.7447    0.7043    1.3751 C.3     1  UNL1       -0.0130
      4 C           5.5235   -0.2060    1.5915 C.3     1  UNL1        0.0141
      5 C           4.8650    1.1515    1.4079 C.3     1  UNL1        0.0275
      6 N           3.5718    0.9640    0.8096 N.am    1  UNL1       -0.2987
      7 C           2.4189    0.7782    1.6772 C.3     1  UNL1        0.0305
      8 C           1.2153    1.3912    1.0152 C.3     1  UNL1        0.0308
      9 N           0.6131    0.4534    0.0375 N.am    1  UNL1       -0.2955
     10 C          -0.6364    0.0089    0.4321 C.2     1  UNL1        0.2490
     11 O          -1.0728    0.5250    1.5396 O.2     1  UNL1       -0.2699
     12 C          -1.5474   -0.9607   -0.2171 C.ar    1  UNL1        0.0657
     13 C          -1.1714   -1.8388   -1.1624 C.ar    1  UNL1       -0.0370
     14 C          -2.0947   -2.7302   -1.6642 C.ar    1  UNL1       -0.0023
     15 C          -1.9654   -3.7966   -2.6997 C.3     1  UNL1       -0.0064
     16 C          -0.5732   -3.8432   -3.2361 C.3     1  UNL1       -0.0556
     17 C          -2.2784   -5.1639   -2.1083 C.3     1  UNL1       -0.0556
     18 C          -2.9245   -3.5797   -3.8507 C.3     1  UNL1       -0.0556
     19 S          -3.5966   -2.3259   -0.7602 S.2     1  UNL1       -0.0771
     20 C          -2.8451   -1.0140    0.1911 C.ar    1  UNL1        0.0853
     21 N          -3.5740   -0.2320    1.1664 N.am    1  UNL1       -0.2629
     22 C          -4.2417    0.9620    0.7880 C.2     1  UNL1        0.3085
     23 O          -4.1666    1.2953   -0.4223 O.2     1  UNL1       -0.2521
     24 N          -4.9721    1.7906    1.6536 N.am    1  UNL1       -0.2678
     25 C          -5.6080    2.9717    1.1731 C.ar    1  UNL1        0.0546
     26 C          -4.8653    4.1523    1.1924 C.ar    1  UNL1       -0.0389
     27 C          -5.3797    5.3543    0.7524 C.ar    1  UNL1       -0.0585
     28 C          -6.6892    5.3292    0.2842 C.ar    1  UNL1       -0.0419
     29 C          -7.4208    4.1616    0.2662 C.ar    1  UNL1        0.0610
     30 CL         -9.0548    4.2159   -0.3358 Cl      1  UNL1       -0.0820
     31 C          -6.8862    2.9791    0.7092 C.ar    1  UNL1        0.0804
     32 CL         -7.8164    1.4791    0.6895 Cl      1  UNL1       -0.0801
     33 C           1.2501    0.0909   -1.1922 C.3     1  UNL1        0.0233
     34 C           2.3224    1.1532   -1.5184 C.3     1  UNL1        0.0399
     35 C           3.4778    0.9692   -0.6210 C.2     1  UNL1        0.2171
     36 O           4.5700    0.7852   -1.2007 O.2     1  UNL1       -0.2755
     37 H           6.6730   -2.0400    2.8871 H       1  UNL1        0.0391
     38 H           8.3977   -1.3774    2.8014 H       1  UNL1        0.0391
     39 H           7.5094   -1.7654    1.2687 H       1  UNL1        0.0391
     40 H           7.5358    0.4647    0.3135 H       1  UNL1        0.0391
     41 H           7.7127    1.7919    1.5892 H       1  UNL1        0.0391
     42 H           8.7747    0.3354    1.6033 H       1  UNL1        0.0391
     43 H           5.5895   -0.6589    0.5789 H       1  UNL1        0.0442
     44 H           4.9336   -0.8809    2.2314 H       1  UNL1        0.0442
     45 H           4.8223    1.7116    2.3642 H       1  UNL1        0.0477
     46 H           5.4873    1.7372    0.7172 H       1  UNL1        0.0477
     47 H           2.5951    1.2107    2.6708 H       1  UNL1        0.0480
     48 H           2.3166   -0.3172    1.8164 H       1  UNL1        0.0480
     49 H           0.4602    1.6534    1.8006 H       1  UNL1        0.0480
     50 H           1.5423    2.2727    0.4476 H       1  UNL1        0.0480
     51 H          -0.1391   -1.9481   -1.5877 H       1  UNL1        0.0634
     52 H          -0.5417   -4.6277   -4.0281 H       1  UNL1        0.0238
     53 H           0.1432   -4.2008   -2.4472 H       1  UNL1        0.0238
     54 H          -0.2409   -2.9092   -3.7122 H       1  UNL1        0.0238
     55 H          -1.7511   -5.2159   -1.1112 H       1  UNL1        0.0238
     56 H          -1.8984   -5.9630   -2.7768 H       1  UNL1        0.0238
     57 H          -3.3595   -5.2221   -1.9106 H       1  UNL1        0.0238
     58 H          -2.4365   -3.9413   -4.7974 H       1  UNL1        0.0238
     59 H          -3.1675   -2.5182   -4.0164 H       1  UNL1        0.0238
     60 H          -3.8581   -4.1725   -3.7451 H       1  UNL1        0.0238
     61 H          -3.6309   -0.5188    2.1678 H       1  UNL1        0.1569
     62 H          -5.0434    1.5278    2.6610 H       1  UNL1        0.1564
     63 H          -3.8418    4.1646    1.5597 H       1  UNL1        0.0637
     64 H          -4.7966    6.2765    0.7684 H       1  UNL1        0.0619
     65 H          -7.0810    6.2841   -0.0592 H       1  UNL1        0.0633
     66 H           0.5273    0.0967   -2.0528 H       1  UNL1        0.0469
     67 H           1.8088   -0.8629   -1.1307 H       1  UNL1        0.0469
     68 H           2.6591    0.9357   -2.5697 H       1  UNL1        0.0374
     69 H           1.8729    2.1569   -1.4901 H       1  UNL1        0.0374
@<TRIPOS>BOND
     1     1     2    1
     2     2     3    1
     3     2     4    1
     4     4     5    1
     5     5     6    1
     6     6     7    1
     7     7     8    1
     8     8     9    1
     9     9    10   am
    10    10    11    2
    11    10    12    1
    12    12    13   ar
    13    13    14   ar
    14    14    15    1
    15    15    16    1
    16    15    17    1
    17    15    18    1
    18    14    19   ar
    19    19    20   ar
    20    20    21    1
    21    21    22   am
    22    22    23    2
    23    22    24   am
    24    24    25    1
    25    25    26   ar
    26    26    27   ar
    27    27    28   ar
    28    28    29   ar
    29    29    30    1
    30    29    31   ar
    31    31    32    1
    32     9    33    1
    33    33    34    1
    34    34    35    1
    35    35    36    2
    36    35     6   am
    37    20    12   ar
    38    31    25   ar
    39     1    37    1
    40     1    38    1
    41     1    39    1
    42     3    40    1
    43     3    41    1
    44     3    42    1
    45     4    43    1
    46     4    44    1
    47     5    45    1
    48     5    46    1
    49     7    47    1
    50     7    48    1
    51     8    49    1
    52     8    50    1
    53    13    51    1
    54    16    52    1
    55    16    53    1
    56    16    54    1
    57    17    55    1
    58    17    56    1
    59    17    57    1
    60    18    58    1
    61    18    59    1
    62    18    60    1
    63    21    61    1
    64    24    62    1
    65    26    63    1
    66    27    64    1
    67    28    65    1
    68    33    66    1
    69    33    67    1
    70    34    68    1
    71    34    69    1
