@<TRIPOS>MOLECULE
*****
 24 25 0 0 0
SMALL
GASTEIGER

@<TRIPOS>ATOM
      1 N           4.1417   -0.0326   -0.8896 N.3     1  UNL1       -0.3261
      2 C           3.5011    0.0943    0.4040 C.3     1  UNL1        0.0185
      3 C           2.0196    0.0385    0.2622 C.ar    1  UNL1       -0.0338
      4 C           1.3531    1.2445    0.0645 C.ar    1  UNL1       -0.0568
      5 C          -0.0375    1.2782   -0.0781 C.ar    1  UNL1       -0.0532
      6 C          -0.6689    0.0716   -0.0099 C.ar    1  UNL1       -0.0113
      7 C          -0.0924   -1.1419    0.1796 C.ar    1  UNL1       -0.0532
      8 C           1.2876   -1.1299    0.3161 C.ar    1  UNL1       -0.0568
      9 C          -2.1285    0.1079   -0.1596 C.ar    1  UNL1        0.0193
     10 C          -3.0318   -0.9452   -0.1352 C.ar    1  UNL1       -0.0469
     11 C          -4.3606   -0.6677   -0.2980 C.ar    1  UNL1       -0.0541
     12 C          -4.7376    0.7008   -0.4845 C.ar    1  UNL1       -0.0237
     13 S          -3.0639    1.5960   -0.4148 S.2     1  UNL1       -0.0967
     14 H           5.1564   -0.1560   -0.7261 H       1  UNL1        0.1185
     15 H           3.9921    0.8629   -1.4372 H       1  UNL1        0.1185
     16 H           3.8519    0.9501    0.9905 H       1  UNL1        0.0471
     17 H           3.7947   -0.8392    0.9638 H       1  UNL1        0.0471
     18 H           1.9004    2.1656    0.0190 H       1  UNL1        0.0621
     19 H          -0.5087    2.2287   -0.2284 H       1  UNL1        0.0624
     20 H          -0.6329   -2.0755    0.2272 H       1  UNL1        0.0624
     21 H           1.8157   -2.0718    0.4712 H       1  UNL1        0.0621
     22 H          -2.6670   -1.9488    0.0104 H       1  UNL1        0.0629
     23 H          -5.1484   -1.4034   -0.2966 H       1  UNL1        0.0623
     24 H          -5.7361    1.0729   -0.6246 H       1  UNL1        0.0693
@<TRIPOS>BOND
     1     1     2    1
     2     2     3    1
     3     3     4   ar
     4     4     5   ar
     5     5     6   ar
     6     6     7   ar
     7     7     8   ar
     8     6     9    1
     9     9    10   ar
    10    10    11   ar
    11    11    12   ar
    12    12    13   ar
    13     8     3   ar
    14    13     9   ar
    15     1    14    1
    16     1    15    1
    17     2    16    1
    18     2    17    1
    19     4    18    1
    20     5    19    1
    21     7    20    1
    22     8    21    1
    23    10    22    1
    24    11    23    1
    25    12    24    1
