@<TRIPOS>MOLECULE
*****
 57 61 0 0 0
SMALL
GASTEIGER

@<TRIPOS>ATOM
      1 C           3.0330   -0.8706    2.5743 C.3     1  UNL1       -0.0219
      2 C           3.5379   -0.3873    1.2690 C.ar    1  UNL1        0.0486
      3 C           2.8438   -0.4469    0.0706 C.ar    1  UNL1        0.0393
      4 C           1.4899   -1.0550    0.0822 C.3     1  UNL1       -0.0080
      5 C           0.4642   -0.1613    0.7121 C.3     1  UNL1        0.0031
      6 N          -0.8713   -0.7208    0.7553 N.3     1  UNL1       -0.3020
      7 C          -1.4770   -0.8333   -0.5135 C.3     1  UNL1       -0.0005
      8 C          -2.9259   -1.2036   -0.4160 C.3     1  UNL1       -0.0318
      9 C          -3.6421   -0.1660    0.3877 C.3     1  UNL1        0.0075
     10 C          -3.0634   -0.1655    1.7785 C.3     1  UNL1       -0.0318
     11 C          -1.5733   -0.0810    1.8025 C.3     1  UNL1       -0.0005
     12 C          -5.0978   -0.4315    0.5057 C.ar    1  UNL1        0.0945
     13 N          -5.7952   -1.1442    1.4053 N.ar    1  UNL1       -0.0818
     14 O          -7.0692   -1.1322    1.1651 O.2     1  UNL1       -0.3543
     15 C          -7.3019   -0.4083    0.0860 C.ar    1  UNL1        0.1702
     16 C          -6.0697    0.0455   -0.3492 C.ar    1  UNL1        0.0447
     17 C          -5.9601    0.8419   -1.4723 C.ar    1  UNL1       -0.0464
     18 C          -7.0849    1.2006   -2.1842 C.ar    1  UNL1       -0.0256
     19 C          -8.3417    0.7562   -1.7668 C.ar    1  UNL1        0.1270
     20 F          -9.4322    1.1262   -2.4878 F       1  UNL1       -0.2054
     21 C          -8.4197   -0.0354   -0.6445 C.ar    1  UNL1        0.0192
     22 C           3.5068    0.0700   -1.0338 C.ar    1  UNL1        0.2575
     23 O           2.8931    0.0267   -2.1323 O.2     1  UNL1       -0.2673
     24 N           4.7244    0.5731   -0.8842 N.ar    1  UNL1       -0.2965
     25 C           5.4514    1.1120   -2.0281 C.3     1  UNL1        0.0278
     26 C           6.8189    0.4226   -2.0086 C.3     1  UNL1       -0.0344
     27 C           7.6077    0.7293   -0.7813 C.3     1  UNL1       -0.0446
     28 C           6.7618    1.2173    0.3691 C.3     1  UNL1        0.0058
     29 C           5.3945    0.6300    0.2782 C.ar    1  UNL1        0.1125
     30 N           4.7865    0.1430    1.3562 N.ar    1  UNL1       -0.2384
     31 H           2.7033    0.0214    3.1413 H       1  UNL1        0.0293
     32 H           2.2855   -1.6749    2.4889 H       1  UNL1        0.0293
     33 H           3.8638   -1.3128    3.1737 H       1  UNL1        0.0293
     34 H           1.2144   -1.3354   -0.9581 H       1  UNL1        0.0328
     35 H           1.5606   -2.0133    0.6288 H       1  UNL1        0.0328
     36 H           0.7469    0.0150    1.7708 H       1  UNL1        0.0430
     37 H           0.4283    0.8451    0.2314 H       1  UNL1        0.0430
     38 H          -0.9836   -1.6991   -1.0430 H       1  UNL1        0.0427
     39 H          -1.3061    0.0340   -1.1868 H       1  UNL1        0.0427
     40 H          -3.0095   -2.2115    0.0324 H       1  UNL1        0.0284
     41 H          -3.3849   -1.2806   -1.4286 H       1  UNL1        0.0284
     42 H          -3.5161    0.8042   -0.1348 H       1  UNL1        0.0366
     43 H          -3.4575   -1.0731    2.3053 H       1  UNL1        0.0284
     44 H          -3.4781    0.7121    2.3156 H       1  UNL1        0.0284
     45 H          -1.2585    0.9820    1.9059 H       1  UNL1        0.0427
     46 H          -1.2517   -0.5866    2.7617 H       1  UNL1        0.0427
     47 H          -4.9834    1.1953   -1.8084 H       1  UNL1        0.0626
     48 H          -7.0033    1.8178   -3.0568 H       1  UNL1        0.0646
     49 H          -9.3758   -0.3968   -0.2912 H       1  UNL1        0.0684
     50 H           5.5456    2.1940   -1.9186 H       1  UNL1        0.0493
     51 H           4.9479    0.7714   -2.9610 H       1  UNL1        0.0493
     52 H           6.6298   -0.6687   -2.0551 H       1  UNL1        0.0282
     53 H           7.3950    0.7111   -2.9081 H       1  UNL1        0.0282
     54 H           8.3883    1.4857   -1.0034 H       1  UNL1        0.0270
     55 H           8.1500   -0.2032   -0.4578 H       1  UNL1        0.0270
     56 H           7.2163    0.8811    1.3170 H       1  UNL1        0.0343
     57 H           6.7443    2.3342    0.3686 H       1  UNL1        0.0343
@<TRIPOS>BOND
     1     1     2    1
     2     2     3   ar
     3     3     4    1
     4     4     5    1
     5     5     6    1
     6     6     7    1
     7     7     8    1
     8     8     9    1
     9     9    10    1
    10    10    11    1
    11     9    12    1
    12    12    13   ar
    13    13    14   ar
    14    14    15   ar
    15    15    16   ar
    16    16    17   ar
    17    17    18   ar
    18    18    19   ar
    19    19    20    1
    20    19    21   ar
    21     3    22   ar
    22    22    23    2
    23    22    24   ar
    24    24    25    1
    25    25    26    1
    26    26    27    1
    27    27    28    1
    28    28    29    1
    29    29    30   ar
    30    30     2   ar
    31    11     6    1
    32    16    12   ar
    33    29    24   ar
    34    21    15   ar
    35     1    31    1
    36     1    32    1
    37     1    33    1
    38     4    34    1
    39     4    35    1
    40     5    36    1
    41     5    37    1
    42     7    38    1
    43     7    39    1
    44     8    40    1
    45     8    41    1
    46     9    42    1
    47    10    43    1
    48    10    44    1
    49    11    45    1
    50    11    46    1
    51    17    47    1
    52    18    48    1
    53    21    49    1
    54    25    50    1
    55    25    51    1
    56    26    52    1
    57    26    53    1
    58    27    54    1
    59    27    55    1
    60    28    56    1
    61    28    57    1
