@<TRIPOS>MOLECULE
*****
 48 51 0 0 0
SMALL
GASTEIGER

@<TRIPOS>ATOM
      1 C           1.6924   -1.9250   -3.2805 C.3     1  UNL1       -0.0321
      2 C           1.9322   -2.4229   -1.8424 C.3     1  UNL1        0.0854
      3 C           0.6476   -3.0130   -1.3663 C.3     1  UNL1       -0.0321
      4 O           2.9166   -3.4342   -1.9114 O.3     1  UNL1       -0.3845
      5 C           2.4664   -1.3125   -1.0541 C.ar    1  UNL1       -0.0160
      6 C           3.8321   -1.1804   -0.9331 C.ar    1  UNL1       -0.0558
      7 C           4.3669   -0.1396   -0.1985 C.ar    1  UNL1       -0.0608
      8 C           3.5088    0.7389    0.3941 C.ar    1  UNL1       -0.0525
      9 C           2.1085    0.6465    0.2998 C.ar    1  UNL1        0.0028
     10 C           1.3076    1.6353    1.0016 C.ar    1  UNL1        0.0982
     11 N           1.7924    2.8370    1.4718 N.ar    1  UNL1       -0.2351
     12 C           0.8183    3.4808    2.1212 C.ar    1  UNL1        0.0973
     13 N          -0.3172    2.7174    2.0861 N.ar    1  UNL1       -0.3229
     14 C          -1.5899    3.0753    2.6602 C.3     1  UNL1        0.0852
     15 C          -2.4223    3.9630    1.7740 C.3     1  UNL1        0.2569
     16 F          -2.7126    3.3923    0.5668 F       1  UNL1       -0.2073
     17 F          -1.6537    5.1036    1.5103 F       1  UNL1       -0.2073
     18 C           0.0034    1.6057    1.4025 C.ar    1  UNL1        0.0968
     19 C          -0.9596    0.5133    1.1300 C.ar    1  UNL1        0.1103
     20 C          -1.0091   -0.5958    1.9388 C.ar    1  UNL1       -0.0290
     21 C          -1.9192   -1.5963    1.6582 C.ar    1  UNL1       -0.0153
     22 C          -2.7348   -1.4013    0.5549 C.ar    1  UNL1        0.1555
     23 N          -3.7076   -2.1937    0.0299 N.ar    1  UNL1       -0.2333
     24 C          -4.2300   -1.5922   -1.0589 C.ar    1  UNL1        0.0659
     25 C          -3.5820   -0.3925   -1.2347 C.ar    1  UNL1        0.1618
     26 C          -3.7699    0.5851   -2.2685 C.1     1  UNL1        0.1208
     27 N          -3.9092    1.3991   -3.1089 N.1     1  UNL1       -0.1892
     28 N          -2.6775   -0.3218   -0.2207 N.ar    1  UNL1       -0.2023
     29 N          -1.7981    0.5995    0.0854 N.ar    1  UNL1       -0.1623
     30 C           1.6137   -0.3870   -0.4292 C.ar    1  UNL1       -0.0466
     31 H           0.8420   -1.2340   -3.1994 H       1  UNL1        0.0260
     32 H           2.6077   -1.5081   -3.7178 H       1  UNL1        0.0260
     33 H           1.4212   -2.8425   -3.8616 H       1  UNL1        0.0260
     34 H          -0.0396   -3.2407   -2.2371 H       1  UNL1        0.0260
     35 H           0.8963   -3.9823   -0.8376 H       1  UNL1        0.0260
     36 H           0.0650   -2.4316   -0.6591 H       1  UNL1        0.0260
     37 H           3.2968   -3.4943   -0.9884 H       1  UNL1        0.2106
     38 H           4.5438   -1.8789   -1.4032 H       1  UNL1        0.0621
     39 H           5.4574   -0.0551   -0.1190 H       1  UNL1        0.0618
     40 H           3.8944    1.5572    0.9705 H       1  UNL1        0.0624
     41 H           0.8608    4.4440    2.6091 H       1  UNL1        0.1029
     42 H          -2.2220    2.1481    2.8204 H       1  UNL1        0.0548
     43 H          -1.4943    3.4961    3.6905 H       1  UNL1        0.0548
     44 H          -3.3634    4.2807    2.3192 H       1  UNL1        0.1037
     45 H          -0.3315   -0.6618    2.7749 H       1  UNL1        0.0641
     46 H          -1.9783   -2.4866    2.2820 H       1  UNL1        0.0655
     47 H          -5.0282   -1.9927   -1.6915 H       1  UNL1        0.0859
     48 H           0.5578   -0.5020   -0.5304 H       1  UNL1        0.0628
@<TRIPOS>BOND
     1     1     2    1
     2     2     3    1
     3     2     4    1
     4     2     5    1
     5     5     6   ar
     6     6     7   ar
     7     7     8   ar
     8     8     9   ar
     9     9    10    1
    10    10    11   ar
    11    11    12   ar
    12    12    13   ar
    13    13    14    1
    14    14    15    1
    15    15    16    1
    16    15    17    1
    17    13    18   ar
    18    18    19    1
    19    19    20   ar
    20    20    21   ar
    21    21    22   ar
    22    22    23   ar
    23    23    24   ar
    24    24    25   ar
    25    25    26    1
    26    26    27    3
    27    25    28   ar
    28    28    29   ar
    29     9    30   ar
    30    30     5   ar
    31    18    10   ar
    32    29    19   ar
    33    28    22   ar
    34     1    31    1
    35     1    32    1
    36     1    33    1
    37     3    34    1
    38     3    35    1
    39     3    36    1
    40     4    37    1
    41     6    38    1
    42     7    39    1
    43     8    40    1
    44    12    41    1
    45    14    42    1
    46    14    43    1
    47    15    44    1
    48    20    45    1
    49    21    46    1
    50    24    47    1
    51    30    48    1
