
     RDKit          3D

 48 51  0  0  0  0  0  0  0  0999 V2000
    1.6924   -1.9250   -3.2805 C   0  0  0  0  0  0  0  0  0  0  0  0
    1.9322   -2.4229   -1.8424 C   0  0  0  0  0  0  0  0  0  0  0  0
    0.6476   -3.0130   -1.3663 C   0  0  0  0  0  0  0  0  0  0  0  0
    2.9166   -3.4342   -1.9114 O   0  0  0  0  0  0  0  0  0  0  0  0
    2.4664   -1.3125   -1.0541 C   0  0  0  0  0  0  0  0  0  0  0  0
    3.8321   -1.1804   -0.9331 C   0  0  0  0  0  0  0  0  0  0  0  0
    4.3669   -0.1396   -0.1985 C   0  0  0  0  0  0  0  0  0  0  0  0
    3.5088    0.7389    0.3941 C   0  0  0  0  0  0  0  0  0  0  0  0
    2.1085    0.6465    0.2998 C   0  0  0  0  0  0  0  0  0  0  0  0
    1.3076    1.6353    1.0016 C   0  0  0  0  0  0  0  0  0  0  0  0
    1.7924    2.8370    1.4718 N   0  0  0  0  0  0  0  0  0  0  0  0
    0.8183    3.4808    2.1212 C   0  0  0  0  0  0  0  0  0  0  0  0
   -0.3172    2.7174    2.0861 N   0  0  0  0  0  0  0  0  0  0  0  0
   -1.5899    3.0753    2.6602 C   0  0  0  0  0  0  0  0  0  0  0  0
   -2.4223    3.9630    1.7740 C   0  0  0  0  0  0  0  0  0  0  0  0
   -2.7126    3.3923    0.5668 F   0  0  0  0  0  0  0  0  0  0  0  0
   -1.6537    5.1036    1.5103 F   0  0  0  0  0  0  0  0  0  0  0  0
    0.0034    1.6057    1.4025 C   0  0  0  0  0  0  0  0  0  0  0  0
   -0.9596    0.5133    1.1300 C   0  0  0  0  0  0  0  0  0  0  0  0
   -1.0091   -0.5958    1.9388 C   0  0  0  0  0  0  0  0  0  0  0  0
   -1.9192   -1.5963    1.6582 C   0  0  0  0  0  0  0  0  0  0  0  0
   -2.7348   -1.4013    0.5549 C   0  0  0  0  0  0  0  0  0  0  0  0
   -3.7076   -2.1937    0.0299 N   0  0  0  0  0  0  0  0  0  0  0  0
   -4.2300   -1.5922   -1.0589 C   0  0  0  0  0  0  0  0  0  0  0  0
   -3.5820   -0.3925   -1.2347 C   0  0  0  0  0  0  0  0  0  0  0  0
   -3.7699    0.5851   -2.2685 C   0  0  0  0  0  0  0  0  0  0  0  0
   -3.9092    1.3991   -3.1089 N   0  0  0  0  0  0  0  0  0  0  0  0
   -2.6775   -0.3218   -0.2207 N   0  0  0  0  0  0  0  0  0  0  0  0
   -1.7981    0.5995    0.0854 N   0  0  0  0  0  0  0  0  0  0  0  0
    1.6137   -0.3870   -0.4292 C   0  0  0  0  0  0  0  0  0  0  0  0
    0.8420   -1.2340   -3.1994 H   0  0  0  0  0  0  0  0  0  0  0  0
    2.6077   -1.5081   -3.7178 H   0  0  0  0  0  0  0  0  0  0  0  0
    1.4212   -2.8425   -3.8616 H   0  0  0  0  0  0  0  0  0  0  0  0
   -0.0396   -3.2407   -2.2371 H   0  0  0  0  0  0  0  0  0  0  0  0
    0.8963   -3.9823   -0.8376 H   0  0  0  0  0  0  0  0  0  0  0  0
    0.0650   -2.4316   -0.6591 H   0  0  0  0  0  0  0  0  0  0  0  0
    3.2968   -3.4943   -0.9884 H   0  0  0  0  0  0  0  0  0  0  0  0
    4.5438   -1.8789   -1.4032 H   0  0  0  0  0  0  0  0  0  0  0  0
    5.4574   -0.0551   -0.1190 H   0  0  0  0  0  0  0  0  0  0  0  0
    3.8944    1.5572    0.9705 H   0  0  0  0  0  0  0  0  0  0  0  0
    0.8608    4.4440    2.6091 H   0  0  0  0  0  0  0  0  0  0  0  0
   -2.2220    2.1481    2.8204 H   0  0  0  0  0  0  0  0  0  0  0  0
   -1.4943    3.4961    3.6905 H   0  0  0  0  0  0  0  0  0  0  0  0
   -3.3634    4.2807    2.3192 H   0  0  0  0  0  0  0  0  0  0  0  0
   -0.3315   -0.6618    2.7749 H   0  0  0  0  0  0  0  0  0  0  0  0
   -1.9783   -2.4866    2.2820 H   0  0  0  0  0  0  0  0  0  0  0  0
   -5.0282   -1.9927   -1.6915 H   0  0  0  0  0  0  0  0  0  0  0  0
    0.5578   -0.5020   -0.5304 H   0  0  0  0  0  0  0  0  0  0  0  0
  1  2  1  0
  2  3  1  0
  2  4  1  0
  2  5  1  0
  5  6  2  0
  6  7  1  0
  7  8  2  0
  8  9  1  0
  9 10  1  0
 10 11  1  0
 11 12  2  0
 12 13  1  0
 13 14  1  0
 14 15  1  0
 15 16  1  0
 15 17  1  0
 13 18  1  0
 18 19  1  0
 19 20  1  0
 20 21  2  0
 21 22  1  0
 22 23  2  0
 23 24  1  0
 24 25  2  0
 25 26  1  0
 26 27  3  0
 25 28  1  0
 28 29  1  0
  9 30  2  0
 30  5  1  0
 18 10  2  0
 29 19  2  0
 28 22  1  0
  1 31  1  0
  1 32  1  0
  1 33  1  0
  3 34  1  0
  3 35  1  0
  3 36  1  0
  4 37  1  0
  6 38  1  0
  7 39  1  0
  8 40  1  0
 12 41  1  0
 14 42  1  0
 14 43  1  0
 15 44  1  0
 20 45  1  0
 21 46  1  0
 24 47  1  0
 30 48  1  0
M  END
$$$$
