@<TRIPOS>MOLECULE
*****
 68 72 0 0 0
SMALL
GASTEIGER

@<TRIPOS>ATOM
      1 C          -6.8757    2.0986   -1.6897 C.3     1  UNL1       -0.0445
      2 C          -6.0123    1.5872   -0.5239 C.3     1  UNL1        0.0466
      3 C          -5.8212    2.7886    0.3692 C.3     1  UNL1       -0.0445
      4 C          -4.7011    1.1255   -1.1659 C.3     1  UNL1       -0.0141
      5 C          -4.2261   -0.1327   -0.5250 C.3     1  UNL1        0.0269
      6 N          -2.8131   -0.3739   -0.5938 N.am    1  UNL1       -0.3084
      7 C          -2.3335   -1.6420   -0.9571 C.2     1  UNL1        0.2443
      8 O          -3.1667   -2.5469   -1.2199 O.2     1  UNL1       -0.2702
      9 C          -0.9093   -1.9267   -1.0311 C.ar    1  UNL1        0.0373
     10 C          -0.4825   -3.2393   -1.2716 C.ar    1  UNL1       -0.0496
     11 C           0.8524   -3.5606   -1.3533 C.ar    1  UNL1       -0.0604
     12 C           1.8349   -2.6083   -1.2026 C.ar    1  UNL1       -0.0525
     13 C           1.4473   -1.3107   -0.9659 C.ar    1  UNL1        0.0029
     14 C           2.4174   -0.2255   -0.8053 C.ar    1  UNL1        0.0953
     15 C           2.1347    1.1071   -0.5827 C.ar    1  UNL1        0.0103
     16 C           3.3747    1.7205   -0.5227 C.ar    1  UNL1        0.1580
     17 N           3.7314    3.0203   -0.3344 N.ar    1  UNL1       -0.2359
     18 C           5.0345    3.3288   -0.3340 C.ar    1  UNL1        0.0332
     19 C           6.0267    2.3961   -0.5134 C.ar    1  UNL1       -0.0033
     20 C           5.6483    1.0619   -0.7054 C.ar    1  UNL1        0.1281
     21 N           6.6462    0.1017   -0.9005 N.pl3   1  UNL1       -0.2992
     22 C           7.6080   -0.1938    0.1305 C.ar    1  UNL1        0.0358
     23 C           7.5930    0.4888    1.3348 C.ar    1  UNL1       -0.0403
     24 C           8.5496    0.1768    2.3049 C.ar    1  UNL1       -0.0566
     25 C           9.5098   -0.7945    2.0949 C.ar    1  UNL1       -0.0201
     26 C           9.5306   -1.4788    0.8969 C.ar    1  UNL1        0.1186
     27 O          10.4884   -2.4565    0.6707 O.3     1  UNL1       -0.5067
     28 C           8.5733   -1.1527   -0.0490 C.ar    1  UNL1        0.0010
     29 N           4.3400    0.7977   -0.6998 N.ar    1  UNL1       -0.1998
     30 N           3.7414   -0.3846   -0.8706 N.ar    1  UNL1       -0.1633
     31 C           0.0860   -0.9888   -0.8835 C.ar    1  UNL1       -0.0404
     32 C          -4.5799   -0.1834    0.9625 C.3     1  UNL1       -0.0141
     33 C          -6.0634   -0.2598    1.0413 C.3     1  UNL1        0.0466
     34 C          -6.5679    0.0501    2.4534 C.3     1  UNL1       -0.0445
     35 C          -6.4630   -1.7236    0.7992 C.3     1  UNL1       -0.0445
     36 N          -6.7550    0.5200    0.0719 N.3     1  UNL1       -0.1429
     37 O          -7.2314   -0.2440   -0.9429 O.3     1  UNL1       -0.1183
     38 H          -6.6753    3.1746   -1.8738 H       1  UNL1        0.0248
     39 H          -6.8149    1.4606   -2.5718 H       1  UNL1        0.0248
     40 H          -7.9239    2.0564   -1.3259 H       1  UNL1        0.0248
     41 H          -6.8069    3.3016    0.4150 H       1  UNL1        0.0248
     42 H          -5.1426    3.4907   -0.1716 H       1  UNL1        0.0248
     43 H          -5.3945    2.5833    1.3468 H       1  UNL1        0.0248
     44 H          -3.9344    1.9487   -1.1004 H       1  UNL1        0.0301
     45 H          -4.8333    0.9346   -2.2567 H       1  UNL1        0.0301
     46 H          -4.7491   -1.0348   -0.9484 H       1  UNL1        0.0499
     47 H          -2.1540    0.3876   -0.3723 H       1  UNL1        0.1493
     48 H          -1.2765   -3.9869   -1.3898 H       1  UNL1        0.0625
     49 H           1.1343   -4.5794   -1.5390 H       1  UNL1        0.0618
     50 H           2.8942   -2.8449   -1.2641 H       1  UNL1        0.0624
     51 H           1.1689    1.5498   -0.4821 H       1  UNL1        0.0677
     52 H           5.3056    4.3767   -0.1840 H       1  UNL1        0.0831
     53 H           7.0827    2.6195   -0.5185 H       1  UNL1        0.0667
     54 H           6.7130   -0.4159   -1.7889 H       1  UNL1        0.1536
     55 H           6.8426    1.2538    1.5109 H       1  UNL1        0.0636
     56 H           8.5436    0.7022    3.2391 H       1  UNL1        0.0619
     57 H          10.2270   -0.9993    2.8776 H       1  UNL1        0.0654
     58 H          11.0688   -2.8566    1.3673 H       1  UNL1        0.2921
     59 H           8.5957   -1.6918   -0.9849 H       1  UNL1        0.0673
     60 H          -0.2010    0.0300   -0.6987 H       1  UNL1        0.0632
     61 H          -4.0943    0.5926    1.5538 H       1  UNL1        0.0301
     62 H          -4.1306   -1.1608    1.3081 H       1  UNL1        0.0301
     63 H          -7.4574   -0.5878    2.6973 H       1  UNL1        0.0248
     64 H          -6.8827    1.0976    2.5278 H       1  UNL1        0.0248
     65 H          -5.7390   -0.1403    3.1374 H       1  UNL1        0.0248
     66 H          -6.4870   -1.8858   -0.3060 H       1  UNL1        0.0248
     67 H          -5.6369   -2.3418    1.1996 H       1  UNL1        0.0248
     68 H          -7.4082   -1.9775    1.2969 H       1  UNL1        0.0248
@<TRIPOS>BOND
     1     1     2    1
     2     2     3    1
     3     2     4    1
     4     4     5    1
     5     5     6    1
     6     6     7   am
     7     7     8    2
     8     7     9    1
     9     9    10   ar
    10    10    11   ar
    11    11    12   ar
    12    12    13   ar
    13    13    14    1
    14    14    15   ar
    15    15    16   ar
    16    16    17   ar
    17    17    18   ar
    18    18    19   ar
    19    19    20   ar
    20    20    21    1
    21    21    22    1
    22    22    23   ar
    23    23    24   ar
    24    24    25   ar
    25    25    26   ar
    26    26    27    1
    27    26    28   ar
    28    20    29   ar
    29    29    30   ar
    30    13    31   ar
    31     5    32    1
    32    32    33    1
    33    33    34    1
    34    33    35    1
    35    33    36    1
    36    36    37    1
    37    36     2    1
    38    31     9   ar
    39    30    14   ar
    40    29    16   ar
    41    28    22   ar
    42     1    38    1
    43     1    39    1
    44     1    40    1
    45     3    41    1
    46     3    42    1
    47     3    43    1
    48     4    44    1
    49     4    45    1
    50     5    46    1
    51     6    47    1
    52    10    48    1
    53    11    49    1
    54    12    50    1
    55    15    51    1
    56    18    52    1
    57    19    53    1
    58    21    54    1
    59    23    55    1
    60    24    56    1
    61    25    57    1
    62    27    58    1
    63    28    59    1
    64    31    60    1
    65    32    61    1
    66    32    62    1
    67    34    63    1
    68    34    64    1
    69    34    65    1
    70    35    66    1
    71    35    67    1
    72    35    68    1
