
     RDKit          3D

 66 70  0  0  0  0  0  0  0  0999 V2000
    1.2617   -0.1123   -2.2177 N   0  0  0  0  0  0  0  0  0  0  0  0
    1.0901   -0.4107   -0.7900 C   0  0  0  0  0  0  0  0  0  0  0  0
   -0.3786   -0.6096   -0.5358 C   0  0  0  0  0  0  0  0  0  0  0  0
   -0.8100   -0.9029    0.6017 O   0  0  0  0  0  0  0  0  0  0  0  0
   -1.3187   -0.4701   -1.5787 N   0  0  0  0  0  0  0  0  0  0  0  0
   -2.7421   -0.6529   -1.3680 C   0  0  1  0  0  0  0  0  0  0  0  0
   -3.5071    0.6000   -1.7318 C   0  0  0  0  0  0  0  0  0  0  0  0
   -3.0037    1.7179   -0.8517 C   0  0  0  0  0  0  0  0  0  0  0  0
   -3.1618    1.5178    0.5251 N   0  0  0  0  0  0  0  0  0  0  0  0
   -4.4531    1.5135    1.0877 C   0  0  0  0  0  0  0  0  0  0  0  0
   -4.2633    2.0976    2.4944 C   0  0  0  0  0  0  0  0  0  0  0  0
   -2.9680    2.9062    2.3498 C   0  0  0  0  0  0  0  0  0  0  0  0
   -2.1804    1.9795    1.4198 C   0  0  0  0  0  0  0  0  0  0  0  0
   -3.1381   -1.8314   -2.1561 C   0  0  0  0  0  0  0  0  0  0  0  0
   -4.2470   -1.9241   -2.9611 C   0  0  0  0  0  0  0  0  0  0  0  0
   -4.5281   -3.0779   -3.6599 C   0  0  0  0  0  0  0  0  0  0  0  0
   -3.7128   -4.1933   -3.5861 C   0  0  0  0  0  0  0  0  0  0  0  0
   -4.0657   -5.6725   -4.4751 Cl  0  0  0  0  0  0  0  0  0  0  0  0
   -2.5929   -4.1050   -2.7755 C   0  0  0  0  0  0  0  0  0  0  0  0
   -2.3216   -2.9548   -2.0852 C   0  0  0  0  0  0  0  0  0  0  0  0
    1.5733    0.7526    0.0398 C   0  0  0  0  0  0  0  0  0  0  0  0
    2.2732    0.2139    1.2666 C   0  0  0  0  0  0  0  0  0  0  0  0
    3.4253   -0.5303    0.8444 N   0  0  0  0  0  0  0  0  0  0  0  0
    4.6602   -0.4621    1.5551 C   0  0  0  0  0  0  0  0  0  0  0  0
    5.2209   -1.5253    2.1433 N   0  0  0  0  0  0  0  0  0  0  0  0
    6.3865   -1.4485    2.8146 C   0  0  0  0  0  0  0  0  0  0  0  0
    7.0102   -0.2650    2.8985 N   0  0  0  0  0  0  0  0  0  0  0  0
    6.4842    0.8383    2.3212 C   0  0  0  0  0  0  0  0  0  0  0  0
    6.9126    2.1026    2.2689 N   0  0  0  0  0  0  0  0  0  0  0  0
    6.0594    2.8589    1.5807 C   0  0  0  0  0  0  0  0  0  0  0  0
    5.0231    2.0357    1.1663 C   0  0  0  0  0  0  0  0  0  0  0  0
    5.2856    0.7636    1.6298 C   0  0  0  0  0  0  0  0  0  0  0  0
    3.2915   -1.3677   -0.3516 C   0  0  0  0  0  0  0  0  0  0  0  0
    1.8088   -1.6837   -0.4828 C   0  0  0  0  0  0  0  0  0  0  0  0
    0.7912    0.7651   -2.4636 H   0  0  0  0  0  0  0  0  0  0  0  0
    0.9228   -0.8800   -2.8185 H   0  0  0  0  0  0  0  0  0  0  0  0
   -0.9899   -0.2265   -2.5429 H   0  0  0  0  0  0  0  0  0  0  0  0
   -2.8749   -0.9018   -0.2907 H   0  0  0  0  0  0  0  0  0  0  0  0
   -4.5860    0.4714   -1.7442 H   0  0  0  0  0  0  0  0  0  0  0  0
   -3.1938    0.8576   -2.7775 H   0  0  0  0  0  0  0  0  0  0  0  0
   -3.5315    2.6638   -1.1442 H   0  0  0  0  0  0  0  0  0  0  0  0
   -1.9300    1.8702   -1.0791 H   0  0  0  0  0  0  0  0  0  0  0  0
   -5.0632    2.2950    0.5477 H   0  0  0  0  0  0  0  0  0  0  0  0
   -4.9956    0.5708    1.1074 H   0  0  0  0  0  0  0  0  0  0  0  0
   -4.0782    1.2980    3.2335 H   0  0  0  0  0  0  0  0  0  0  0  0
   -5.1010    2.7669    2.7694 H   0  0  0  0  0  0  0  0  0  0  0  0
   -2.4448    3.0093    3.3241 H   0  0  0  0  0  0  0  0  0  0  0  0
   -3.1957    3.8669    1.8711 H   0  0  0  0  0  0  0  0  0  0  0  0
   -1.4113    2.5641    0.8771 H   0  0  0  0  0  0  0  0  0  0  0  0
   -1.7427    1.2095    2.0851 H   0  0  0  0  0  0  0  0  0  0  0  0
   -4.8970   -1.0769   -3.0384 H   0  0  0  0  0  0  0  0  0  0  0  0
   -5.4126   -3.1558   -4.3036 H   0  0  0  0  0  0  0  0  0  0  0  0
   -1.9662   -4.9937   -2.7323 H   0  0  0  0  0  0  0  0  0  0  0  0
   -1.4336   -2.9313   -1.4627 H   0  0  0  0  0  0  0  0  0  0  0  0
    0.6995    1.3858    0.2852 H   0  0  0  0  0  0  0  0  0  0  0  0
    2.3159    1.3399   -0.5572 H   0  0  0  0  0  0  0  0  0  0  0  0
    2.5599    1.1109    1.8797 H   0  0  0  0  0  0  0  0  0  0  0  0
    1.5434   -0.4170    1.8265 H   0  0  0  0  0  0  0  0  0  0  0  0
    6.8344   -2.3010    3.2860 H   0  0  0  0  0  0  0  0  0  0  0  0
    7.8130    2.4269    2.7231 H   0  0  0  0  0  0  0  0  0  0  0  0
    6.1555    3.9329    1.3776 H   0  0  0  0  0  0  0  0  0  0  0  0
    4.1746    2.3258    0.5927 H   0  0  0  0  0  0  0  0  0  0  0  0
    3.8758   -2.2801   -0.2023 H   0  0  0  0  0  0  0  0  0  0  0  0
    3.6215   -0.7669   -1.2293 H   0  0  0  0  0  0  0  0  0  0  0  0
    1.4959   -2.0858    0.5040 H   0  0  0  0  0  0  0  0  0  0  0  0
    1.6712   -2.4123   -1.3094 H   0  0  0  0  0  0  0  0  0  0  0  0
  1  2  1  0
  2  3  1  0
  3  4  2  0
  3  5  1  0
  5  6  1  0
  6  7  1  0
  7  8  1  0
  8  9  1  0
  9 10  1  0
 10 11  1  0
 11 12  1  0
 12 13  1  0
  6 14  1  0
 14 15  2  0
 15 16  1  0
 16 17  2  0
 17 18  1  0
 17 19  1  0
 19 20  2  0
  2 21  1  0
 21 22  1  0
 22 23  1  0
 23 24  1  0
 24 25  2  0
 25 26  1  0
 26 27  2  0
 27 28  1  0
 28 29  1  0
 29 30  1  0
 30 31  2  0
 31 32  1  0
 23 33  1  0
 33 34  1  0
 34  2  1  0
 13  9  1  0
 20 14  1  0
 32 24  1  0
 32 28  2  0
  1 35  1  0
  1 36  1  0
  5 37  1  0
  6 38  1  1
  7 39  1  0
  7 40  1  0
  8 41  1  0
  8 42  1  0
 10 43  1  0
 10 44  1  0
 11 45  1  0
 11 46  1  0
 12 47  1  0
 12 48  1  0
 13 49  1  0
 13 50  1  0
 15 51  1  0
 16 52  1  0
 19 53  1  0
 20 54  1  0
 21 55  1  0
 21 56  1  0
 22 57  1  0
 22 58  1  0
 26 59  1  0
 29 60  1  0
 30 61  1  0
 31 62  1  0
 33 63  1  0
 33 64  1  0
 34 65  1  0
 34 66  1  0
M  END
$$$$
