@<TRIPOS>MOLECULE
*****
 66 70 0 0 0
SMALL
GASTEIGER

@<TRIPOS>ATOM
      1 N           1.2617   -0.1123   -2.2177 N.3     1  UNL1       -0.3173
      2 C           1.0901   -0.4107   -0.7900 C.3     1  UNL1        0.0965
      3 C          -0.3786   -0.6096   -0.5358 C.2     1  UNL1        0.2336
      4 O          -0.8100   -0.9029    0.6017 O.2     1  UNL1       -0.2738
      5 N          -1.3187   -0.4701   -1.5787 N.am    1  UNL1       -0.3069
      6 C          -2.7421   -0.6529   -1.3680 C.3     1  UNL1        0.0496
      7 C          -3.5071    0.6000   -1.7318 C.3     1  UNL1       -0.0175
      8 C          -3.0037    1.7179   -0.8517 C.3     1  UNL1        0.0009
      9 N          -3.1618    1.5178    0.5251 N.3     1  UNL1       -0.3022
     10 C          -4.4531    1.5135    1.0877 C.3     1  UNL1       -0.0011
     11 C          -4.2633    2.0976    2.4944 C.3     1  UNL1       -0.0390
     12 C          -2.9680    2.9062    2.3498 C.3     1  UNL1       -0.0390
     13 C          -2.1804    1.9795    1.4198 C.3     1  UNL1       -0.0011
     14 C          -3.1381   -1.8314   -2.1561 C.ar    1  UNL1       -0.0271
     15 C          -4.2470   -1.9241   -2.9611 C.ar    1  UNL1       -0.0554
     16 C          -4.5281   -3.0779   -3.6599 C.ar    1  UNL1       -0.0431
     17 C          -3.7128   -4.1933   -3.5861 C.ar    1  UNL1        0.0410
     18 CL         -4.0657   -5.6725   -4.4751 Cl      1  UNL1       -0.0835
     19 C          -2.5929   -4.1050   -2.7755 C.ar    1  UNL1       -0.0431
     20 C          -2.3216   -2.9548   -2.0852 C.ar    1  UNL1       -0.0554
     21 C           1.5733    0.7526    0.0398 C.3     1  UNL1       -0.0104
     22 C           2.2732    0.2139    1.2666 C.3     1  UNL1        0.0156
     23 N           3.4253   -0.5303    0.8444 N.pl3   1  UNL1       -0.3144
     24 C           4.6602   -0.4621    1.5551 C.ar    1  UNL1        0.1337
     25 N           5.2209   -1.5253    2.1433 N.ar    1  UNL1       -0.2200
     26 C           6.3865   -1.4485    2.8146 C.ar    1  UNL1        0.1204
     27 N           7.0102   -0.2650    2.8985 N.ar    1  UNL1       -0.2178
     28 C           6.4842    0.8383    2.3212 C.ar    1  UNL1        0.1432
     29 N           6.9126    2.1026    2.2689 N.ar    1  UNL1       -0.3457
     30 C           6.0594    2.8589    1.5807 C.ar    1  UNL1        0.0042
     31 C           5.0231    2.0357    1.1663 C.ar    1  UNL1       -0.0318
     32 C           5.2856    0.7636    1.6298 C.ar    1  UNL1        0.0585
     33 C           3.2915   -1.3677   -0.3516 C.3     1  UNL1        0.0156
     34 C           1.8088   -1.6837   -0.4828 C.3     1  UNL1       -0.0104
     35 H           0.7912    0.7651   -2.4636 H       1  UNL1        0.1192
     36 H           0.9228   -0.8800   -2.8185 H       1  UNL1        0.1192
     37 H          -0.9899   -0.2265   -2.5429 H       1  UNL1        0.1493
     38 H          -2.8749   -0.9018   -0.2907 H       1  UNL1        0.0549
     39 H          -4.5860    0.4714   -1.7442 H       1  UNL1        0.0299
     40 H          -3.1938    0.8576   -2.7775 H       1  UNL1        0.0299
     41 H          -3.5315    2.6638   -1.1442 H       1  UNL1        0.0427
     42 H          -1.9300    1.8702   -1.0791 H       1  UNL1        0.0427
     43 H          -5.0632    2.2950    0.5477 H       1  UNL1        0.0426
     44 H          -4.9956    0.5708    1.1074 H       1  UNL1        0.0426
     45 H          -4.0782    1.2980    3.2335 H       1  UNL1        0.0278
     46 H          -5.1010    2.7669    2.7694 H       1  UNL1        0.0278
     47 H          -2.4448    3.0093    3.3241 H       1  UNL1        0.0278
     48 H          -3.1957    3.8669    1.8711 H       1  UNL1        0.0278
     49 H          -1.4113    2.5641    0.8771 H       1  UNL1        0.0426
     50 H          -1.7427    1.2095    2.0851 H       1  UNL1        0.0426
     51 H          -4.8970   -1.0769   -3.0384 H       1  UNL1        0.0621
     52 H          -5.4126   -3.1558   -4.3036 H       1  UNL1        0.0632
     53 H          -1.9662   -4.9937   -2.7323 H       1  UNL1        0.0632
     54 H          -1.4336   -2.9313   -1.4627 H       1  UNL1        0.0621
     55 H           0.6995    1.3858    0.2852 H       1  UNL1        0.0303
     56 H           2.3159    1.3399   -0.5572 H       1  UNL1        0.0303
     57 H           2.5599    1.1109    1.8797 H       1  UNL1        0.0465
     58 H           1.5434   -0.4170    1.8265 H       1  UNL1        0.0465
     59 H           6.8344   -2.3010    3.2860 H       1  UNL1        0.1048
     60 H           7.8130    2.4269    2.7231 H       1  UNL1        0.1668
     61 H           6.1555    3.9329    1.3776 H       1  UNL1        0.0807
     62 H           4.1746    2.3258    0.5927 H       1  UNL1        0.0640
     63 H           3.8758   -2.2801   -0.2023 H       1  UNL1        0.0465
     64 H           3.6215   -0.7669   -1.2293 H       1  UNL1        0.0465
     65 H           1.4959   -2.0858    0.5040 H       1  UNL1        0.0303
     66 H           1.6712   -2.4123   -1.3094 H       1  UNL1        0.0303
@<TRIPOS>BOND
     1     1     2    1
     2     2     3    1
     3     3     4    2
     4     3     5   am
     5     5     6    1
     6     6     7    1
     7     7     8    1
     8     8     9    1
     9     9    10    1
    10    10    11    1
    11    11    12    1
    12    12    13    1
    13     6    14    1
    14    14    15   ar
    15    15    16   ar
    16    16    17   ar
    17    17    18    1
    18    17    19   ar
    19    19    20   ar
    20     2    21    1
    21    21    22    1
    22    22    23    1
    23    23    24    1
    24    24    25   ar
    25    25    26   ar
    26    26    27   ar
    27    27    28   ar
    28    28    29   ar
    29    29    30   ar
    30    30    31   ar
    31    31    32   ar
    32    23    33    1
    33    33    34    1
    34    34     2    1
    35    13     9    1
    36    20    14   ar
    37    32    24   ar
    38    32    28   ar
    39     1    35    1
    40     1    36    1
    41     5    37    1
    42     6    38    1
    43     7    39    1
    44     7    40    1
    45     8    41    1
    46     8    42    1
    47    10    43    1
    48    10    44    1
    49    11    45    1
    50    11    46    1
    51    12    47    1
    52    12    48    1
    53    13    49    1
    54    13    50    1
    55    15    51    1
    56    16    52    1
    57    19    53    1
    58    20    54    1
    59    21    55    1
    60    21    56    1
    61    22    57    1
    62    22    58    1
    63    26    59    1
    64    29    60    1
    65    30    61    1
    66    31    62    1
    67    33    63    1
    68    33    64    1
    69    34    65    1
    70    34    66    1
