
     RDKit          3D

 60 63  0  0  0  0  0  0  0  0999 V2000
    8.4525    2.6391    1.2537 C   0  0  0  0  0  0  0  0  0  0  0  0
    6.9522    1.6969    1.1161 S   0  0  0  0  0  4  0  0  0  0  0  0
    6.1054    1.6957    2.3535 O   0  0  0  0  0  0  0  0  0  0  0  0
    6.0165    2.1391   -0.3553 C   0  0  0  0  0  0  0  0  0  0  0  0
    4.7679    1.3534   -0.4577 C   0  0  0  0  0  0  0  0  0  0  0  0
    3.5387    1.9052   -0.1380 C   0  0  0  0  0  0  0  0  0  0  0  0
    2.4054    1.1259   -0.2444 C   0  0  0  0  0  0  0  0  0  0  0  0
    2.4411   -0.1804   -0.6557 C   0  0  0  0  0  0  0  0  0  0  0  0
    1.2563   -1.0371   -0.7754 C   0  0  0  0  0  0  0  0  0  0  0  0
    0.8712   -1.4751   -1.9056 O   0  0  0  0  0  0  0  0  0  0  0  0
    0.4855   -1.4241    0.3492 N   0  0  0  0  0  0  0  0  0  0  0  0
   -0.6645   -2.2624    0.3004 C   0  0  0  0  0  0  0  0  0  0  0  0
   -0.4171   -3.6389    0.3575 C   0  0  0  0  0  0  0  0  0  0  0  0
   -1.4821   -4.5065    0.3394 C   0  0  0  0  0  0  0  0  0  0  0  0
   -2.7725   -4.0281    0.2662 C   0  0  0  0  0  0  0  0  0  0  0  0
   -2.9552   -2.7001    0.2146 N   0  0  0  0  0  0  0  0  0  0  0  0
   -1.9339   -1.8117    0.2293 C   0  0  0  0  0  0  0  0  0  0  0  0
   -2.2195   -0.3623    0.1612 C   0  0  0  0  0  0  0  0  0  0  0  0
   -1.3108    0.4786    0.1158 O   0  0  0  0  0  0  0  0  0  0  0  0
   -3.5650    0.0856    0.1483 N   0  0  0  0  0  0  0  0  0  0  0  0
   -3.9884    1.4650    0.0833 C   0  0  0  0  0  0  0  0  0  0  0  0
   -5.4822    1.5939    0.1058 C   0  0  0  0  0  0  0  0  0  0  0  0
   -6.0911    1.0184    1.3720 C   0  0  0  0  0  0  0  0  0  0  0  0
   -7.5740    1.4159    1.3055 C   0  0  0  0  0  0  0  0  0  0  0  0
   -8.1544    0.7998    0.1844 O   0  0  0  0  0  0  0  0  0  0  0  0
   -7.6293    1.3160   -1.0045 C   0  0  0  0  0  0  0  0  0  0  0  0
   -6.1581    0.8769   -1.0436 C   0  0  0  0  0  0  0  0  0  0  0  0
    3.6758   -0.7538   -0.9836 C   0  0  0  0  0  0  0  0  0  0  0  0
    3.7814   -2.0552   -1.4010 C   0  0  0  0  0  0  0  0  0  0  0  0
    5.0023   -2.5990   -1.7148 C   0  0  0  0  0  0  0  0  0  0  0  0
    6.1318   -1.8333   -1.6119 C   0  0  0  0  0  0  0  0  0  0  0  0
    6.0374   -0.5254   -1.1947 C   0  0  0  0  0  0  0  0  0  0  0  0
    4.8232    0.0253   -0.8788 C   0  0  0  0  0  0  0  0  0  0  0  0
    8.4070    3.3690    2.0855 H   0  0  0  0  0  0  0  0  0  0  0  0
    8.5948    3.2211    0.3150 H   0  0  0  0  0  0  0  0  0  0  0  0
    9.3365    1.9574    1.3353 H   0  0  0  0  0  0  0  0  0  0  0  0
    6.6392    2.1063   -1.2699 H   0  0  0  0  0  0  0  0  0  0  0  0
    5.7245    3.2113   -0.2372 H   0  0  0  0  0  0  0  0  0  0  0  0
    3.5243    2.9366    0.1865 H   0  0  0  0  0  0  0  0  0  0  0  0
    1.4540    1.5643    0.0068 H   0  0  0  0  0  0  0  0  0  0  0  0
    0.7790   -1.0699    1.2889 H   0  0  0  0  0  0  0  0  0  0  0  0
    0.5796   -4.0471    0.4152 H   0  0  0  0  0  0  0  0  0  0  0  0
   -1.3320   -5.5999    0.3839 H   0  0  0  0  0  0  0  0  0  0  0  0
   -3.6230   -4.7244    0.2534 H   0  0  0  0  0  0  0  0  0  0  0  0
   -4.3146   -0.6512    0.1937 H   0  0  0  0  0  0  0  0  0  0  0  0
   -3.6705    1.8370   -0.9335 H   0  0  0  0  0  0  0  0  0  0  0  0
   -3.4860    2.1034    0.8281 H   0  0  0  0  0  0  0  0  0  0  0  0
   -5.7497    2.6535    0.0486 H   0  0  0  0  0  0  0  0  0  0  0  0
   -5.6865    1.4746    2.2941 H   0  0  0  0  0  0  0  0  0  0  0  0
   -6.0792   -0.0811    1.4007 H   0  0  0  0  0  0  0  0  0  0  0  0
   -7.5835    2.5165    1.0966 H   0  0  0  0  0  0  0  0  0  0  0  0
   -8.1286    1.1448    2.1975 H   0  0  0  0  0  0  0  0  0  0  0  0
   -7.6707    2.4290   -1.0255 H   0  0  0  0  0  0  0  0  0  0  0  0
   -8.1917    0.8492   -1.8419 H   0  0  0  0  0  0  0  0  0  0  0  0
   -6.2086   -0.2214   -0.7765 H   0  0  0  0  0  0  0  0  0  0  0  0
   -5.7023    1.0512   -2.0182 H   0  0  0  0  0  0  0  0  0  0  0  0
    2.9103   -2.6814   -1.4915 H   0  0  0  0  0  0  0  0  0  0  0  0
    5.1024   -3.6458   -2.0487 H   0  0  0  0  0  0  0  0  0  0  0  0
    7.1059   -2.2479   -1.8550 H   0  0  0  0  0  0  0  0  0  0  0  0
    6.9228    0.1078   -1.1038 H   0  0  0  0  0  0  0  0  0  0  0  0
  1  2  1  0
  2  3  2  0
  2  4  1  0
  4  5  1  0
  5  6  2  0
  6  7  1  0
  7  8  2  0
  8  9  1  0
  9 10  2  0
  9 11  1  0
 11 12  1  0
 12 13  2  0
 13 14  1  0
 14 15  2  0
 15 16  1  0
 16 17  2  0
 17 18  1  0
 18 19  2  0
 18 20  1  0
 20 21  1  0
 21 22  1  0
 22 23  1  0
 23 24  1  0
 24 25  1  0
 25 26  1  0
 26 27  1  0
  8 28  1  0
 28 29  2  0
 29 30  1  0
 30 31  2  0
 31 32  1  0
 32 33  2  0
 33  5  1  0
 17 12  1  0
 27 22  1  0
 33 28  1  0
  1 34  1  0
  1 35  1  0
  1 36  1  0
  4 37  1  0
  4 38  1  0
  6 39  1  0
  7 40  1  0
 11 41  1  0
 13 42  1  0
 14 43  1  0
 15 44  1  0
 20 45  1  0
 21 46  1  0
 21 47  1  0
 22 48  1  0
 23 49  1  0
 23 50  1  0
 24 51  1  0
 24 52  1  0
 26 53  1  0
 26 54  1  0
 27 55  1  0
 27 56  1  0
 29 57  1  0
 30 58  1  0
 31 59  1  0
 32 60  1  0
M  END
$$$$
