@<TRIPOS>MOLECULE
*****
 60 63 0 0 0
SMALL
GASTEIGER

@<TRIPOS>ATOM
      1 C           8.4525    2.6391    1.2537 C.3     1  UNL1        0.0120
      2 S           6.9522    1.6969    1.1161 S.O     1  UNL1        0.0234
      3 O           6.1054    1.6957    2.3535 O.2     1  UNL1       -0.2571
      4 C           6.0165    2.1391   -0.3553 C.3     1  UNL1        0.0487
      5 C           4.7679    1.3534   -0.4577 C.ar    1  UNL1       -0.0274
      6 C           3.5387    1.9052   -0.1380 C.ar    1  UNL1       -0.0564
      7 C           2.4054    1.1259   -0.2444 C.ar    1  UNL1       -0.0487
      8 C           2.4411   -0.1804   -0.6557 C.ar    1  UNL1        0.0447
      9 C           1.2563   -1.0371   -0.7754 C.2     1  UNL1        0.2489
     10 O           0.8712   -1.4751   -1.9056 O.2     1  UNL1       -0.2698
     11 N           0.4855   -1.4241    0.3492 N.am    1  UNL1       -0.2796
     12 C          -0.6645   -2.2624    0.3004 C.ar    1  UNL1        0.0644
     13 C          -0.4171   -3.6389    0.3575 C.ar    1  UNL1       -0.0368
     14 C          -1.4821   -4.5065    0.3394 C.ar    1  UNL1       -0.0418
     15 C          -2.7725   -4.0281    0.2662 C.ar    1  UNL1        0.0286
     16 N          -2.9552   -2.7001    0.2146 N.ar    1  UNL1       -0.2485
     17 C          -1.9339   -1.8117    0.2293 C.ar    1  UNL1        0.1464
     18 C          -2.2195   -0.3623    0.1612 C.2     1  UNL1        0.2642
     19 O          -1.3108    0.4786    0.1158 O.2     1  UNL1       -0.2685
     20 N          -3.5650    0.0856    0.1483 N.am    1  UNL1       -0.3098
     21 C          -3.9884    1.4650    0.0833 C.3     1  UNL1        0.0149
     22 C          -5.4822    1.5939    0.1058 C.3     1  UNL1       -0.0213
     23 C          -6.0911    1.0184    1.3720 C.3     1  UNL1       -0.0251
     24 C          -7.5740    1.4159    1.3055 C.3     1  UNL1        0.0480
     25 O          -8.1544    0.7998    0.1844 O.3     1  UNL1       -0.3797
     26 C          -7.6293    1.3160   -1.0045 C.3     1  UNL1        0.0480
     27 C          -6.1581    0.8769   -1.0436 C.3     1  UNL1       -0.0251
     28 C           3.6758   -0.7538   -0.9836 C.ar    1  UNL1       -0.0055
     29 C           3.7814   -2.0552   -1.4010 C.ar    1  UNL1       -0.0533
     30 C           5.0023   -2.5990   -1.7148 C.ar    1  UNL1       -0.0611
     31 C           6.1318   -1.8333   -1.6119 C.ar    1  UNL1       -0.0612
     32 C           6.0374   -0.5254   -1.1947 C.ar    1  UNL1       -0.0537
     33 C           4.8232    0.0253   -0.8788 C.ar    1  UNL1       -0.0131
     34 H           8.4070    3.3690    2.0855 H       1  UNL1        0.0365
     35 H           8.5948    3.2211    0.3150 H       1  UNL1        0.0365
     36 H           9.3365    1.9574    1.3353 H       1  UNL1        0.0365
     37 H           6.6392    2.1063   -1.2699 H       1  UNL1        0.0450
     38 H           5.7245    3.2113   -0.2372 H       1  UNL1        0.0450
     39 H           3.5243    2.9366    0.1865 H       1  UNL1        0.0621
     40 H           1.4540    1.5643    0.0068 H       1  UNL1        0.0625
     41 H           0.7790   -1.0699    1.2889 H       1  UNL1        0.1552
     42 H           0.5796   -4.0471    0.4152 H       1  UNL1        0.0637
     43 H          -1.3320   -5.5999    0.3839 H       1  UNL1        0.0633
     44 H          -3.6230   -4.7244    0.2534 H       1  UNL1        0.0830
     45 H          -4.3146   -0.6512    0.1937 H       1  UNL1        0.1491
     46 H          -3.6705    1.8370   -0.9335 H       1  UNL1        0.0465
     47 H          -3.4860    2.1034    0.8281 H       1  UNL1        0.0465
     48 H          -5.7497    2.6535    0.0486 H       1  UNL1        0.0317
     49 H          -5.6865    1.4746    2.2941 H       1  UNL1        0.0290
     50 H          -6.0792   -0.0811    1.4007 H       1  UNL1        0.0290
     51 H          -7.5835    2.5165    1.0966 H       1  UNL1        0.0560
     52 H          -8.1286    1.1448    2.1975 H       1  UNL1        0.0560
     53 H          -7.6707    2.4290   -1.0255 H       1  UNL1        0.0560
     54 H          -8.1917    0.8492   -1.8419 H       1  UNL1        0.0560
     55 H          -6.2086   -0.2214   -0.7765 H       1  UNL1        0.0290
     56 H          -5.7023    1.0512   -2.0182 H       1  UNL1        0.0290
     57 H           2.9103   -2.6814   -1.4915 H       1  UNL1        0.0624
     58 H           5.1024   -3.6458   -2.0487 H       1  UNL1        0.0618
     59 H           7.1059   -2.2479   -1.8550 H       1  UNL1        0.0618
     60 H           6.9228    0.1078   -1.1038 H       1  UNL1        0.0624
@<TRIPOS>BOND
     1     1     2    1
     2     2     3    2
     3     2     4    1
     4     4     5    1
     5     5     6   ar
     6     6     7   ar
     7     7     8   ar
     8     8     9    1
     9     9    10    2
    10     9    11   am
    11    11    12    1
    12    12    13   ar
    13    13    14   ar
    14    14    15   ar
    15    15    16   ar
    16    16    17   ar
    17    17    18    1
    18    18    19    2
    19    18    20   am
    20    20    21    1
    21    21    22    1
    22    22    23    1
    23    23    24    1
    24    24    25    1
    25    25    26    1
    26    26    27    1
    27     8    28   ar
    28    28    29   ar
    29    29    30   ar
    30    30    31   ar
    31    31    32   ar
    32    32    33   ar
    33    33     5   ar
    34    17    12   ar
    35    27    22    1
    36    33    28   ar
    37     1    34    1
    38     1    35    1
    39     1    36    1
    40     4    37    1
    41     4    38    1
    42     6    39    1
    43     7    40    1
    44    11    41    1
    45    13    42    1
    46    14    43    1
    47    15    44    1
    48    20    45    1
    49    21    46    1
    50    21    47    1
    51    22    48    1
    52    23    49    1
    53    23    50    1
    54    24    51    1
    55    24    52    1
    56    26    53    1
    57    26    54    1
    58    27    55    1
    59    27    56    1
    60    29    57    1
    61    30    58    1
    62    31    59    1
    63    32    60    1
