@<TRIPOS>MOLECULE
*****
 50 52 0 0 0
SMALL
GASTEIGER

@<TRIPOS>ATOM
      1 O          -6.0384    0.9588    1.5754 O.2     1  UNL1       -0.2719
      2 C          -4.8628    0.7982    1.1502 C.2     1  UNL1        0.2544
      3 N          -3.9484    1.8654    1.3606 N.am    1  UNL1       -0.1961
      4 O          -4.3501    2.9795    1.9869 O.3     1  UNL1       -0.2951
      5 C          -4.4902   -0.4666    0.4644 C.3     1  UNL1        0.1120
      6 C          -5.4042   -0.8035   -0.6734 C.3     1  UNL1       -0.0010
      7 C          -5.2271    0.0933   -1.8705 C.3     1  UNL1        0.0584
      8 O          -6.1118    1.1635   -1.7685 O.3     1  UNL1       -0.3917
      9 C          -3.7941    0.5649   -1.9990 C.3     1  UNL1       -0.0123
     10 C          -2.8662   -0.3986   -1.3149 C.3     1  UNL1        0.0237
     11 N          -3.1093   -0.3807    0.0950 N.3     1  UNL1       -0.1645
     12 S          -2.0862   -1.4059    0.9966 S.O2    1  UNL1        0.0615
     13 O          -2.2591   -2.8542    0.6690 O.2     1  UNL1       -0.1528
     14 O          -2.4767   -1.2526    2.4595 O.2     1  UNL1       -0.1528
     15 C          -0.4145   -0.9889    0.8623 C.ar    1  UNL1        0.1057
     16 C           0.1458   -0.1079    1.7363 C.ar    1  UNL1       -0.0319
     17 C           1.4752    0.2252    1.6312 C.ar    1  UNL1       -0.0181
     18 C           2.2352   -0.3429    0.6303 C.ar    1  UNL1        0.1211
     19 O           3.5731   -0.0104    0.5211 O.3     1  UNL1       -0.4873
     20 C           4.3583   -0.5773   -0.4879 C.3     1  UNL1        0.1160
     21 C           5.7565   -0.0840   -0.4203 C.ar    1  UNL1        0.0079
     22 C           6.7584   -0.8847    0.0911 C.ar    1  UNL1       -0.0540
     23 C           8.0538   -0.4234    0.1524 C.ar    1  UNL1       -0.0613
     24 C           8.3411    0.8409   -0.3000 C.ar    1  UNL1       -0.0604
     25 C           7.3527    1.6458   -0.8104 C.ar    1  UNL1       -0.0430
     26 C           6.0401    1.1811   -0.8736 C.ar    1  UNL1        0.0474
     27 CL          4.7991    2.2153   -1.5240 Cl      1  UNL1       -0.0831
     28 C           1.6739   -1.2356   -0.2585 C.ar    1  UNL1       -0.0181
     29 C           0.3533   -1.5594   -0.1450 C.ar    1  UNL1       -0.0319
     30 H          -2.9638    1.7862    1.0301 H       1  UNL1        0.1822
     31 H          -5.2797    2.8740    2.3234 H       1  UNL1        0.2414
     32 H          -4.6003   -1.2933    1.2172 H       1  UNL1        0.0577
     33 H          -6.4478   -0.7410   -0.2906 H       1  UNL1        0.0310
     34 H          -5.2345   -1.8756   -0.9362 H       1  UNL1        0.0310
     35 H          -5.4801   -0.4693   -2.7993 H       1  UNL1        0.0594
     36 H          -5.5979    2.0077   -1.8295 H       1  UNL1        0.2098
     37 H          -3.5573    0.6756   -3.0823 H       1  UNL1        0.0303
     38 H          -3.7116    1.5699   -1.5466 H       1  UNL1        0.0303
     39 H          -1.8271   -0.0431   -1.4809 H       1  UNL1        0.0445
     40 H          -2.9624   -1.4012   -1.7768 H       1  UNL1        0.0445
     41 H          -0.4535    0.3499    2.5370 H       1  UNL1        0.0638
     42 H           1.9157    0.9266    2.3292 H       1  UNL1        0.0655
     43 H           4.3429   -1.6878   -0.3769 H       1  UNL1        0.0748
     44 H           3.9371   -0.3751   -1.5047 H       1  UNL1        0.0748
     45 H           6.4915   -1.8790    0.4389 H       1  UNL1        0.0622
     46 H           8.8278   -1.0723    0.5599 H       1  UNL1        0.0618
     47 H           9.3811    1.1844   -0.2406 H       1  UNL1        0.0618
     48 H           7.6080    2.6476   -1.1639 H       1  UNL1        0.0632
     49 H           2.2710   -1.6851   -1.0489 H       1  UNL1        0.0655
     50 H          -0.1363   -2.2542   -0.8149 H       1  UNL1        0.0638
@<TRIPOS>BOND
     1     1     2    2
     2     2     3   am
     3     3     4    1
     4     2     5    1
     5     5     6    1
     6     6     7    1
     7     7     8    1
     8     7     9    1
     9     9    10    1
    10    10    11    1
    11    11    12    1
    12    12    13    2
    13    12    14    2
    14    12    15    1
    15    15    16   ar
    16    16    17   ar
    17    17    18   ar
    18    18    19    1
    19    19    20    1
    20    20    21    1
    21    21    22   ar
    22    22    23   ar
    23    23    24   ar
    24    24    25   ar
    25    25    26   ar
    26    26    27    1
    27    18    28   ar
    28    28    29   ar
    29    11     5    1
    30    29    15   ar
    31    26    21   ar
    32     3    30    1
    33     4    31    1
    34     5    32    1
    35     6    33    1
    36     6    34    1
    37     7    35    1
    38     8    36    1
    39     9    37    1
    40     9    38    1
    41    10    39    1
    42    10    40    1
    43    16    41    1
    44    17    42    1
    45    20    43    1
    46    20    44    1
    47    22    45    1
    48    23    46    1
    49    24    47    1
    50    25    48    1
    51    28    49    1
    52    29    50    1
