@<TRIPOS>MOLECULE
*****
 57 59 0 0 0
SMALL
GASTEIGER

@<TRIPOS>ATOM
      1 C          -0.0676   -0.1232    2.8951 C.3     1  UNL1        0.1022
      2 C           0.2543   -0.3528    4.3522 C.3     1  UNL1       -0.0243
      3 C          -0.7294   -1.4463    4.7627 C.3     1  UNL1       -0.0350
      4 C          -1.1006   -2.0271    3.4082 C.3     1  UNL1        0.0155
      5 N          -1.2985   -0.8323    2.6164 N.am    1  UNL1       -0.2899
      6 C          -2.3901   -0.4115    1.7686 C.2     1  UNL1        0.2162
      7 O          -2.7156   -1.5367    2.2271 O.2     1  UNL1       -0.2756
      8 C          -2.2575    0.8784    1.1093 C.3     1  UNL1        0.0244
      9 C          -3.3636    1.3257    0.2424 C.3     1  UNL1       -0.0419
     10 C          -3.7244    0.5239   -0.9322 C.3     1  UNL1       -0.0406
     11 C          -2.6485    0.3270   -1.9726 C.3     1  UNL1       -0.0502
     12 C          -3.3981   -0.5417   -2.9823 C.3     1  UNL1       -0.0528
     13 C          -4.4471   -1.3022   -2.1760 C.3     1  UNL1       -0.0528
     14 C          -4.1863   -0.8729   -0.7185 C.3     1  UNL1       -0.0502
     15 C           1.0718   -0.6470    2.0978 C.2     1  UNL1        0.2338
     16 O           0.8264   -1.5755    1.2848 O.2     1  UNL1       -0.2738
     17 N           2.3717   -0.0971    2.2735 N.am    1  UNL1       -0.3097
     18 C           3.5373   -0.5404    1.5430 C.3     1  UNL1        0.0369
     19 C           3.6055   -0.0448    0.1497 C.ar    1  UNL1       -0.0303
     20 C           3.0910   -0.6617   -0.9777 C.ar    1  UNL1       -0.0563
     21 C           3.2080   -0.1131   -2.2342 C.ar    1  UNL1       -0.0466
     22 C           3.8623    1.1072   -2.4158 C.ar    1  UNL1        0.0647
     23 C           4.3833    1.7410   -1.3085 C.ar    1  UNL1       -0.0466
     24 C           4.2574    1.1777   -0.0557 C.ar    1  UNL1       -0.0563
     25 C           4.0323    1.7589   -3.6969 C.2     1  UNL1        0.3081
     26 N           3.0991    1.6297   -4.7615 N.pl3   1  UNL1       -0.2466
     27 N           5.0169    2.5220   -4.0454 N.2     1  UNL1       -0.0994
     28 H          -0.2012    0.9529    2.6590 H       1  UNL1        0.0597
     29 H           0.0288    0.5659    4.9198 H       1  UNL1        0.0288
     30 H           1.2830   -0.7259    4.5116 H       1  UNL1        0.0288
     31 H          -1.6662   -0.9806    5.1566 H       1  UNL1        0.0281
     32 H          -0.2773   -2.1612    5.4477 H       1  UNL1        0.0281
     33 H          -1.9701   -2.6632    3.5415 H       1  UNL1        0.0465
     34 H          -0.2933   -2.6782    3.0128 H       1  UNL1        0.0465
     35 H          -1.2890    0.8978    0.5713 H       1  UNL1        0.0358
     36 H          -2.1251    1.6546    1.9194 H       1  UNL1        0.0358
     37 H          -4.2924    1.5248    0.8206 H       1  UNL1        0.0272
     38 H          -3.0752    2.3520   -0.1398 H       1  UNL1        0.0272
     39 H          -4.5527    1.0566   -1.4678 H       1  UNL1        0.0301
     40 H          -1.8143   -0.3041   -1.6047 H       1  UNL1        0.0268
     41 H          -2.3266    1.2698   -2.4540 H       1  UNL1        0.0268
     42 H          -3.9406    0.1164   -3.6944 H       1  UNL1        0.0265
     43 H          -2.7029   -1.2235   -3.5081 H       1  UNL1        0.0265
     44 H          -5.4686   -0.9927   -2.4058 H       1  UNL1        0.0265
     45 H          -4.3096   -2.3752   -2.3015 H       1  UNL1        0.0265
     46 H          -3.3380   -1.5480   -0.4083 H       1  UNL1        0.0268
     47 H          -5.0634   -0.9717   -0.0847 H       1  UNL1        0.0268
     48 H           2.4523    0.6850    2.9930 H       1  UNL1        0.1491
     49 H           3.6450   -1.6616    1.5819 H       1  UNL1        0.0512
     50 H           4.4317   -0.1781    2.0872 H       1  UNL1        0.0512
     51 H           2.5946   -1.5979   -0.8118 H       1  UNL1        0.0621
     52 H           2.8013   -0.6076   -3.1019 H       1  UNL1        0.0626
     53 H           4.9078    2.6997   -1.3826 H       1  UNL1        0.0626
     54 H           4.6871    1.7157    0.7979 H       1  UNL1        0.0621
     55 H           3.4712    0.8577   -5.3700 H       1  UNL1        0.2884
     56 H           2.3025    1.7163   -5.4235 H       1  UNL1        0.2884
     57 H           5.8113    2.7390   -3.3903 H       1  UNL1        0.3633
@<TRIPOS>BOND
     1     1     2    1
     2     2     3    1
     3     3     4    1
     4     4     5    1
     5     5     6   am
     6     6     7    2
     7     6     8    1
     8     8     9    1
     9     9    10    1
    10    10    11    1
    11    11    12    1
    12    12    13    1
    13    13    14    1
    14     1    15    1
    15    15    16    2
    16    15    17   am
    17    17    18    1
    18    18    19    1
    19    19    20   ar
    20    20    21   ar
    21    21    22   ar
    22    22    23   ar
    23    23    24   ar
    24    22    25    1
    25    25    26    1
    26    25    27    2
    27     5     1    1
    28    14    10    1
    29    24    19   ar
    30     1    28    1
    31     2    29    1
    32     2    30    1
    33     3    31    1
    34     3    32    1
    35     4    33    1
    36     4    34    1
    37     8    35    1
    38     8    36    1
    39     9    37    1
    40     9    38    1
    41    10    39    1
    42    11    40    1
    43    11    41    1
    44    12    42    1
    45    12    43    1
    46    13    44    1
    47    13    45    1
    48    14    46    1
    49    14    47    1
    50    17    48    1
    51    18    49    1
    52    18    50    1
    53    20    51    1
    54    21    52    1
    55    23    53    1
    56    24    54    1
    57    26    55    1
    58    26    56    1
    59    27    57    1
