@<TRIPOS>MOLECULE
*****
 69 73 0 0 0
SMALL
GASTEIGER

@<TRIPOS>ATOM
      1 C           9.5385    0.9152   -0.5771 C.3     1  UNL1       -0.0126
      2 N           8.1354    0.8795   -0.2105 N.3     1  UNL1       -0.3024
      3 C           8.0501    0.8753    1.2291 C.3     1  UNL1        0.0144
      4 C           6.6008    0.9301    1.7032 C.3     1  UNL1        0.0250
      5 N           5.7499    1.2456    0.5920 N.pl3   1  UNL1       -0.3270
      6 C           4.5632    0.5435    0.3234 C.ar    1  UNL1        0.0415
      7 C           4.6008   -0.3208   -0.7851 C.ar    1  UNL1       -0.0394
      8 C           3.4763   -1.0335   -1.0934 C.ar    1  UNL1       -0.0479
      9 C           2.2843   -0.9485   -0.3616 C.ar    1  UNL1        0.0377
     10 C           1.1265   -1.7300   -0.7383 C.2     1  UNL1        0.2483
     11 O           1.1781   -2.4970   -1.7280 O.2     1  UNL1       -0.2699
     12 N          -0.0702   -1.6419   -0.0032 N.am    1  UNL1       -0.2815
     13 C          -1.2070   -2.4244   -0.3917 C.ar    1  UNL1        0.0340
     14 C          -1.4008   -3.6837    0.1169 C.ar    1  UNL1       -0.0405
     15 C          -2.4976   -4.4527   -0.2503 C.ar    1  UNL1       -0.0597
     16 C          -3.4088   -3.9456   -1.1399 C.ar    1  UNL1       -0.0570
     17 C          -3.2282   -2.6732   -1.6639 C.ar    1  UNL1       -0.0286
     18 C          -4.2197   -2.1972   -2.6317 C.3     1  UNL1        0.0358
     19 N          -5.4262   -1.6940   -2.0542 N.pl3   1  UNL1       -0.3231
     20 C          -5.4491   -0.5785   -1.1945 C.ar    1  UNL1        0.1492
     21 N          -4.3134    0.0782   -0.8815 N.ar    1  UNL1       -0.1338
     22 N          -4.3259    1.1061   -0.0969 N.ar    1  UNL1       -0.1553
     23 C          -5.4796    1.5858    0.4577 C.ar    1  UNL1        0.0585
     24 C          -6.6721    0.9757    0.1879 C.ar    1  UNL1        0.0173
     25 C          -7.8482    1.4091    0.7275 C.ar    1  UNL1        0.0458
     26 C          -7.9567    2.5821    1.5541 C.2     1  UNL1        0.2422
     27 N          -7.0438    3.6295    1.7183 N.am    1  UNL1       -0.3253
     28 O          -9.0463    2.7010    2.2420 O.2     1  UNL1       -0.2704
     29 C          -9.0277    0.7226    0.4212 C.ar    1  UNL1       -0.0490
     30 C          -9.0520   -0.3627   -0.3972 C.ar    1  UNL1       -0.0603
     31 C          -7.8433   -0.7733   -0.9282 C.ar    1  UNL1       -0.0506
     32 C          -6.6556   -0.1328   -0.6572 C.ar    1  UNL1        0.0258
     33 C          -2.1432   -1.9272   -1.2941 C.ar    1  UNL1       -0.0358
     34 C           2.3132   -0.0891    0.7055 C.ar    1  UNL1       -0.0362
     35 C           3.4308    0.6632    1.0675 C.ar    1  UNL1        0.0765
     36 C           3.3128    1.5486    2.2407 C.3     1  UNL1        0.4191
     37 F           1.9997    1.4831    2.7454 F       1  UNL1       -0.1658
     38 F           4.1619    1.1088    3.2605 F       1  UNL1       -0.1658
     39 F           3.6638    2.8309    1.9277 F       1  UNL1       -0.1658
     40 C           6.1389    2.3317   -0.2819 C.3     1  UNL1        0.0250
     41 C           7.4928    2.0144   -0.8292 C.3     1  UNL1        0.0144
     42 H           9.8553   -0.1017   -0.8883 H       1  UNL1        0.0391
     43 H           9.7238    1.6593   -1.3944 H       1  UNL1        0.0391
     44 H          10.1408    1.2568    0.2876 H       1  UNL1        0.0391
     45 H           8.4587   -0.0943    1.5758 H       1  UNL1        0.0442
     46 H           8.6789    1.6651    1.6855 H       1  UNL1        0.0442
     47 H           6.5689    1.7778    2.4160 H       1  UNL1        0.0476
     48 H           6.3264    0.0025    2.2395 H       1  UNL1        0.0476
     49 H           5.5255   -0.3952   -1.3635 H       1  UNL1        0.0636
     50 H           3.4960   -1.6965   -1.9389 H       1  UNL1        0.0626
     51 H          -0.2023   -1.0239    0.8411 H       1  UNL1        0.1551
     52 H          -0.6735   -4.0743    0.8202 H       1  UNL1        0.0636
     53 H          -2.6495   -5.4433    0.1500 H       1  UNL1        0.0618
     54 H          -4.2740   -4.5432   -1.4341 H       1  UNL1        0.0621
     55 H          -3.7876   -1.3977   -3.3023 H       1  UNL1        0.0511
     56 H          -4.4115   -3.0449   -3.3414 H       1  UNL1        0.0511
     57 H          -6.3019   -2.1855   -2.2933 H       1  UNL1        0.1479
     58 H          -5.4376    2.4214    1.1108 H       1  UNL1        0.0854
     59 H          -6.5807    3.7642    2.6425 H       1  UNL1        0.1453
     60 H          -6.7992    4.3098    0.9530 H       1  UNL1        0.1453
     61 H          -9.9543    1.0801    0.8588 H       1  UNL1        0.0625
     62 H          -9.9663   -0.8919   -0.6322 H       1  UNL1        0.0618
     63 H          -7.8790   -1.6211   -1.5653 H       1  UNL1        0.0625
     64 H          -1.9567   -0.9376   -1.6947 H       1  UNL1        0.0639
     65 H           1.4161    0.0089    1.2996 H       1  UNL1        0.0631
     66 H           6.1919    3.2958    0.2796 H       1  UNL1        0.0476
     67 H           5.4281    2.4649   -1.1214 H       1  UNL1        0.0476
     68 H           8.1661    2.9207   -0.8048 H       1  UNL1        0.0442
     69 H           7.3953    1.7698   -1.9061 H       1  UNL1        0.0442
@<TRIPOS>BOND
     1     1     2    1
     2     2     3    1
     3     3     4    1
     4     4     5    1
     5     5     6    1
     6     6     7   ar
     7     7     8   ar
     8     8     9   ar
     9     9    10    1
    10    10    11    2
    11    10    12   am
    12    12    13    1
    13    13    14   ar
    14    14    15   ar
    15    15    16   ar
    16    16    17   ar
    17    17    18    1
    18    18    19    1
    19    19    20    1
    20    20    21   ar
    21    21    22   ar
    22    22    23   ar
    23    23    24   ar
    24    24    25   ar
    25    25    26    1
    26    26    27   am
    27    26    28    2
    28    25    29   ar
    29    29    30   ar
    30    30    31   ar
    31    31    32   ar
    32    17    33   ar
    33     9    34   ar
    34    34    35   ar
    35    35    36    1
    36    36    37    1
    37    36    38    1
    38    36    39    1
    39     5    40    1
    40    40    41    1
    41    41     2    1
    42    35     6   ar
    43    33    13   ar
    44    32    20   ar
    45    32    24   ar
    46     1    42    1
    47     1    43    1
    48     1    44    1
    49     3    45    1
    50     3    46    1
    51     4    47    1
    52     4    48    1
    53     7    49    1
    54     8    50    1
    55    12    51    1
    56    14    52    1
    57    15    53    1
    58    16    54    1
    59    18    55    1
    60    18    56    1
    61    19    57    1
    62    23    58    1
    63    27    59    1
    64    27    60    1
    65    29    61    1
    66    30    62    1
    67    31    63    1
    68    33    64    1
    69    34    65    1
    70    40    66    1
    71    40    67    1
    72    41    68    1
    73    41    69    1
