
     RDKit          3D

 69 73  0  0  0  0  0  0  0  0999 V2000
    9.5385    0.9152   -0.5771 C   0  0  0  0  0  0  0  0  0  0  0  0
    8.1354    0.8795   -0.2105 N   0  0  0  0  0  0  0  0  0  0  0  0
    8.0501    0.8753    1.2291 C   0  0  0  0  0  0  0  0  0  0  0  0
    6.6008    0.9301    1.7032 C   0  0  0  0  0  0  0  0  0  0  0  0
    5.7499    1.2456    0.5920 N   0  0  0  0  0  0  0  0  0  0  0  0
    4.5632    0.5435    0.3234 C   0  0  0  0  0  0  0  0  0  0  0  0
    4.6008   -0.3208   -0.7851 C   0  0  0  0  0  0  0  0  0  0  0  0
    3.4763   -1.0335   -1.0934 C   0  0  0  0  0  0  0  0  0  0  0  0
    2.2843   -0.9485   -0.3616 C   0  0  0  0  0  0  0  0  0  0  0  0
    1.1265   -1.7300   -0.7383 C   0  0  0  0  0  0  0  0  0  0  0  0
    1.1781   -2.4970   -1.7280 O   0  0  0  0  0  0  0  0  0  0  0  0
   -0.0702   -1.6419   -0.0032 N   0  0  0  0  0  0  0  0  0  0  0  0
   -1.2070   -2.4244   -0.3917 C   0  0  0  0  0  0  0  0  0  0  0  0
   -1.4008   -3.6837    0.1169 C   0  0  0  0  0  0  0  0  0  0  0  0
   -2.4976   -4.4527   -0.2503 C   0  0  0  0  0  0  0  0  0  0  0  0
   -3.4088   -3.9456   -1.1399 C   0  0  0  0  0  0  0  0  0  0  0  0
   -3.2282   -2.6732   -1.6639 C   0  0  0  0  0  0  0  0  0  0  0  0
   -4.2197   -2.1972   -2.6317 C   0  0  0  0  0  0  0  0  0  0  0  0
   -5.4262   -1.6940   -2.0542 N   0  0  0  0  0  0  0  0  0  0  0  0
   -5.4491   -0.5785   -1.1945 C   0  0  0  0  0  0  0  0  0  0  0  0
   -4.3134    0.0782   -0.8815 N   0  0  0  0  0  0  0  0  0  0  0  0
   -4.3259    1.1061   -0.0969 N   0  0  0  0  0  0  0  0  0  0  0  0
   -5.4796    1.5858    0.4577 C   0  0  0  0  0  0  0  0  0  0  0  0
   -6.6721    0.9757    0.1879 C   0  0  0  0  0  0  0  0  0  0  0  0
   -7.8482    1.4091    0.7275 C   0  0  0  0  0  0  0  0  0  0  0  0
   -7.9567    2.5821    1.5541 C   0  0  0  0  0  0  0  0  0  0  0  0
   -7.0438    3.6295    1.7183 N   0  0  0  0  0  0  0  0  0  0  0  0
   -9.0463    2.7010    2.2420 O   0  0  0  0  0  0  0  0  0  0  0  0
   -9.0277    0.7226    0.4212 C   0  0  0  0  0  0  0  0  0  0  0  0
   -9.0520   -0.3627   -0.3972 C   0  0  0  0  0  0  0  0  0  0  0  0
   -7.8433   -0.7733   -0.9282 C   0  0  0  0  0  0  0  0  0  0  0  0
   -6.6556   -0.1328   -0.6572 C   0  0  0  0  0  0  0  0  0  0  0  0
   -2.1432   -1.9272   -1.2941 C   0  0  0  0  0  0  0  0  0  0  0  0
    2.3132   -0.0891    0.7055 C   0  0  0  0  0  0  0  0  0  0  0  0
    3.4308    0.6632    1.0675 C   0  0  0  0  0  0  0  0  0  0  0  0
    3.3128    1.5486    2.2407 C   0  0  0  0  0  0  0  0  0  0  0  0
    1.9997    1.4831    2.7454 F   0  0  0  0  0  0  0  0  0  0  0  0
    4.1619    1.1088    3.2605 F   0  0  0  0  0  0  0  0  0  0  0  0
    3.6638    2.8309    1.9277 F   0  0  0  0  0  0  0  0  0  0  0  0
    6.1389    2.3317   -0.2819 C   0  0  0  0  0  0  0  0  0  0  0  0
    7.4928    2.0144   -0.8292 C   0  0  0  0  0  0  0  0  0  0  0  0
    9.8553   -0.1017   -0.8883 H   0  0  0  0  0  0  0  0  0  0  0  0
    9.7238    1.6593   -1.3944 H   0  0  0  0  0  0  0  0  0  0  0  0
   10.1408    1.2568    0.2876 H   0  0  0  0  0  0  0  0  0  0  0  0
    8.4587   -0.0943    1.5758 H   0  0  0  0  0  0  0  0  0  0  0  0
    8.6789    1.6651    1.6855 H   0  0  0  0  0  0  0  0  0  0  0  0
    6.5689    1.7778    2.4160 H   0  0  0  0  0  0  0  0  0  0  0  0
    6.3264    0.0025    2.2395 H   0  0  0  0  0  0  0  0  0  0  0  0
    5.5255   -0.3952   -1.3635 H   0  0  0  0  0  0  0  0  0  0  0  0
    3.4960   -1.6965   -1.9389 H   0  0  0  0  0  0  0  0  0  0  0  0
   -0.2023   -1.0239    0.8411 H   0  0  0  0  0  0  0  0  0  0  0  0
   -0.6735   -4.0743    0.8202 H   0  0  0  0  0  0  0  0  0  0  0  0
   -2.6495   -5.4433    0.1500 H   0  0  0  0  0  0  0  0  0  0  0  0
   -4.2740   -4.5432   -1.4341 H   0  0  0  0  0  0  0  0  0  0  0  0
   -3.7876   -1.3977   -3.3023 H   0  0  0  0  0  0  0  0  0  0  0  0
   -4.4115   -3.0449   -3.3414 H   0  0  0  0  0  0  0  0  0  0  0  0
   -6.3019   -2.1855   -2.2933 H   0  0  0  0  0  0  0  0  0  0  0  0
   -5.4376    2.4214    1.1108 H   0  0  0  0  0  0  0  0  0  0  0  0
   -6.5807    3.7642    2.6425 H   0  0  0  0  0  0  0  0  0  0  0  0
   -6.7992    4.3098    0.9530 H   0  0  0  0  0  0  0  0  0  0  0  0
   -9.9543    1.0801    0.8588 H   0  0  0  0  0  0  0  0  0  0  0  0
   -9.9663   -0.8919   -0.6322 H   0  0  0  0  0  0  0  0  0  0  0  0
   -7.8790   -1.6211   -1.5653 H   0  0  0  0  0  0  0  0  0  0  0  0
   -1.9567   -0.9376   -1.6947 H   0  0  0  0  0  0  0  0  0  0  0  0
    1.4161    0.0089    1.2996 H   0  0  0  0  0  0  0  0  0  0  0  0
    6.1919    3.2958    0.2796 H   0  0  0  0  0  0  0  0  0  0  0  0
    5.4281    2.4649   -1.1214 H   0  0  0  0  0  0  0  0  0  0  0  0
    8.1661    2.9207   -0.8048 H   0  0  0  0  0  0  0  0  0  0  0  0
    7.3953    1.7698   -1.9061 H   0  0  0  0  0  0  0  0  0  0  0  0
  1  2  1  0
  2  3  1  0
  3  4  1  0
  4  5  1  0
  5  6  1  0
  6  7  2  0
  7  8  1  0
  8  9  2  0
  9 10  1  0
 10 11  2  0
 10 12  1  0
 12 13  1  0
 13 14  2  0
 14 15  1  0
 15 16  2  0
 16 17  1  0
 17 18  1  0
 18 19  1  0
 19 20  1  0
 20 21  2  0
 21 22  1  0
 22 23  2  0
 23 24  1  0
 24 25  2  0
 25 26  1  0
 26 27  1  0
 26 28  2  0
 25 29  1  0
 29 30  2  0
 30 31  1  0
 31 32  2  0
 17 33  2  0
  9 34  1  0
 34 35  2  0
 35 36  1  0
 36 37  1  0
 36 38  1  0
 36 39  1  0
  5 40  1  0
 40 41  1  0
 41  2  1  0
 35  6  1  0
 33 13  1  0
 32 20  1  0
 32 24  1  0
  1 42  1  0
  1 43  1  0
  1 44  1  0
  3 45  1  0
  3 46  1  0
  4 47  1  0
  4 48  1  0
  7 49  1  0
  8 50  1  0
 12 51  1  0
 14 52  1  0
 15 53  1  0
 16 54  1  0
 18 55  1  0
 18 56  1  0
 19 57  1  0
 23 58  1  0
 27 59  1  0
 27 60  1  0
 29 61  1  0
 30 62  1  0
 31 63  1  0
 33 64  1  0
 34 65  1  0
 40 66  1  0
 40 67  1  0
 41 68  1  0
 41 69  1  0
M  END
$$$$
