@<TRIPOS>MOLECULE
*****
 57 60 0 0 0
SMALL
GASTEIGER

@<TRIPOS>ATOM
      1 C          -4.8506    1.1796    3.2207 C.3     1  UNL1        0.0790
      2 O          -5.7653    1.0572    2.1797 O.3     1  UNL1       -0.4913
      3 C          -5.4479    0.6777    0.9267 C.ar    1  UNL1        0.1669
      4 C          -4.1315    0.3618    0.5658 C.ar    1  UNL1        0.0052
      5 C          -3.8313   -0.0217   -0.7146 C.ar    1  UNL1        0.0407
      6 N          -2.5299   -0.3915   -1.0902 N.pl3   1  UNL1       -0.2833
      7 C          -1.4897   -0.7931   -0.2277 C.ar    1  UNL1        0.2213
      8 N          -1.6733   -0.8770    1.0888 N.ar    1  UNL1       -0.2197
      9 C          -0.7262   -1.2612    1.9336 C.ar    1  UNL1        0.0698
     10 C           0.5167   -1.5900    1.3892 C.ar    1  UNL1        0.1813
     11 F           1.5050   -1.9816    2.2482 F       1  UNL1       -0.2003
     12 C           0.6962   -1.5021    0.0441 C.ar    1  UNL1        0.1647
     13 N           1.9394   -1.8555   -0.5403 N.pl3   1  UNL1       -0.2819
     14 C           3.0818   -1.0086   -0.5952 C.ar    1  UNL1        0.1264
     15 C           3.2497   -0.0484   -1.5716 C.ar    1  UNL1       -0.0179
     16 C           4.3808    0.7429   -1.5920 C.ar    1  UNL1       -0.0132
     17 C           5.3908    0.6244   -0.6568 C.ar    1  UNL1        0.1620
     18 C           5.1806   -0.3572    0.3096 C.ar    1  UNL1        0.1692
     19 N           4.0817   -1.1182    0.3218 N.ar    1  UNL1       -0.2133
     20 N           6.2348   -0.4969    1.2819 N.am    1  UNL1       -0.2641
     21 C           7.3934    0.3129    1.2405 C.2     1  UNL1        0.2617
     22 O           8.1318    0.4980    2.2339 O.2     1  UNL1       -0.2711
     23 C           7.7385    0.9653   -0.0363 C.3     1  UNL1        0.1805
     24 C           8.3089   -0.0946   -0.9671 C.3     1  UNL1       -0.0164
     25 C           8.6872    2.1313    0.1194 C.3     1  UNL1       -0.0164
     26 O           6.5220    1.3900   -0.6452 O.3     1  UNL1       -0.4736
     27 N          -0.2829   -1.1095   -0.7755 N.ar    1  UNL1       -0.1962
     28 C          -4.8380   -0.1020   -1.6884 C.ar    1  UNL1        0.0052
     29 C          -6.1211    0.2075   -1.3333 C.ar    1  UNL1        0.1669
     30 O          -7.1528    0.1473   -2.2484 O.3     1  UNL1       -0.4913
     31 C          -6.9748   -0.2283   -3.5950 C.3     1  UNL1        0.0790
     32 C          -6.4199    0.5913   -0.0402 C.ar    1  UNL1        0.2036
     33 O          -7.7355    0.9093    0.3417 O.3     1  UNL1       -0.4885
     34 C          -8.5076   -0.1802    0.8384 C.3     1  UNL1        0.0791
     35 H          -5.2876    1.9640    3.9121 H       1  UNL1        0.0660
     36 H          -4.8178    0.1952    3.7703 H       1  UNL1        0.0660
     37 H          -3.8506    1.5293    2.9350 H       1  UNL1        0.0660
     38 H          -3.3746    0.4473    1.3192 H       1  UNL1        0.0674
     39 H          -2.3065   -0.3589   -2.1449 H       1  UNL1        0.1550
     40 H          -0.8335   -1.3383    2.9937 H       1  UNL1        0.0861
     41 H           2.0448   -2.8052   -0.9697 H       1  UNL1        0.1551
     42 H           2.4763    0.0662   -2.3169 H       1  UNL1        0.0653
     43 H           4.5334    1.5046   -2.3501 H       1  UNL1        0.0656
     44 H           6.1208   -1.2144    2.0215 H       1  UNL1        0.1565
     45 H           7.9790   -1.1126   -0.6626 H       1  UNL1        0.0273
     46 H           7.9717    0.0513   -2.0124 H       1  UNL1        0.0273
     47 H           9.4264   -0.1135   -0.8759 H       1  UNL1        0.0273
     48 H           9.4593    2.0172   -0.6899 H       1  UNL1        0.0273
     49 H           8.1754    3.0974    0.0679 H       1  UNL1        0.0273
     50 H           9.2436    2.0058    1.0728 H       1  UNL1        0.0273
     51 H          -4.5641   -0.4043   -2.6844 H       1  UNL1        0.0674
     52 H          -6.6107    0.6673   -4.1613 H       1  UNL1        0.0660
     53 H          -6.2151   -1.0160   -3.6925 H       1  UNL1        0.0660
     54 H          -7.9369   -0.5613   -4.0586 H       1  UNL1        0.0660
     55 H          -9.5122   -0.0790    0.4005 H       1  UNL1        0.0660
     56 H          -8.6145   -0.1630    1.9352 H       1  UNL1        0.0660
     57 H          -8.0677   -1.1579    0.5689 H       1  UNL1        0.0660
@<TRIPOS>BOND
     1     1     2    1
     2     2     3    1
     3     3     4   ar
     4     4     5   ar
     5     5     6    1
     6     6     7    1
     7     7     8   ar
     8     8     9   ar
     9     9    10   ar
    10    10    11    1
    11    10    12   ar
    12    12    13    1
    13    13    14    1
    14    14    15   ar
    15    15    16   ar
    16    16    17   ar
    17    17    18   ar
    18    18    19   ar
    19    18    20    1
    20    20    21   am
    21    21    22    2
    22    21    23    1
    23    23    24    1
    24    23    25    1
    25    23    26    1
    26    12    27   ar
    27     5    28   ar
    28    28    29   ar
    29    29    30    1
    30    30    31    1
    31    29    32   ar
    32    32    33    1
    33    33    34    1
    34    32     3   ar
    35    27     7   ar
    36    19    14   ar
    37    26    17    1
    38     1    35    1
    39     1    36    1
    40     1    37    1
    41     4    38    1
    42     6    39    1
    43     9    40    1
    44    13    41    1
    45    15    42    1
    46    16    43    1
    47    20    44    1
    48    24    45    1
    49    24    46    1
    50    24    47    1
    51    25    48    1
    52    25    49    1
    53    25    50    1
    54    28    51    1
    55    31    52    1
    56    31    53    1
    57    31    54    1
    58    34    55    1
    59    34    56    1
    60    34    57    1
