@<TRIPOS>MOLECULE
*****
 61 65 0 0 0
SMALL
GASTEIGER

@<TRIPOS>ATOM
      1 N           7.0847    4.5883   -3.9536 N.1     1  UNL1       -0.1908
      2 C           7.0993    3.5935   -3.2776 C.1     1  UNL1        0.1011
      3 C           7.1156    2.3995   -2.4842 C.ar    1  UNL1        0.0783
      4 C           8.0489    2.1810   -1.5307 C.ar    1  UNL1       -0.0424
      5 C           8.1226    0.9539   -0.8719 C.ar    1  UNL1       -0.0604
      6 C           7.2369    0.0093   -1.2106 C.ar    1  UNL1       -0.0598
      7 C           6.2613    0.1945   -2.1827 C.ar    1  UNL1       -0.0338
      8 C           6.1742    1.3860   -2.8361 C.ar    1  UNL1        0.1258
      9 S           4.9087    1.8599   -3.9172 S.O2    1  UNL1        0.0736
     10 O           4.0614    2.9039   -3.2005 O.2     1  UNL1       -0.1499
     11 O           5.5227    2.5595   -5.1020 O.2     1  UNL1       -0.1499
     12 N           3.9443    0.5358   -4.3932 N.pl3   1  UNL1       -0.2162
     13 C           3.2064   -0.2613   -3.5031 C.ar    1  UNL1        0.0487
     14 C           3.0436   -1.5896   -3.8134 C.ar    1  UNL1       -0.0393
     15 C           2.3021   -2.4113   -2.9978 C.ar    1  UNL1       -0.0593
     16 C           1.7310   -1.9018   -1.8781 C.ar    1  UNL1       -0.0519
     17 C           1.8621   -0.5491   -1.5024 C.ar    1  UNL1        0.0089
     18 C           1.2439    0.0148   -0.3122 C.ar    1  UNL1        0.1085
     19 N           1.2012    0.9841    0.3779 N.ar    1  UNL1       -0.2470
     20 C           0.5129    1.1922    1.4784 C.ar    1  UNL1        0.0389
     21 C          -0.2675    0.1678    1.9061 C.ar    1  UNL1        0.0144
     22 C          -1.1993   -0.0720    3.0348 C.3     1  UNL1        0.0087
     23 C          -2.1306    0.9298    3.5191 C.3     1  UNL1       -0.0282
     24 C          -2.6939   -0.0346    2.5844 C.3     1  UNL1        0.0159
     25 N          -3.3553   -1.2445    2.8775 N.3     1  UNL1       -0.3099
     26 C          -4.7314   -1.3720    2.5524 C.3     1  UNL1        0.0080
     27 C          -5.5611   -0.5203    3.4882 C.3     1  UNL1       -0.0361
     28 C          -7.0242   -0.5626    3.1087 C.3     1  UNL1       -0.0363
     29 C          -7.2721   -0.2348    1.6674 C.3     1  UNL1        0.0049
     30 N          -6.8041    1.1062    1.3881 N.3     1  UNL1       -0.3272
     31 C          -6.4770   -1.1753    0.7961 C.3     1  UNL1       -0.0363
     32 C          -5.0052   -0.9918    1.1061 C.3     1  UNL1       -0.0361
     33 S           0.0677   -1.0771    0.6348 S.2     1  UNL1       -0.0719
     34 C           2.6042    0.2232   -2.3442 C.ar    1  UNL1       -0.0296
     35 H           8.7681    2.9574   -1.2657 H       1  UNL1        0.0631
     36 H           8.8889    0.8725   -0.0962 H       1  UNL1        0.0618
     37 H           7.2884   -0.9621   -0.7160 H       1  UNL1        0.0618
     38 H           5.5510   -0.6040   -2.4310 H       1  UNL1        0.0637
     39 H           3.9071    0.3400   -5.4295 H       1  UNL1        0.1737
     40 H           3.4930   -2.0130   -4.7242 H       1  UNL1        0.0636
     41 H           2.1784   -3.4756   -3.2579 H       1  UNL1        0.0618
     42 H           1.1363   -2.5117   -1.1917 H       1  UNL1        0.0624
     43 H           0.5485    2.1359    2.0537 H       1  UNL1        0.0838
     44 H          -0.9337   -0.9468    3.6907 H       1  UNL1        0.0370
     45 H          -2.3748    0.9393    4.6015 H       1  UNL1        0.0287
     46 H          -1.9656    1.9850    3.1672 H       1  UNL1        0.0287
     47 H          -2.8658    0.3410    1.5419 H       1  UNL1        0.0467
     48 H          -2.8088   -2.0908    3.0233 H       1  UNL1        0.1225
     49 H          -5.0541   -2.4279    2.6452 H       1  UNL1        0.0460
     50 H          -5.4912   -0.9934    4.5054 H       1  UNL1        0.0281
     51 H          -5.2451    0.5117    3.5837 H       1  UNL1        0.0281
     52 H          -7.4288   -1.5651    3.3783 H       1  UNL1        0.0281
     53 H          -7.5660    0.1489    3.7663 H       1  UNL1        0.0281
     54 H          -8.3645   -0.3285    1.4785 H       1  UNL1        0.0458
     55 H          -6.4488    1.2140    0.4001 H       1  UNL1        0.1185
     56 H          -6.1775    1.5131    2.0739 H       1  UNL1        0.1185
     57 H          -6.6675   -0.9702   -0.2913 H       1  UNL1        0.0281
     58 H          -6.7161   -2.2212    1.0262 H       1  UNL1        0.0281
     59 H          -4.7686    0.0584    0.8730 H       1  UNL1        0.0281
     60 H          -4.4441   -1.7168    0.4721 H       1  UNL1        0.0281
     61 H           2.7274    1.2604   -2.0859 H       1  UNL1        0.0643
@<TRIPOS>BOND
     1     1     2    3
     2     2     3    1
     3     3     4   ar
     4     4     5   ar
     5     5     6   ar
     6     6     7   ar
     7     7     8   ar
     8     8     9    1
     9     9    10    2
    10     9    11    2
    11     9    12    1
    12    12    13    1
    13    13    14   ar
    14    14    15   ar
    15    15    16   ar
    16    16    17   ar
    17    17    18    1
    18    18    19   ar
    19    19    20   ar
    20    20    21   ar
    21    21    22    1
    22    22    23    1
    23    23    24    1
    24    24    25    1
    25    25    26    1
    26    26    27    1
    27    27    28    1
    28    28    29    1
    29    29    30    1
    30    29    31    1
    31    31    32    1
    32    21    33   ar
    33    17    34   ar
    34     8     3   ar
    35    34    13   ar
    36    33    18   ar
    37    24    22    1
    38    32    26    1
    39     4    35    1
    40     5    36    1
    41     6    37    1
    42     7    38    1
    43    12    39    1
    44    14    40    1
    45    15    41    1
    46    16    42    1
    47    20    43    1
    48    22    44    1
    49    23    45    1
    50    23    46    1
    51    24    47    1
    52    25    48    1
    53    26    49    1
    54    27    50    1
    55    27    51    1
    56    28    52    1
    57    28    53    1
    58    29    54    1
    59    30    55    1
    60    30    56    1
    61    31    57    1
    62    31    58    1
    63    32    59    1
    64    32    60    1
    65    34    61    1
