@<TRIPOS>MOLECULE
*****
 33 34 0 0 0
SMALL
GASTEIGER

@<TRIPOS>ATOM
      1 C          -3.8981    1.3471   -0.6499 C.3     1  UNL1       -0.0482
      2 C          -3.4086    0.3833    0.4188 C.3     1  UNL1        0.0784
      3 C          -4.3324   -0.7732    0.5613 C.2     1  UNL1        0.3119
      4 O          -3.9475   -1.9561    0.3611 O.2     1  UNL1       -0.2503
      5 O          -5.6348   -0.5222    0.9209 O.3     1  UNL1       -0.4802
      6 C          -2.0300   -0.0712    0.0283 C.ar    1  UNL1       -0.0333
      7 C          -1.8432   -0.6861   -1.1997 C.ar    1  UNL1       -0.0578
      8 C          -0.5964   -1.1209   -1.6272 C.ar    1  UNL1       -0.0608
      9 C           0.5006   -0.9381   -0.8054 C.ar    1  UNL1       -0.0509
     10 C           0.3184   -0.3290    0.4099 C.ar    1  UNL1        0.0225
     11 C           1.4821   -0.0848    1.2556 C.2     1  UNL1        0.1931
     12 O           1.2588   -0.0394    2.4986 O.2     1  UNL1       -0.2867
     13 C           2.8170    0.0993    0.7054 C.ar    1  UNL1        0.0223
     14 C           3.9186   -0.2581    1.4427 C.ar    1  UNL1       -0.0509
     15 C           5.2041   -0.0751    0.9472 C.ar    1  UNL1       -0.0611
     16 C           5.3883    0.4666   -0.2880 C.ar    1  UNL1       -0.0617
     17 C           4.3110    0.8372   -1.0598 C.ar    1  UNL1       -0.0611
     18 C           3.0335    0.6486   -0.5493 C.ar    1  UNL1       -0.0509
     19 C          -0.9249    0.0984    0.8254 C.ar    1  UNL1       -0.0470
     20 H          -3.0306    1.9801   -0.9544 H       1  UNL1        0.0241
     21 H          -4.1158    0.7144   -1.5610 H       1  UNL1        0.0241
     22 H          -4.7550    1.9234   -0.3056 H       1  UNL1        0.0241
     23 H          -3.3468    0.9294    1.3604 H       1  UNL1        0.0459
     24 H          -6.3867   -1.2142    0.8346 H       1  UNL1        0.2951
     25 H          -2.7112   -0.8271   -1.8483 H       1  UNL1        0.0621
     26 H          -0.4552   -1.5950   -2.5848 H       1  UNL1        0.0618
     27 H           1.4880   -1.2720   -1.0789 H       1  UNL1        0.0625
     28 H           3.8105   -0.6973    2.4365 H       1  UNL1        0.0625
     29 H           6.0175   -0.3741    1.5741 H       1  UNL1        0.0618
     30 H           6.3894    0.6062   -0.6713 H       1  UNL1        0.0618
     31 H           4.4184    1.2692   -2.0440 H       1  UNL1        0.0618
     32 H           2.1435    0.9469   -1.1202 H       1  UNL1        0.0625
     33 H          -1.0825    0.5841    1.8025 H       1  UNL1        0.0628
@<TRIPOS>BOND
     1     1     2    1
     2     2     3    1
     3     3     4    2
     4     3     5    1
     5     2     6    1
     6     6     7   ar
     7     7     8   ar
     8     8     9   ar
     9     9    10   ar
    10    10    11    1
    11    11    12    2
    12    11    13    1
    13    13    14   ar
    14    14    15   ar
    15    15    16   ar
    16    16    17   ar
    17    17    18   ar
    18    10    19   ar
    19    19     6   ar
    20    18    13   ar
    21     1    20    1
    22     1    21    1
    23     1    22    1
    24     2    23    1
    25     5    24    1
    26     7    25    1
    27     8    26    1
    28     9    27    1
    29    14    28    1
    30    15    29    1
    31    16    30    1
    32    17    31    1
    33    18    32    1
    34    19    33    1
