
     RDKit          3D

 33 34  0  0  0  0  0  0  0  0999 V2000
   -3.8981    1.3471   -0.6499 C   0  0  0  0  0  0  0  0  0  0  0  0
   -3.4086    0.3833    0.4188 C   0  0  0  0  0  0  0  0  0  0  0  0
   -4.3324   -0.7732    0.5613 C   0  0  0  0  0  0  0  0  0  0  0  0
   -3.9475   -1.9561    0.3611 O   0  0  0  0  0  0  0  0  0  0  0  0
   -5.6348   -0.5222    0.9209 O   0  0  0  0  0  0  0  0  0  0  0  0
   -2.0300   -0.0712    0.0283 C   0  0  0  0  0  0  0  0  0  0  0  0
   -1.8432   -0.6861   -1.1997 C   0  0  0  0  0  0  0  0  0  0  0  0
   -0.5964   -1.1209   -1.6272 C   0  0  0  0  0  0  0  0  0  0  0  0
    0.5006   -0.9381   -0.8054 C   0  0  0  0  0  0  0  0  0  0  0  0
    0.3184   -0.3290    0.4099 C   0  0  0  0  0  0  0  0  0  0  0  0
    1.4821   -0.0848    1.2556 C   0  0  0  0  0  0  0  0  0  0  0  0
    1.2588   -0.0394    2.4986 O   0  0  0  0  0  0  0  0  0  0  0  0
    2.8170    0.0993    0.7054 C   0  0  0  0  0  0  0  0  0  0  0  0
    3.9186   -0.2581    1.4427 C   0  0  0  0  0  0  0  0  0  0  0  0
    5.2041   -0.0751    0.9472 C   0  0  0  0  0  0  0  0  0  0  0  0
    5.3883    0.4666   -0.2880 C   0  0  0  0  0  0  0  0  0  0  0  0
    4.3110    0.8372   -1.0598 C   0  0  0  0  0  0  0  0  0  0  0  0
    3.0335    0.6486   -0.5493 C   0  0  0  0  0  0  0  0  0  0  0  0
   -0.9249    0.0984    0.8254 C   0  0  0  0  0  0  0  0  0  0  0  0
   -3.0306    1.9801   -0.9544 H   0  0  0  0  0  0  0  0  0  0  0  0
   -4.1158    0.7144   -1.5610 H   0  0  0  0  0  0  0  0  0  0  0  0
   -4.7550    1.9234   -0.3056 H   0  0  0  0  0  0  0  0  0  0  0  0
   -3.3468    0.9294    1.3604 H   0  0  0  0  0  0  0  0  0  0  0  0
   -6.3867   -1.2142    0.8346 H   0  0  0  0  0  0  0  0  0  0  0  0
   -2.7112   -0.8271   -1.8483 H   0  0  0  0  0  0  0  0  0  0  0  0
   -0.4552   -1.5950   -2.5848 H   0  0  0  0  0  0  0  0  0  0  0  0
    1.4880   -1.2720   -1.0789 H   0  0  0  0  0  0  0  0  0  0  0  0
    3.8105   -0.6973    2.4365 H   0  0  0  0  0  0  0  0  0  0  0  0
    6.0175   -0.3741    1.5741 H   0  0  0  0  0  0  0  0  0  0  0  0
    6.3894    0.6062   -0.6713 H   0  0  0  0  0  0  0  0  0  0  0  0
    4.4184    1.2692   -2.0440 H   0  0  0  0  0  0  0  0  0  0  0  0
    2.1435    0.9469   -1.1202 H   0  0  0  0  0  0  0  0  0  0  0  0
   -1.0825    0.5841    1.8025 H   0  0  0  0  0  0  0  0  0  0  0  0
  1  2  1  0
  2  3  1  0
  3  4  2  0
  3  5  1  0
  2  6  1  0
  6  7  2  0
  7  8  1  0
  8  9  2  0
  9 10  1  0
 10 11  1  0
 11 12  2  0
 11 13  1  0
 13 14  2  0
 14 15  1  0
 15 16  2  0
 16 17  1  0
 17 18  2  0
 10 19  2  0
 19  6  1  0
 18 13  1  0
  1 20  1  0
  1 21  1  0
  1 22  1  0
  2 23  1  0
  5 24  1  0
  7 25  1  0
  8 26  1  0
  9 27  1  0
 14 28  1  0
 15 29  1  0
 16 30  1  0
 17 31  1  0
 18 32  1  0
 19 33  1  0
M  END
$$$$
