
     RDKit          3D

 54 56  0  0  0  0  0  0  0  0999 V2000
   -5.8308    5.2496    0.7300 C   0  0  0  0  0  0  0  0  0  0  0  0
   -5.6093    3.8742    0.4830 O   0  0  0  0  0  0  0  0  0  0  0  0
   -4.3265    3.3527    0.5761 C   0  0  0  0  0  0  0  0  0  0  0  0
   -3.2513    4.1485    0.9064 C   0  0  0  0  0  0  0  0  0  0  0  0
   -2.0166    3.5490    0.9761 C   0  0  0  0  0  0  0  0  0  0  0  0
   -1.8235    2.2053    0.7312 C   0  0  0  0  0  0  0  0  0  0  0  0
   -0.5081    1.6178    0.8158 N   0  0  0  0  0  0  0  0  0  0  0  0
    0.3346    1.5667   -0.3270 C   0  0  0  0  0  0  0  0  0  0  0  0
   -0.1174    2.0507   -1.3948 O   0  0  0  0  0  0  0  0  0  0  0  0
    1.6661    0.9871   -0.2968 C   0  0  0  0  0  0  0  0  0  0  0  0
    2.4044    0.9882   -1.4639 C   0  0  0  0  0  0  0  0  0  0  0  0
    3.6762    0.4590   -1.5243 C   0  0  0  0  0  0  0  0  0  0  0  0
    4.2619   -0.0983   -0.4003 C   0  0  0  0  0  0  0  0  0  0  0  0
    5.6074   -0.6538   -0.4793 C   0  0  0  0  0  0  0  0  0  0  0  0
    6.5112   -0.2145   -1.2895 N   0  0  0  0  0  0  0  0  0  0  0  0
    5.9683   -1.7366    0.3693 N   0  0  0  0  0  0  0  0  0  0  0  0
    5.5175   -3.0656    0.0279 C   0  0  0  0  0  0  0  0  0  0  0  0
    6.7711   -1.4506    1.5348 C   0  0  0  0  0  0  0  0  0  0  0  0
    3.5272   -0.0973    0.7533 C   0  0  0  0  0  0  0  0  0  0  0  0
    2.2365    0.4381    0.8204 C   0  0  0  0  0  0  0  0  0  0  0  0
   -2.9055    1.4017    0.3982 C   0  0  0  0  0  0  0  0  0  0  0  0
   -2.6799   -0.0319    0.1402 C   0  0  0  0  0  0  0  0  0  0  0  0
   -1.5213   -0.5245    0.2199 O   0  0  0  0  0  0  0  0  0  0  0  0
   -3.7194   -0.9256   -0.2044 N   0  0  0  0  0  0  0  0  0  0  0  0
   -3.4488   -2.3172   -0.4467 C   0  0  0  0  0  0  0  0  0  0  0  0
   -4.4642   -3.1867   -0.7823 C   0  0  0  0  0  0  0  0  0  0  0  0
   -4.2682   -4.5279   -1.0258 C   0  0  0  0  0  0  0  0  0  0  0  0
   -2.9766   -5.0062   -0.9225 C   0  0  0  0  0  0  0  0  0  0  0  0
   -2.6788   -6.7101   -1.2241 Cl  0  0  0  0  0  0  0  0  0  0  0  0
   -1.9609   -4.1413   -0.5878 C   0  0  0  0  0  0  0  0  0  0  0  0
   -2.2128   -2.8292   -0.3590 N   0  0  0  0  0  0  0  0  0  0  0  0
   -4.1478    1.9871    0.3245 C   0  0  0  0  0  0  0  0  0  0  0  0
   -5.3772    5.5397    1.7184 H   0  0  0  0  0  0  0  0  0  0  0  0
   -6.8917    5.4993    0.6562 H   0  0  0  0  0  0  0  0  0  0  0  0
   -5.2141    5.7982   -0.0364 H   0  0  0  0  0  0  0  0  0  0  0  0
   -3.3781    5.2109    1.1041 H   0  0  0  0  0  0  0  0  0  0  0  0
   -1.1785    4.1670    1.2331 H   0  0  0  0  0  0  0  0  0  0  0  0
   -0.1492    1.2228    1.7025 H   0  0  0  0  0  0  0  0  0  0  0  0
    2.0074    1.4075   -2.3784 H   0  0  0  0  0  0  0  0  0  0  0  0
    4.2565    0.4621   -2.4498 H   0  0  0  0  0  0  0  0  0  0  0  0
    6.2570    0.5801   -1.9173 H   0  0  0  0  0  0  0  0  0  0  0  0
    4.4518   -3.0030   -0.3404 H   0  0  0  0  0  0  0  0  0  0  0  0
    6.0855   -3.4602   -0.8648 H   0  0  0  0  0  0  0  0  0  0  0  0
    5.6256   -3.7589    0.8633 H   0  0  0  0  0  0  0  0  0  0  0  0
    6.1159   -1.3075    2.4205 H   0  0  0  0  0  0  0  0  0  0  0  0
    7.4886   -2.2862    1.7109 H   0  0  0  0  0  0  0  0  0  0  0  0
    7.3777   -0.5410    1.4264 H   0  0  0  0  0  0  0  0  0  0  0  0
    3.9841   -0.5337    1.6363 H   0  0  0  0  0  0  0  0  0  0  0  0
    1.7052    0.4143    1.7446 H   0  0  0  0  0  0  0  0  0  0  0  0
   -4.6949   -0.5956   -0.2888 H   0  0  0  0  0  0  0  0  0  0  0  0
   -5.4660   -2.7893   -0.8570 H   0  0  0  0  0  0  0  0  0  0  0  0
   -5.0786   -5.2081   -1.2908 H   0  0  0  0  0  0  0  0  0  0  0  0
   -0.9488   -4.5512   -0.5141 H   0  0  0  0  0  0  0  0  0  0  0  0
   -4.9930    1.3745    0.0675 H   0  0  0  0  0  0  0  0  0  0  0  0
  1  2  1  0
  2  3  1  0
  3  4  2  0
  4  5  1  0
  5  6  2  0
  6  7  1  0
  7  8  1  0
  8  9  2  0
  8 10  1  0
 10 11  2  0
 11 12  1  0
 12 13  2  0
 13 14  1  0
 14 15  2  3
 14 16  1  0
 16 17  1  0
 16 18  1  0
 13 19  1  0
 19 20  2  0
  6 21  1  0
 21 22  1  0
 22 23  2  0
 22 24  1  0
 24 25  1  0
 25 26  2  0
 26 27  1  0
 27 28  2  0
 28 29  1  0
 28 30  1  0
 30 31  2  0
 21 32  2  0
 32  3  1  0
 20 10  1  0
 31 25  1  0
  1 33  1  0
  1 34  1  0
  1 35  1  0
  4 36  1  0
  5 37  1  0
  7 38  1  0
 11 39  1  0
 12 40  1  0
 15 41  1  0
 17 42  1  0
 17 43  1  0
 17 44  1  0
 18 45  1  0
 18 46  1  0
 18 47  1  0
 19 48  1  0
 20 49  1  0
 24 50  1  0
 26 51  1  0
 27 52  1  0
 30 53  1  0
 32 54  1  0
M  END
$$$$
