@<TRIPOS>MOLECULE
*****
 54 56 0 0 0
SMALL
GASTEIGER

@<TRIPOS>ATOM
      1 C          -5.8308    5.2496    0.7300 C.3     1  UNL1        0.0788
      2 O          -5.6093    3.8742    0.4830 O.3     1  UNL1       -0.4951
      3 C          -4.3265    3.3527    0.5761 C.ar    1  UNL1        0.1209
      4 C          -3.2513    4.1485    0.9064 C.ar    1  UNL1       -0.0182
      5 C          -2.0166    3.5490    0.9761 C.ar    1  UNL1       -0.0363
      6 C          -1.8235    2.2053    0.7312 C.ar    1  UNL1        0.0461
      7 N          -0.5081    1.6178    0.8158 N.am    1  UNL1       -0.2808
      8 C           0.3346    1.5667   -0.3270 C.2     1  UNL1        0.2483
      9 O          -0.1174    2.0507   -1.3948 O.2     1  UNL1       -0.2699
     10 C           1.6661    0.9871   -0.2968 C.ar    1  UNL1        0.0371
     11 C           2.4044    0.9882   -1.4639 C.ar    1  UNL1       -0.0488
     12 C           3.6762    0.4590   -1.5243 C.ar    1  UNL1       -0.0462
     13 C           4.2619   -0.0983   -0.4003 C.ar    1  UNL1        0.0650
     14 C           5.6074   -0.6538   -0.4793 C.2     1  UNL1        0.3118
     15 N           6.5112   -0.2145   -1.2895 N.2     1  UNL1       -0.0992
     16 N           5.9683   -1.7366    0.3693 N.pl3   1  UNL1       -0.2260
     17 C           5.5175   -3.0656    0.0279 C.3     1  UNL1        0.0693
     18 C           6.7711   -1.4506    1.5348 C.3     1  UNL1        0.0693
     19 C           3.5272   -0.0973    0.7533 C.ar    1  UNL1       -0.0462
     20 C           2.2365    0.4381    0.8204 C.ar    1  UNL1       -0.0488
     21 C          -2.9055    1.4017    0.3982 C.ar    1  UNL1        0.0617
     22 C          -2.6799   -0.0319    0.1402 C.2     1  UNL1        0.2512
     23 O          -1.5213   -0.5245    0.2199 O.2     1  UNL1       -0.2697
     24 N          -3.7194   -0.9256   -0.2044 N.am    1  UNL1       -0.2663
     25 C          -3.4488   -2.3172   -0.4467 C.ar    1  UNL1        0.1252
     26 C          -4.4642   -3.1867   -0.7823 C.ar    1  UNL1       -0.0201
     27 C          -4.2682   -4.5279   -1.0258 C.ar    1  UNL1       -0.0387
     28 C          -2.9766   -5.0062   -0.9225 C.ar    1  UNL1        0.0592
     29 CL         -2.6788   -6.7101   -1.2241 Cl      1  UNL1       -0.0820
     30 C          -1.9609   -4.1413   -0.5878 C.ar    1  UNL1        0.0480
     31 N          -2.2128   -2.8292   -0.3590 N.ar    1  UNL1       -0.2387
     32 C          -4.1478    1.9871    0.3245 C.ar    1  UNL1       -0.0060
     33 H          -5.3772    5.5397    1.7184 H       1  UNL1        0.0660
     34 H          -6.8917    5.4993    0.6562 H       1  UNL1        0.0660
     35 H          -5.2141    5.7982   -0.0364 H       1  UNL1        0.0660
     36 H          -3.3781    5.2109    1.1041 H       1  UNL1        0.0655
     37 H          -1.1785    4.1670    1.2331 H       1  UNL1        0.0637
     38 H          -0.1492    1.2228    1.7025 H       1  UNL1        0.1552
     39 H           2.0074    1.4075   -2.3784 H       1  UNL1        0.0625
     40 H           4.2565    0.4621   -2.4498 H       1  UNL1        0.0626
     41 H           6.2570    0.5801   -1.9173 H       1  UNL1        0.3633
     42 H           4.4518   -3.0030   -0.3404 H       1  UNL1        0.0689
     43 H           6.0855   -3.4602   -0.8648 H       1  UNL1        0.0689
     44 H           5.6256   -3.7589    0.8633 H       1  UNL1        0.0689
     45 H           6.1159   -1.3075    2.4205 H       1  UNL1        0.0689
     46 H           7.4886   -2.2862    1.7109 H       1  UNL1        0.0689
     47 H           7.3777   -0.5410    1.4264 H       1  UNL1        0.0689
     48 H           3.9841   -0.5337    1.6363 H       1  UNL1        0.0626
     49 H           1.7052    0.4143    1.7446 H       1  UNL1        0.0625
     50 H          -4.6949   -0.5956   -0.2888 H       1  UNL1        0.1566
     51 H          -5.4660   -2.7893   -0.8570 H       1  UNL1        0.0652
     52 H          -5.0786   -5.2081   -1.2908 H       1  UNL1        0.0634
     53 H          -0.9488   -4.5512   -0.5141 H       1  UNL1        0.0845
     54 H          -4.9930    1.3745    0.0675 H       1  UNL1        0.0662
@<TRIPOS>BOND
     1     1     2    1
     2     2     3    1
     3     3     4   ar
     4     4     5   ar
     5     5     6   ar
     6     6     7    1
     7     7     8   am
     8     8     9    2
     9     8    10    1
    10    10    11   ar
    11    11    12   ar
    12    12    13   ar
    13    13    14    1
    14    14    15    2
    15    14    16    1
    16    16    17    1
    17    16    18    1
    18    13    19   ar
    19    19    20   ar
    20     6    21   ar
    21    21    22    1
    22    22    23    2
    23    22    24   am
    24    24    25    1
    25    25    26   ar
    26    26    27   ar
    27    27    28   ar
    28    28    29    1
    29    28    30   ar
    30    30    31   ar
    31    21    32   ar
    32    32     3   ar
    33    20    10   ar
    34    31    25   ar
    35     1    33    1
    36     1    34    1
    37     1    35    1
    38     4    36    1
    39     5    37    1
    40     7    38    1
    41    11    39    1
    42    12    40    1
    43    15    41    1
    44    17    42    1
    45    17    43    1
    46    17    44    1
    47    18    45    1
    48    18    46    1
    49    18    47    1
    50    19    48    1
    51    20    49    1
    52    24    50    1
    53    26    51    1
    54    27    52    1
    55    30    53    1
    56    32    54    1
