@<TRIPOS>MOLECULE
*****
 47 49 0 0 0
SMALL
GASTEIGER

@<TRIPOS>ATOM
      1 C           2.6993   -2.2823   -0.0052 C.3     1  UNL1       -0.0375
      2 C           3.8280   -1.8445    0.7872 C.ar    1  UNL1       -0.0187
      3 C           5.1465   -1.8545    0.4285 C.ar    1  UNL1       -0.0378
      4 C           6.1937   -1.6051    1.2482 C.ar    1  UNL1        0.0701
      5 C           7.4422   -1.3162    0.6574 C.1     1  UNL1        0.1007
      6 N           8.6538   -1.0366    0.1105 N.1     1  UNL1       -0.1908
      7 C           5.8983   -1.3329    2.5890 C.ar    1  UNL1        0.0458
      8 N           4.5966   -1.3137    2.9525 N.ar    1  UNL1       -0.2488
      9 C           3.5865   -1.5267    2.2037 C.ar    1  UNL1        0.1286
     10 C           2.1759   -1.1849    2.4971 C.2     1  UNL1        0.2669
     11 O           1.6063   -1.5358    3.4980 O.2     1  UNL1       -0.2682
     12 N           1.4993   -0.3734    1.5061 N.am    1  UNL1       -0.2789
     13 C           0.2165    0.0635    1.5728 C.ar    1  UNL1        0.0525
     14 C          -0.5872    0.1380    2.6450 C.ar    1  UNL1        0.0519
     15 N          -1.8442    0.5615    2.7978 N.ar    1  UNL1       -0.2255
     16 C          -2.4540    1.0239    1.5900 C.ar    1  UNL1        0.2188
     17 F          -3.7043    1.4856    1.7384 F       1  UNL1       -0.1835
     18 C          -1.6907    0.9617    0.4997 C.ar    1  UNL1        0.0359
     19 C          -2.3764    1.3756   -0.8689 C.3     1  UNL1        0.0966
     20 C          -2.8338    2.7346   -0.6088 C.3     1  UNL1       -0.0352
     21 C          -3.3953    0.2627   -0.9777 C.3     1  UNL1        0.0224
     22 C          -4.0485    0.2419   -2.3426 C.3     1  UNL1        0.1997
     23 C          -5.4602    0.7377   -2.3260 C.3     1  UNL1        0.4266
     24 F          -6.3078    0.0157   -1.5531 F       1  UNL1       -0.1669
     25 F          -5.5319    2.0528   -1.8648 F       1  UNL1       -0.1669
     26 F          -6.0002    0.7797   -3.6043 F       1  UNL1       -0.1669
     27 O          -3.2206    1.0385   -3.1572 O.2     1  UNL1       -0.4534
     28 C          -1.8999    1.0910   -3.1753 C.2     1  UNL1        0.2765
     29 N          -0.8906    1.0063   -4.1424 N.pl3   1  UNL1       -0.3134
     30 N          -1.4037    1.2865   -1.8711 N.2     1  UNL1       -0.2256
     31 C          -0.3996    0.5250    0.3566 C.ar    1  UNL1       -0.0292
     32 H           2.9266   -3.3137   -0.4469 H       1  UNL1        0.0278
     33 H           1.7798   -2.4541    0.5648 H       1  UNL1        0.0278
     34 H           2.4390   -1.6626   -0.9044 H       1  UNL1        0.0278
     35 H           5.3502   -2.0843   -0.6668 H       1  UNL1        0.0634
     36 H           6.7292   -1.2170    3.2342 H       1  UNL1        0.0843
     37 H           2.1212   -0.0793    0.6697 H       1  UNL1        0.1552
     38 H          -0.1258   -0.1870    3.6382 H       1  UNL1        0.0849
     39 H          -3.7972    2.7781   -0.0080 H       1  UNL1        0.0256
     40 H          -2.0814    3.2742    0.0988 H       1  UNL1        0.0256
     41 H          -2.9533    3.4443   -1.4444 H       1  UNL1        0.0256
     42 H          -2.8032   -0.6746   -0.8416 H       1  UNL1        0.0330
     43 H          -4.1617    0.2470   -0.2114 H       1  UNL1        0.0330
     44 H          -4.0534   -0.7742   -2.8123 H       1  UNL1        0.0826
     45 H          -0.5038    1.8906   -4.5675 H       1  UNL1        0.1466
     46 H          -0.5045    0.0962   -4.4226 H       1  UNL1        0.1466
     47 H           0.1446    0.5408   -0.5617 H       1  UNL1        0.0641
@<TRIPOS>BOND
     1     1     2    1
     2     2     3   ar
     3     3     4   ar
     4     4     5    1
     5     5     6    3
     6     4     7   ar
     7     7     8   ar
     8     8     9   ar
     9     9    10    1
    10    10    11    2
    11    10    12   am
    12    12    13    1
    13    13    14   ar
    14    14    15   ar
    15    15    16   ar
    16    16    17    1
    17    16    18   ar
    18    18    19    1
    19    19    20    1
    20    19    21    1
    21    21    22    1
    22    22    23    1
    23    23    24    1
    24    23    25    1
    25    23    26    1
    26    22    27    1
    27    27    28    1
    28    28    29    1
    29    28    30    2
    30    18    31   ar
    31     9     2   ar
    32    31    13   ar
    33    30    19    1
    34     1    32    1
    35     1    33    1
    36     1    34    1
    37     3    35    1
    38     7    36    1
    39    12    37    1
    40    14    38    1
    41    20    39    1
    42    20    40    1
    43    20    41    1
    44    21    42    1
    45    21    43    1
    46    22    44    1
    47    29    45    1
    48    29    46    1
    49    31    47    1
