
     RDKit          3D

 47 49  0  0  0  0  0  0  0  0999 V2000
    2.6993   -2.2823   -0.0052 C   0  0  0  0  0  0  0  0  0  0  0  0
    3.8280   -1.8445    0.7872 C   0  0  0  0  0  0  0  0  0  0  0  0
    5.1465   -1.8545    0.4285 C   0  0  0  0  0  0  0  0  0  0  0  0
    6.1937   -1.6051    1.2482 C   0  0  0  0  0  0  0  0  0  0  0  0
    7.4422   -1.3162    0.6574 C   0  0  0  0  0  0  0  0  0  0  0  0
    8.6538   -1.0366    0.1105 N   0  0  0  0  0  0  0  0  0  0  0  0
    5.8983   -1.3329    2.5890 C   0  0  0  0  0  0  0  0  0  0  0  0
    4.5966   -1.3137    2.9525 N   0  0  0  0  0  0  0  0  0  0  0  0
    3.5865   -1.5267    2.2037 C   0  0  0  0  0  0  0  0  0  0  0  0
    2.1759   -1.1849    2.4971 C   0  0  0  0  0  0  0  0  0  0  0  0
    1.6063   -1.5358    3.4980 O   0  0  0  0  0  0  0  0  0  0  0  0
    1.4993   -0.3734    1.5061 N   0  0  0  0  0  0  0  0  0  0  0  0
    0.2165    0.0635    1.5728 C   0  0  0  0  0  0  0  0  0  0  0  0
   -0.5872    0.1380    2.6450 C   0  0  0  0  0  0  0  0  0  0  0  0
   -1.8442    0.5615    2.7978 N   0  0  0  0  0  0  0  0  0  0  0  0
   -2.4540    1.0239    1.5900 C   0  0  0  0  0  0  0  0  0  0  0  0
   -3.7043    1.4856    1.7384 F   0  0  0  0  0  0  0  0  0  0  0  0
   -1.6907    0.9617    0.4997 C   0  0  0  0  0  0  0  0  0  0  0  0
   -2.3764    1.3756   -0.8689 C   0  0  2  0  0  0  0  0  0  0  0  0
   -2.8338    2.7346   -0.6088 C   0  0  0  0  0  0  0  0  0  0  0  0
   -3.3953    0.2627   -0.9777 C   0  0  0  0  0  0  0  0  0  0  0  0
   -4.0485    0.2419   -2.3426 C   0  0  1  0  0  0  0  0  0  0  0  0
   -5.4602    0.7377   -2.3260 C   0  0  0  0  0  0  0  0  0  0  0  0
   -6.3078    0.0157   -1.5531 F   0  0  0  0  0  0  0  0  0  0  0  0
   -5.5319    2.0528   -1.8648 F   0  0  0  0  0  0  0  0  0  0  0  0
   -6.0002    0.7797   -3.6043 F   0  0  0  0  0  0  0  0  0  0  0  0
   -3.2206    1.0385   -3.1572 O   0  0  0  0  0  0  0  0  0  0  0  0
   -1.8999    1.0910   -3.1753 C   0  0  0  0  0  0  0  0  0  0  0  0
   -0.8906    1.0063   -4.1424 N   0  0  0  0  0  0  0  0  0  0  0  0
   -1.4037    1.2865   -1.8711 N   0  0  0  0  0  0  0  0  0  0  0  0
   -0.3996    0.5250    0.3566 C   0  0  0  0  0  0  0  0  0  0  0  0
    2.9266   -3.3137   -0.4469 H   0  0  0  0  0  0  0  0  0  0  0  0
    1.7798   -2.4541    0.5648 H   0  0  0  0  0  0  0  0  0  0  0  0
    2.4390   -1.6626   -0.9044 H   0  0  0  0  0  0  0  0  0  0  0  0
    5.3502   -2.0843   -0.6668 H   0  0  0  0  0  0  0  0  0  0  0  0
    6.7292   -1.2170    3.2342 H   0  0  0  0  0  0  0  0  0  0  0  0
    2.1212   -0.0793    0.6697 H   0  0  0  0  0  0  0  0  0  0  0  0
   -0.1258   -0.1870    3.6382 H   0  0  0  0  0  0  0  0  0  0  0  0
   -3.7972    2.7781   -0.0080 H   0  0  0  0  0  0  0  0  0  0  0  0
   -2.0814    3.2742    0.0988 H   0  0  0  0  0  0  0  0  0  0  0  0
   -2.9533    3.4443   -1.4444 H   0  0  0  0  0  0  0  0  0  0  0  0
   -2.8032   -0.6746   -0.8416 H   0  0  0  0  0  0  0  0  0  0  0  0
   -4.1617    0.2470   -0.2114 H   0  0  0  0  0  0  0  0  0  0  0  0
   -4.0534   -0.7742   -2.8123 H   0  0  0  0  0  0  0  0  0  0  0  0
   -0.5038    1.8906   -4.5675 H   0  0  0  0  0  0  0  0  0  0  0  0
   -0.5045    0.0962   -4.4226 H   0  0  0  0  0  0  0  0  0  0  0  0
    0.1446    0.5408   -0.5617 H   0  0  0  0  0  0  0  0  0  0  0  0
  1  2  1  0
  2  3  2  0
  3  4  1  0
  4  5  1  0
  5  6  3  0
  4  7  2  0
  7  8  1  0
  8  9  2  0
  9 10  1  0
 10 11  2  0
 10 12  1  0
 12 13  1  0
 13 14  2  0
 14 15  1  0
 15 16  2  0
 16 17  1  0
 16 18  1  0
 18 19  1  0
 19 20  1  1
 19 21  1  0
 21 22  1  0
 22 23  1  0
 23 24  1  0
 23 25  1  0
 23 26  1  0
 22 27  1  0
 27 28  1  0
 28 29  1  0
 28 30  2  0
 18 31  2  0
  9  2  1  0
 31 13  1  0
 30 19  1  0
  1 32  1  0
  1 33  1  0
  1 34  1  0
  3 35  1  0
  7 36  1  0
 12 37  1  0
 14 38  1  0
 20 39  1  0
 20 40  1  0
 20 41  1  0
 21 42  1  0
 21 43  1  0
 22 44  1  6
 29 45  1  0
 29 46  1  0
 31 47  1  0
M  END
$$$$
