@<TRIPOS>MOLECULE
*****
 44 46 0 0 0
SMALL
GASTEIGER

@<TRIPOS>ATOM
      1 C           6.5702    1.7775    0.8339 C.3     1  UNL1       -0.0135
      2 S           6.0176    0.0704    1.2079 S.3     1  UNL1       -0.1286
      3 C           4.3267   -0.1601    0.6339 C.ar    1  UNL1        0.0078
      4 C           4.1006   -0.6075   -0.6302 C.ar    1  UNL1       -0.0449
      5 C           2.7908   -0.7830   -1.0659 C.ar    1  UNL1       -0.0189
      6 C           1.7065   -0.5175   -0.2556 C.ar    1  UNL1        0.1215
      7 O           0.4517   -0.7088   -0.7392 O.3     1  UNL1       -0.4839
      8 C          -0.7823   -0.5284   -0.1642 C.3     1  UNL1        0.1294
      9 C          -1.4989   -1.8289   -0.1634 C.ar    1  UNL1        0.0110
     10 C          -2.1800   -2.2772    0.9463 C.ar    1  UNL1       -0.0522
     11 C          -2.8443   -3.4816    0.9502 C.ar    1  UNL1       -0.0432
     12 C          -2.8323   -4.2615   -0.1768 C.ar    1  UNL1        0.0276
     13 N          -2.1732   -3.8352   -1.2611 N.ar    1  UNL1       -0.2629
     14 C          -1.5303   -2.6674   -1.2618 C.ar    1  UNL1        0.0342
     15 C          -1.6682    0.4755   -0.8640 C.3     1  UNL1        0.0027
     16 C          -2.9655    0.5232   -0.0789 C.3     1  UNL1       -0.0339
     17 C          -3.8016    1.6309   -0.6726 C.3     1  UNL1       -0.0037
     18 N          -3.2333    2.8821   -0.2784 N.3     1  UNL1       -0.3159
     19 C          -1.8373    2.8027    0.0666 C.3     1  UNL1       -0.0037
     20 C          -1.0708    1.8549   -0.8242 C.3     1  UNL1       -0.0339
     21 C           1.9713   -0.0663    1.0174 C.ar    1  UNL1       -0.0189
     22 C           3.2627    0.1194    1.4832 C.ar    1  UNL1       -0.0449
     23 H           6.7682    2.3527    1.7428 H       1  UNL1        0.0344
     24 H           7.4782    1.6944    0.1793 H       1  UNL1        0.0344
     25 H           5.7772    2.2873    0.2465 H       1  UNL1        0.0344
     26 H           4.9528   -0.8239   -1.2887 H       1  UNL1        0.0630
     27 H           2.6307   -1.1368   -2.0663 H       1  UNL1        0.0654
     28 H          -0.6770   -0.1585    0.8853 H       1  UNL1        0.0787
     29 H          -2.1900   -1.6514    1.8515 H       1  UNL1        0.0622
     30 H          -3.3857   -3.8360    1.8351 H       1  UNL1        0.0633
     31 H          -3.3650   -5.2291   -0.1761 H       1  UNL1        0.0829
     32 H          -0.9887   -2.3131   -2.1474 H       1  UNL1        0.0833
     33 H          -1.9198    0.1457   -1.8905 H       1  UNL1        0.0341
     34 H          -3.4865   -0.4425   -0.0553 H       1  UNL1        0.0281
     35 H          -2.7304    0.8066    0.9682 H       1  UNL1        0.0281
     36 H          -4.8629    1.5913   -0.3303 H       1  UNL1        0.0424
     37 H          -3.8413    1.5576   -1.7792 H       1  UNL1        0.0424
     38 H          -3.4702    3.6802   -0.8863 H       1  UNL1        0.1219
     39 H          -1.3958    3.8108   -0.0837 H       1  UNL1        0.0424
     40 H          -1.7114    2.5673    1.1389 H       1  UNL1        0.0424
     41 H          -0.9628    2.2883   -1.8297 H       1  UNL1        0.0281
     42 H          -0.0513    1.7680   -0.3984 H       1  UNL1        0.0281
     43 H           1.1603    0.1561    1.6912 H       1  UNL1        0.0654
     44 H           3.4914    0.4718    2.4764 H       1  UNL1        0.0630
@<TRIPOS>BOND
     1     1     2    1
     2     2     3    1
     3     3     4   ar
     4     4     5   ar
     5     5     6   ar
     6     6     7    1
     7     7     8    1
     8     8     9    1
     9     9    10   ar
    10    10    11   ar
    11    11    12   ar
    12    12    13   ar
    13    13    14   ar
    14     8    15    1
    15    15    16    1
    16    16    17    1
    17    17    18    1
    18    18    19    1
    19    19    20    1
    20     6    21   ar
    21    21    22   ar
    22    22     3   ar
    23    14     9   ar
    24    20    15    1
    25     1    23    1
    26     1    24    1
    27     1    25    1
    28     4    26    1
    29     5    27    1
    30     8    28    1
    31    10    29    1
    32    11    30    1
    33    12    31    1
    34    14    32    1
    35    15    33    1
    36    16    34    1
    37    16    35    1
    38    17    36    1
    39    17    37    1
    40    18    38    1
    41    19    39    1
    42    19    40    1
    43    20    41    1
    44    20    42    1
    45    21    43    1
    46    22    44    1
