
     RDKit          3D

 44 46  0  0  0  0  0  0  0  0999 V2000
    6.5702    1.7775    0.8339 C   0  0  0  0  0  0  0  0  0  0  0  0
    6.0176    0.0704    1.2079 S   0  0  0  0  0  0  0  0  0  0  0  0
    4.3267   -0.1601    0.6339 C   0  0  0  0  0  0  0  0  0  0  0  0
    4.1006   -0.6075   -0.6302 C   0  0  0  0  0  0  0  0  0  0  0  0
    2.7908   -0.7830   -1.0659 C   0  0  0  0  0  0  0  0  0  0  0  0
    1.7065   -0.5175   -0.2556 C   0  0  0  0  0  0  0  0  0  0  0  0
    0.4517   -0.7088   -0.7392 O   0  0  0  0  0  0  0  0  0  0  0  0
   -0.7823   -0.5284   -0.1642 C   0  0  0  0  0  0  0  0  0  0  0  0
   -1.4989   -1.8289   -0.1634 C   0  0  0  0  0  0  0  0  0  0  0  0
   -2.1800   -2.2772    0.9463 C   0  0  0  0  0  0  0  0  0  0  0  0
   -2.8443   -3.4816    0.9502 C   0  0  0  0  0  0  0  0  0  0  0  0
   -2.8323   -4.2615   -0.1768 C   0  0  0  0  0  0  0  0  0  0  0  0
   -2.1732   -3.8352   -1.2611 N   0  0  0  0  0  0  0  0  0  0  0  0
   -1.5303   -2.6674   -1.2618 C   0  0  0  0  0  0  0  0  0  0  0  0
   -1.6682    0.4755   -0.8640 C   0  0  0  0  0  0  0  0  0  0  0  0
   -2.9655    0.5232   -0.0789 C   0  0  0  0  0  0  0  0  0  0  0  0
   -3.8016    1.6309   -0.6726 C   0  0  0  0  0  0  0  0  0  0  0  0
   -3.2333    2.8821   -0.2784 N   0  0  0  0  0  0  0  0  0  0  0  0
   -1.8373    2.8027    0.0666 C   0  0  0  0  0  0  0  0  0  0  0  0
   -1.0708    1.8549   -0.8242 C   0  0  0  0  0  0  0  0  0  0  0  0
    1.9713   -0.0663    1.0174 C   0  0  0  0  0  0  0  0  0  0  0  0
    3.2627    0.1194    1.4832 C   0  0  0  0  0  0  0  0  0  0  0  0
    6.7682    2.3527    1.7428 H   0  0  0  0  0  0  0  0  0  0  0  0
    7.4782    1.6944    0.1793 H   0  0  0  0  0  0  0  0  0  0  0  0
    5.7772    2.2873    0.2465 H   0  0  0  0  0  0  0  0  0  0  0  0
    4.9528   -0.8239   -1.2887 H   0  0  0  0  0  0  0  0  0  0  0  0
    2.6307   -1.1368   -2.0663 H   0  0  0  0  0  0  0  0  0  0  0  0
   -0.6770   -0.1585    0.8853 H   0  0  0  0  0  0  0  0  0  0  0  0
   -2.1900   -1.6514    1.8515 H   0  0  0  0  0  0  0  0  0  0  0  0
   -3.3857   -3.8360    1.8351 H   0  0  0  0  0  0  0  0  0  0  0  0
   -3.3650   -5.2291   -0.1761 H   0  0  0  0  0  0  0  0  0  0  0  0
   -0.9887   -2.3131   -2.1474 H   0  0  0  0  0  0  0  0  0  0  0  0
   -1.9198    0.1457   -1.8905 H   0  0  0  0  0  0  0  0  0  0  0  0
   -3.4865   -0.4425   -0.0553 H   0  0  0  0  0  0  0  0  0  0  0  0
   -2.7304    0.8066    0.9682 H   0  0  0  0  0  0  0  0  0  0  0  0
   -4.8629    1.5913   -0.3303 H   0  0  0  0  0  0  0  0  0  0  0  0
   -3.8413    1.5576   -1.7792 H   0  0  0  0  0  0  0  0  0  0  0  0
   -3.4702    3.6802   -0.8863 H   0  0  0  0  0  0  0  0  0  0  0  0
   -1.3958    3.8108   -0.0837 H   0  0  0  0  0  0  0  0  0  0  0  0
   -1.7114    2.5673    1.1389 H   0  0  0  0  0  0  0  0  0  0  0  0
   -0.9628    2.2883   -1.8297 H   0  0  0  0  0  0  0  0  0  0  0  0
   -0.0513    1.7680   -0.3984 H   0  0  0  0  0  0  0  0  0  0  0  0
    1.1603    0.1561    1.6912 H   0  0  0  0  0  0  0  0  0  0  0  0
    3.4914    0.4718    2.4764 H   0  0  0  0  0  0  0  0  0  0  0  0
  1  2  1  0
  2  3  1  0
  3  4  2  0
  4  5  1  0
  5  6  2  0
  6  7  1  0
  7  8  1  0
  8  9  1  0
  9 10  2  0
 10 11  1  0
 11 12  2  0
 12 13  1  0
 13 14  2  0
  8 15  1  0
 15 16  1  0
 16 17  1  0
 17 18  1  0
 18 19  1  0
 19 20  1  0
  6 21  1  0
 21 22  2  0
 22  3  1  0
 14  9  1  0
 20 15  1  0
  1 23  1  0
  1 24  1  0
  1 25  1  0
  4 26  1  0
  5 27  1  0
  8 28  1  0
 10 29  1  0
 11 30  1  0
 12 31  1  0
 14 32  1  0
 15 33  1  0
 16 34  1  0
 16 35  1  0
 17 36  1  0
 17 37  1  0
 18 38  1  0
 19 39  1  0
 19 40  1  0
 20 41  1  0
 20 42  1  0
 21 43  1  0
 22 44  1  0
M  END
$$$$
