@<TRIPOS>MOLECULE
*****
 25 25 0 0 0
SMALL
GASTEIGER

@<TRIPOS>ATOM
      1 O          -4.6260   -0.3715   -0.9002 O.co2   1  UNL1       -0.7244
      2 S          -3.4876    0.1542    0.2367 S.3     1  UNL1       -0.0756
      3 O          -3.5999    1.6153    0.5136 O.2     1  UNL1       -0.1851
      4 O          -3.8006   -0.5934    1.5009 O.2     1  UNL1       -0.1851
      5 C          -1.8322   -0.2524   -0.3349 C.3     1  UNL1        0.0945
      6 C          -0.8917    0.2428    0.7203 C.3     1  UNL1       -0.0129
      7 N           0.4972    0.0266    0.4765 N.4     1  UNL1        0.2396
      8 C           0.7135   -1.1490   -0.3358 C.3     1  UNL1       -0.0078
      9 C           2.1930   -1.2673   -0.7066 C.3     1  UNL1        0.0878
     10 O           2.4216   -0.1748   -1.5640 O.3     1  UNL1       -0.3693
     11 C           2.4384    0.9395   -0.7308 C.3     1  UNL1        0.0878
     12 C           1.1262    1.2106   -0.0467 C.3     1  UNL1       -0.0078
     13 H          -1.7546   -1.3618   -0.3807 H       1  UNL1        0.0543
     14 H          -1.6775    0.1398   -1.3351 H       1  UNL1        0.0543
     15 H          -1.0377    1.3568    0.7992 H       1  UNL1        0.0830
     16 H          -1.1792   -0.1855    1.6841 H       1  UNL1        0.0830
     17 H           0.9625   -0.1686    1.3918 H       1  UNL1        0.2036
     18 H           0.4852   -2.0518    0.2694 H       1  UNL1        0.0837
     19 H           0.0881   -1.2000   -1.2358 H       1  UNL1        0.0837
     20 H           2.7698   -1.0647    0.2321 H       1  UNL1        0.0613
     21 H           2.4092   -2.2351   -1.1433 H       1  UNL1        0.0613
     22 H           3.2536    0.8539    0.0119 H       1  UNL1        0.0613
     23 H           2.6812    1.8539   -1.3409 H       1  UNL1        0.0613
     24 H           0.4958    1.7772   -0.7463 H       1  UNL1        0.0837
     25 H           1.3516    1.9055    0.8026 H       1  UNL1        0.0837
@<TRIPOS>UNITY_ATOM_ATTR
1 1
charge -1
7 1
charge 1
@<TRIPOS>BOND
     1     1     2    1
     2     2     3    2
     3     2     4    2
     4     2     5    1
     5     5     6    1
     6     6     7    1
     7     7     8    1
     8     8     9    1
     9     9    10    1
    10    10    11    1
    11    11    12    1
    12    12     7    1
    13     5    13    1
    14     5    14    1
    15     6    15    1
    16     6    16    1
    17     7    17    1
    18     8    18    1
    19     8    19    1
    20     9    20    1
    21     9    21    1
    22    11    22    1
    23    11    23    1
    24    12    24    1
    25    12    25    1
