@<TRIPOS>MOLECULE
*****
 31 31 0 0 0
SMALL
GASTEIGER

@<TRIPOS>ATOM
      1 C           4.0270   -1.9803   -1.1520 C.3     1  UNL1       -0.0465
      2 C           2.5511   -1.7417   -0.9595 C.2     1  UNL1       -0.0864
      3 C           2.1977   -0.6023   -0.4087 C.2     1  UNL1       -0.0552
      4 C           0.8078   -0.2602   -0.1728 C.ar    1  UNL1        0.0200
      5 C          -0.2320   -1.1153   -0.5146 C.ar    1  UNL1       -0.0057
      6 C          -1.5318   -0.6977   -0.2484 C.ar    1  UNL1        0.1623
      7 O          -2.5822   -1.5245   -0.5764 O.3     1  UNL1       -0.4914
      8 C          -2.4136   -2.7943   -1.1781 C.3     1  UNL1        0.0790
      9 C          -1.8040    0.5191    0.3342 C.ar    1  UNL1        0.1650
     10 O          -3.1051    0.8917    0.5794 O.3     1  UNL1       -0.4913
     11 C          -3.5068    2.0891    1.1603 C.3     1  UNL1        0.0790
     12 C          -0.7714    1.3584    0.6690 C.ar    1  UNL1        0.0260
     13 C           0.5265    0.9680    0.4156 C.ar    1  UNL1        0.1309
     14 O           1.6052    1.8002    0.7446 O.3     1  UNL1       -0.4944
     15 C           1.3878    3.0596    1.3443 C.3     1  UNL1        0.0788
     16 H           4.1547   -2.8101   -1.8595 H       1  UNL1        0.0272
     17 H           4.4032   -1.0138   -1.5992 H       1  UNL1        0.0272
     18 H           4.4723   -2.1490   -0.1592 H       1  UNL1        0.0272
     19 H           1.8512   -2.4982   -1.2737 H       1  UNL1        0.0569
     20 H           2.9704    0.0908   -0.1280 H       1  UNL1        0.0621
     21 H          -0.0504   -2.0633   -0.9668 H       1  UNL1        0.0662
     22 H          -1.6028   -3.3847   -0.6773 H       1  UNL1        0.0660
     23 H          -2.2093   -2.6794   -2.2678 H       1  UNL1        0.0660
     24 H          -3.3788   -3.3409   -1.0196 H       1  UNL1        0.0660
     25 H          -3.5673    2.9073    0.4054 H       1  UNL1        0.0660
     26 H          -2.7842    2.4072    1.9689 H       1  UNL1        0.0660
     27 H          -4.4848    1.9869    1.7169 H       1  UNL1        0.0660
     28 H          -0.9272    2.3318    1.1313 H       1  UNL1        0.0692
     29 H           0.9936    3.8179    0.6695 H       1  UNL1        0.0660
     30 H           2.3342    3.4344    1.8108 H       1  UNL1        0.0660
     31 H           0.6688    2.9932    2.2113 H       1  UNL1        0.0660
@<TRIPOS>BOND
     1     1     2    1
     2     2     3    2
     3     3     4    1
     4     4     5   ar
     5     5     6   ar
     6     6     7    1
     7     7     8    1
     8     6     9   ar
     9     9    10    1
    10    10    11    1
    11     9    12   ar
    12    12    13   ar
    13    13    14    1
    14    14    15    1
    15    13     4   ar
    16     1    16    1
    17     1    17    1
    18     1    18    1
    19     2    19    1
    20     3    20    1
    21     5    21    1
    22     8    22    1
    23     8    23    1
    24     8    24    1
    25    11    25    1
    26    11    26    1
    27    11    27    1
    28    12    28    1
    29    15    29    1
    30    15    30    1
    31    15    31    1
