
     RDKit          3D

 31 31  0  0  0  0  0  0  0  0999 V2000
    4.0270   -1.9803   -1.1520 C   0  0  0  0  0  0  0  0  0  0  0  0
    2.5511   -1.7417   -0.9595 C   0  0  0  0  0  0  0  0  0  0  0  0
    2.1977   -0.6023   -0.4087 C   0  0  0  0  0  0  0  0  0  0  0  0
    0.8078   -0.2602   -0.1728 C   0  0  0  0  0  0  0  0  0  0  0  0
   -0.2320   -1.1153   -0.5146 C   0  0  0  0  0  0  0  0  0  0  0  0
   -1.5318   -0.6977   -0.2484 C   0  0  0  0  0  0  0  0  0  0  0  0
   -2.5822   -1.5245   -0.5764 O   0  0  0  0  0  0  0  0  0  0  0  0
   -2.4136   -2.7943   -1.1781 C   0  0  0  0  0  0  0  0  0  0  0  0
   -1.8040    0.5191    0.3342 C   0  0  0  0  0  0  0  0  0  0  0  0
   -3.1051    0.8917    0.5794 O   0  0  0  0  0  0  0  0  0  0  0  0
   -3.5068    2.0891    1.1603 C   0  0  0  0  0  0  0  0  0  0  0  0
   -0.7714    1.3584    0.6690 C   0  0  0  0  0  0  0  0  0  0  0  0
    0.5265    0.9680    0.4156 C   0  0  0  0  0  0  0  0  0  0  0  0
    1.6052    1.8002    0.7446 O   0  0  0  0  0  0  0  0  0  0  0  0
    1.3878    3.0596    1.3443 C   0  0  0  0  0  0  0  0  0  0  0  0
    4.1547   -2.8101   -1.8595 H   0  0  0  0  0  0  0  0  0  0  0  0
    4.4032   -1.0138   -1.5992 H   0  0  0  0  0  0  0  0  0  0  0  0
    4.4723   -2.1490   -0.1592 H   0  0  0  0  0  0  0  0  0  0  0  0
    1.8512   -2.4982   -1.2737 H   0  0  0  0  0  0  0  0  0  0  0  0
    2.9704    0.0908   -0.1280 H   0  0  0  0  0  0  0  0  0  0  0  0
   -0.0504   -2.0633   -0.9668 H   0  0  0  0  0  0  0  0  0  0  0  0
   -1.6028   -3.3847   -0.6773 H   0  0  0  0  0  0  0  0  0  0  0  0
   -2.2093   -2.6794   -2.2678 H   0  0  0  0  0  0  0  0  0  0  0  0
   -3.3788   -3.3409   -1.0196 H   0  0  0  0  0  0  0  0  0  0  0  0
   -3.5673    2.9073    0.4054 H   0  0  0  0  0  0  0  0  0  0  0  0
   -2.7842    2.4072    1.9689 H   0  0  0  0  0  0  0  0  0  0  0  0
   -4.4848    1.9869    1.7169 H   0  0  0  0  0  0  0  0  0  0  0  0
   -0.9272    2.3318    1.1313 H   0  0  0  0  0  0  0  0  0  0  0  0
    0.9936    3.8179    0.6695 H   0  0  0  0  0  0  0  0  0  0  0  0
    2.3342    3.4344    1.8108 H   0  0  0  0  0  0  0  0  0  0  0  0
    0.6688    2.9932    2.2113 H   0  0  0  0  0  0  0  0  0  0  0  0
  1  2  1  0
  2  3  2  0
  3  4  1  0
  4  5  2  0
  5  6  1  0
  6  7  1  0
  7  8  1  0
  6  9  2  0
  9 10  1  0
 10 11  1  0
  9 12  1  0
 12 13  2  0
 13 14  1  0
 14 15  1  0
 13  4  1  0
  1 16  1  0
  1 17  1  0
  1 18  1  0
  2 19  1  0
  3 20  1  0
  5 21  1  0
  8 22  1  0
  8 23  1  0
  8 24  1  0
 11 25  1  0
 11 26  1  0
 11 27  1  0
 12 28  1  0
 15 29  1  0
 15 30  1  0
 15 31  1  0
M  END
$$$$
