@<TRIPOS>MOLECULE
*****
 71 73 0 0 0
SMALL
GASTEIGER

@<TRIPOS>ATOM
      1 N           8.0513    0.6253   -0.5828 N.pl3   1  UNL1       -0.1298
      2 C           8.3146   -0.2446   -1.4547 C.cat   1  UNL1        0.3762
      3 N           9.6125   -0.8358   -1.3846 N.pl3   1  UNL1       -0.2893
      4 N           7.4459   -0.7014   -2.4925 N.pl3   1  UNL1       -0.2761
      5 C           6.0296   -0.3948   -2.3920 C.3     1  UNL1        0.0647
      6 C           5.4275   -1.1303   -1.2023 C.3     1  UNL1       -0.0201
      7 C           3.9628   -0.8523   -1.0598 C.3     1  UNL1       -0.0243
      8 C           3.4502   -1.5693    0.1859 C.3     1  UNL1        0.0882
      9 N           2.0173   -1.2996    0.3116 N.am    1  UNL1       -0.3039
     10 C           1.2267   -2.3205    0.9515 C.2     1  UNL1        0.2310
     11 O           1.9251   -3.2933    1.3861 O.2     1  UNL1       -0.2741
     12 C          -0.2205   -2.2769    1.1021 C.3     1  UNL1        0.0911
     13 N          -0.8648   -1.1792    0.3857 N.am    1  UNL1       -0.2901
     14 C          -1.1277    0.0740    0.9986 C.3     1  UNL1        0.0297
     15 C          -1.9469    0.9447    0.0617 C.3     1  UNL1        0.0368
     16 N          -2.9435    0.1590   -0.6392 N.3     1  UNL1       -0.1669
     17 S          -4.4430    0.2498    0.0206 S.O2    1  UNL1        0.0366
     18 O          -4.3347   -0.0854    1.5171 O.2     1  UNL1       -0.1577
     19 O          -5.5023   -0.6531   -0.4825 O.2     1  UNL1       -0.1577
     20 C          -5.0365    1.9195   -0.0633 C.3     1  UNL1        0.1069
     21 C          -6.3883    2.1148    0.5259 C.ar    1  UNL1       -0.0250
     22 C          -6.5430    2.5375    1.8735 C.ar    1  UNL1       -0.0570
     23 C          -7.8276    2.7198    2.3287 C.ar    1  UNL1       -0.0615
     24 C          -8.9306    2.5048    1.5252 C.ar    1  UNL1       -0.0617
     25 C          -8.7737    2.0921    0.2170 C.ar    1  UNL1       -0.0615
     26 C          -7.4924    1.9045   -0.2594 C.ar    1  UNL1       -0.0570
     27 C          -2.4656   -0.7703   -1.5180 C.3     1  UNL1        0.1177
     28 C          -3.3070   -1.8612   -2.0761 C.3     1  UNL1        0.0704
     29 C          -4.4647   -1.4453   -2.8893 C.2     1  UNL1        0.3067
     30 O          -5.3705   -2.2561   -3.2082 O.2     1  UNL1       -0.2509
     31 O          -4.6565   -0.1553   -3.3673 O.3     1  UNL1       -0.4806
     32 C          -1.2541   -1.4074   -0.9715 C.2     1  UNL1        0.2354
     33 O          -0.5693   -2.1552   -1.7161 O.2     1  UNL1       -0.2738
     34 C           4.1753   -1.1099    1.3556 C.2     1  UNL1        0.2079
     35 O           5.1594   -1.8480    1.7530 O.2     1  UNL1       -0.2879
     36 C           3.9151    0.0977    2.1203 C.ar    1  UNL1        0.1453
     37 N           3.2835    1.1016    2.1068 N.ar    1  UNL1       -0.2443
     38 C           3.2982    2.1290    2.9245 C.ar    1  UNL1        0.0355
     39 C           4.2093    2.0026    3.9709 C.ar    1  UNL1       -0.0041
     40 S           4.9519    0.4047    3.6638 S.2     1  UNL1       -0.0728
     41 H           7.2986    1.2212   -0.3246 H       1  UNL1        0.3062
     42 H           9.6826   -1.8594   -1.4854 H       1  UNL1        0.2546
     43 H          10.4736   -0.2769   -1.2345 H       1  UNL1        0.2546
     44 H           7.8485   -1.2271   -3.2809 H       1  UNL1        0.2579
     45 H           5.8126    0.6764   -2.2651 H       1  UNL1        0.0655
     46 H           5.5117   -0.7549   -3.2925 H       1  UNL1        0.0655
     47 H           5.9513   -0.7256   -0.2977 H       1  UNL1        0.0296
     48 H           5.6168   -2.2011   -1.2627 H       1  UNL1        0.0296
     49 H           3.4384   -1.1724   -1.9714 H       1  UNL1        0.0288
     50 H           3.7503    0.2493   -0.9712 H       1  UNL1        0.0288
     51 H           3.5630   -2.6443    0.0640 H       1  UNL1        0.0582
     52 H           1.6083   -0.4489   -0.0253 H       1  UNL1        0.1494
     53 H          -0.5218   -2.2207    2.1795 H       1  UNL1        0.0560
     54 H          -0.6466   -3.2713    0.7785 H       1  UNL1        0.0560
     55 H          -1.6760   -0.0336    1.9770 H       1  UNL1        0.0478
     56 H          -0.1479    0.5882    1.1964 H       1  UNL1        0.0478
     57 H          -1.2673    1.4550   -0.6190 H       1  UNL1        0.0459
     58 H          -2.4512    1.7128    0.6876 H       1  UNL1        0.0459
     59 H          -4.3181    2.6398    0.3625 H       1  UNL1        0.0565
     60 H          -5.1457    2.2270   -1.1595 H       1  UNL1        0.0565
     61 H          -5.6867    2.7016    2.4862 H       1  UNL1        0.0621
     62 H          -7.9653    3.0445    3.3652 H       1  UNL1        0.0618
     63 H          -9.9432    2.6554    1.8939 H       1  UNL1        0.0618
     64 H          -9.6207    1.9096   -0.4444 H       1  UNL1        0.0618
     65 H          -7.3454    1.5898   -1.2811 H       1  UNL1        0.0621
     66 H          -2.0827   -0.2109   -2.4486 H       1  UNL1        0.0581
     67 H          -3.5855   -2.6320   -1.3083 H       1  UNL1        0.0398
     68 H          -2.6292   -2.4423   -2.7818 H       1  UNL1        0.0398
     69 H          -4.6363   -0.0296   -4.3929 H       1  UNL1        0.2951
     70 H           2.6624    3.0379    2.8041 H       1  UNL1        0.0835
     71 H           4.4584    2.7065    4.8276 H       1  UNL1        0.0709
@<TRIPOS>BOND
     1     1     2    2
     2     2     3    1
     3     2     4    1
     4     4     5    1
     5     5     6    1
     6     6     7    1
     7     7     8    1
     8     8     9    1
     9     9    10   am
    10    10    11    2
    11    10    12    1
    12    12    13    1
    13    13    14    1
    14    14    15    1
    15    15    16    1
    16    16    17    1
    17    17    18    2
    18    17    19    2
    19    17    20    1
    20    20    21    1
    21    21    22   ar
    22    22    23   ar
    23    23    24   ar
    24    24    25   ar
    25    25    26   ar
    26    16    27    1
    27    27    28    1
    28    28    29    1
    29    29    30    2
    30    29    31    1
    31    27    32    1
    32    32    33    2
    33     8    34    1
    34    34    35    2
    35    34    36    1
    36    36    37   ar
    37    37    38   ar
    38    38    39   ar
    39    39    40   ar
    40    32    13   am
    41    40    36   ar
    42    26    21   ar
    43     1    41    1
    44     3    42    1
    45     3    43    1
    46     4    44    1
    47     5    45    1
    48     5    46    1
    49     6    47    1
    50     6    48    1
    51     7    49    1
    52     7    50    1
    53     8    51    1
    54     9    52    1
    55    12    53    1
    56    12    54    1
    57    14    55    1
    58    14    56    1
    59    15    57    1
    60    15    58    1
    61    20    59    1
    62    20    60    1
    63    22    61    1
    64    23    62    1
    65    24    63    1
    66    25    64    1
    67    26    65    1
    68    27    66    1
    69    28    67    1
    70    28    68    1
    71    31    69    1
    72    38    70    1
    73    39    71    1
