@<TRIPOS>MOLECULE
*****
 11 10 0 0 0
SMALL
GASTEIGER

@<TRIPOS>ATOM
      1 N          -2.0106    0.2718    0.0224 N.3     1  UNL1       -0.2141
      2 O          -0.7234    0.5510   -0.1123 O.3     1  UNL1       -0.2912
      3 C          -0.0390   -0.4572    0.5839 C.3     1  UNL1        0.1652
      4 C           1.4147   -0.2079    0.4742 C.2     1  UNL1        0.3328
      5 O           1.9652    0.8699   -0.2209 O.3     1  UNL1       -0.4790
      6 O           2.2559   -0.9899    1.0264 O.2     1  UNL1       -0.2483
      7 H          -2.3776   -0.5001   -0.5393 H       1  UNL1        0.1500
      8 H          -2.6394    0.9678    0.4017 H       1  UNL1        0.1500
      9 H          -0.3530   -0.3089    1.6513 H       1  UNL1        0.0697
     10 H          -0.2950   -1.4759    0.2255 H       1  UNL1        0.0697
     11 H           2.8022    1.2794    0.1968 H       1  UNL1        0.2951
@<TRIPOS>BOND
     1     1     2    1
     2     2     3    1
     3     3     4    1
     4     4     5    1
     5     4     6    2
     6     1     7    1
     7     1     8    1
     8     3     9    1
     9     3    10    1
    10     5    11    1
