
     RDKit          3D

 55 58  0  0  0  0  0  0  0  0999 V2000
    0.9328    0.5793    0.5904 C   0  0  2  0  0  0  0  0  0  0  0  0
    2.0420    1.5297    0.3936 C   0  0  0  0  0  0  0  0  0  0  0  0
    3.1765    0.5790    0.8165 C   0  0  1  0  0  0  0  0  0  0  0  0
    2.9535    0.2507    2.1506 O   0  0  0  0  0  0  0  0  0  0  0  0
    2.8212   -0.6281   -0.0266 C   0  0  2  0  0  0  0  0  0  0  0  0
    3.0173   -1.7667    0.7717 O   0  0  0  0  0  0  0  0  0  0  0  0
    3.6858   -0.7858   -1.1970 C   0  0  0  0  0  0  0  0  0  0  0  0
    4.2934   -1.8596   -1.0839 O   0  0  0  0  0  0  0  0  0  0  0  0
    4.5014   -0.8145   -2.4179 C   0  0  0  0  0  0  0  0  0  0  0  0
    5.2881   -1.9385   -2.5362 O   0  0  0  0  0  0  0  0  0  0  0  0
    1.3540   -0.5653   -0.3188 C   0  0  2  0  0  0  0  0  0  0  0  0
    1.0519   -0.3012   -1.7697 C   0  0  0  0  0  0  0  0  0  0  0  0
    0.5763   -1.7350    0.1647 C   0  0  0  0  0  0  0  0  0  0  0  0
   -0.8703   -1.5198    0.3400 C   0  0  2  0  0  0  0  0  0  0  0  0
   -1.5209   -2.0496   -0.7957 O   0  0  0  0  0  0  0  0  0  0  0  0
   -1.3304   -0.1452    0.6563 C   0  0  1  0  0  0  0  0  0  0  0  0
   -1.3403    0.0103    2.0514 F   0  0  0  0  0  0  0  0  0  0  0  0
   -0.4357    0.9593    0.1616 C   0  0  1  0  0  0  0  0  0  0  0  0
   -0.8569    2.2617    0.8201 C   0  0  0  0  0  0  0  0  0  0  0  0
   -2.2209    2.5674    0.1828 C   0  0  0  0  0  0  0  0  0  0  0  0
   -3.1197    1.5000    0.7511 C   0  0  0  0  0  0  0  0  0  0  0  0
   -4.0934    1.8021    1.5959 C   0  0  0  0  0  0  0  0  0  0  0  0
   -4.8920    0.6917    2.0756 C   0  0  0  0  0  0  0  0  0  0  0  0
   -5.8209    0.9652    2.8791 O   0  0  0  0  0  0  0  0  0  0  0  0
   -4.6815   -0.6846    1.6874 C   0  0  0  0  0  0  0  0  0  0  0  0
   -3.6830   -0.8757    0.8397 C   0  0  0  0  0  0  0  0  0  0  0  0
   -2.7574    0.1350    0.2400 C   0  0  2  0  0  0  0  0  0  0  0  0
   -2.9827    0.1295   -1.2352 C   0  0  0  0  0  0  0  0  0  0  0  0
    0.9214    0.1933    1.6238 H   0  0  0  0  0  0  0  0  0  0  0  0
    2.0115    2.4407    1.0040 H   0  0  0  0  0  0  0  0  0  0  0  0
    2.2453    1.7304   -0.6829 H   0  0  0  0  0  0  0  0  0  0  0  0
    4.1654    0.9795    0.6567 H   0  0  0  0  0  0  0  0  0  0  0  0
    3.7574   -0.1298    2.5585 H   0  0  0  0  0  0  0  0  0  0  0  0
    3.9631   -1.8560    1.0624 H   0  0  0  0  0  0  0  0  0  0  0  0
    5.2060    0.0650   -2.3406 H   0  0  0  0  0  0  0  0  0  0  0  0
    3.9503   -0.6620   -3.3450 H   0  0  0  0  0  0  0  0  0  0  0  0
    5.2303   -2.3446   -3.4558 H   0  0  0  0  0  0  0  0  0  0  0  0
    0.0493   -0.7411   -1.9774 H   0  0  0  0  0  0  0  0  0  0  0  0
    1.7625   -0.8840   -2.3890 H   0  0  0  0  0  0  0  0  0  0  0  0
    1.1111    0.7399   -2.0814 H   0  0  0  0  0  0  0  0  0  0  0  0
    0.7796   -2.5893   -0.5166 H   0  0  0  0  0  0  0  0  0  0  0  0
    1.0513   -2.0502    1.1404 H   0  0  0  0  0  0  0  0  0  0  0  0
   -1.2164   -2.1899    1.1769 H   0  0  0  0  0  0  0  0  0  0  0  0
   -1.4881   -3.0554   -0.7239 H   0  0  0  0  0  0  0  0  0  0  0  0
   -0.5164    1.1306   -0.9172 H   0  0  0  0  0  0  0  0  0  0  0  0
   -0.9892    2.1309    1.9117 H   0  0  0  0  0  0  0  0  0  0  0  0
   -0.1648    3.0807    0.5461 H   0  0  0  0  0  0  0  0  0  0  0  0
   -2.5972    3.5573    0.4415 H   0  0  0  0  0  0  0  0  0  0  0  0
   -2.0684    2.4031   -0.9042 H   0  0  0  0  0  0  0  0  0  0  0  0
   -4.2587    2.8126    1.8895 H   0  0  0  0  0  0  0  0  0  0  0  0
   -5.2517   -1.5226    2.0229 H   0  0  0  0  0  0  0  0  0  0  0  0
   -3.4653   -1.8868    0.5032 H   0  0  0  0  0  0  0  0  0  0  0  0
   -3.4343   -0.8502   -1.5703 H   0  0  0  0  0  0  0  0  0  0  0  0
   -3.7329    0.9099   -1.5568 H   0  0  0  0  0  0  0  0  0  0  0  0
   -2.1092    0.2967   -1.8638 H   0  0  0  0  0  0  0  0  0  0  0  0
  1  2  1  0
  2  3  1  0
  3  4  1  0
  3  5  1  0
  5  6  1  1
  5  7  1  0
  7  8  2  0
  7  9  1  0
  9 10  1  0
  5 11  1  0
 11 12  1  6
 11 13  1  0
 13 14  1  0
 14 15  1  0
 14 16  1  0
 16 17  1  1
 16 18  1  0
 18 19  1  0
 19 20  1  0
 20 21  1  0
 21 22  2  0
 22 23  1  0
 23 24  2  0
 23 25  1  0
 25 26  2  0
 26 27  1  0
 27 28  1  6
 11  1  1  0
 27 16  1  0
 18  1  1  0
 27 21  1  0
  1 29  1  1
  2 30  1  0
  2 31  1  0
  3 32  1  1
  4 33  1  0
  6 34  1  0
  9 35  1  0
  9 36  1  0
 10 37  1  0
 12 38  1  0
 12 39  1  0
 12 40  1  0
 13 41  1  0
 13 42  1  0
 14 43  1  1
 15 44  1  0
 18 45  1  6
 19 46  1  0
 19 47  1  0
 20 48  1  0
 20 49  1  0
 22 50  1  0
 25 51  1  0
 26 52  1  0
 28 53  1  0
 28 54  1  0
 28 55  1  0
M  END
$$$$
