
     RDKit          3D

 30 32  0  0  0  0  0  0  0  0999 V2000
   -1.4841   -2.8261   -0.5119 O   0  0  0  0  0  0  0  0  0  0  0  0
   -0.9655   -1.7130   -0.2571 C   0  0  0  0  0  0  0  0  0  0  0  0
    0.4117   -1.5746   -0.1716 C   0  0  0  0  0  0  0  0  0  0  0  0
    0.9464   -0.3491    0.1075 C   0  0  0  0  0  0  0  0  0  0  0  0
    2.3851   -0.1912    0.1995 C   0  0  0  0  0  0  0  0  0  0  0  0
    2.9369    1.0410    0.4807 C   0  0  0  0  0  0  0  0  0  0  0  0
    4.2987    1.2389    0.5780 C   0  0  0  0  0  0  0  0  0  0  0  0
    5.1646    0.1577    0.3866 C   0  0  0  0  0  0  0  0  0  0  0  0
    4.6228   -1.0807    0.1045 C   0  0  0  0  0  0  0  0  0  0  0  0
    3.2357   -1.2414    0.0140 C   0  0  0  0  0  0  0  0  0  0  0  0
    0.1434    0.6941    0.2935 O   0  0  0  0  0  0  0  0  0  0  0  0
   -1.1606    0.6238    0.2254 C   0  0  0  0  0  0  0  0  0  0  0  0
   -1.9429    1.7701    0.4339 C   0  0  0  0  0  0  0  0  0  0  0  0
   -3.3156    1.7141    0.3660 C   0  0  0  0  0  0  0  0  0  0  0  0
   -4.0936    2.8528    0.5731 O   0  0  0  0  0  0  0  0  0  0  0  0
   -3.8885    0.4909    0.0858 C   0  0  0  0  0  0  0  0  0  0  0  0
   -5.2631    0.4263    0.0159 O   0  0  0  0  0  0  0  0  0  0  0  0
   -3.1207   -0.6458   -0.1213 C   0  0  0  0  0  0  0  0  0  0  0  0
   -3.7153   -1.8712   -0.4029 O   0  0  0  0  0  0  0  0  0  0  0  0
   -1.7442   -0.5919   -0.0537 C   0  0  0  0  0  0  0  0  0  0  0  0
    0.9938   -2.4521   -0.3319 H   0  0  0  0  0  0  0  0  0  0  0  0
    2.3186    1.9309    0.6421 H   0  0  0  0  0  0  0  0  0  0  0  0
    4.7476    2.1979    0.7977 H   0  0  0  0  0  0  0  0  0  0  0  0
    6.2416    0.3146    0.4636 H   0  0  0  0  0  0  0  0  0  0  0  0
    5.2992   -1.9238   -0.0447 H   0  0  0  0  0  0  0  0  0  0  0  0
    2.9246   -2.2467   -0.2097 H   0  0  0  0  0  0  0  0  0  0  0  0
   -1.4451    2.7222    0.6541 H   0  0  0  0  0  0  0  0  0  0  0  0
   -4.9365    3.0178    0.0340 H   0  0  0  0  0  0  0  0  0  0  0  0
   -5.7707   -0.3921   -0.2668 H   0  0  0  0  0  0  0  0  0  0  0  0
   -3.8245   -2.0935   -1.3915 H   0  0  0  0  0  0  0  0  0  0  0  0
  1  2  2  0
  2  3  1  0
  3  4  2  0
  4  5  1  0
  5  6  2  0
  6  7  1  0
  7  8  2  0
  8  9  1  0
  9 10  2  0
  4 11  1  0
 11 12  1  0
 12 13  2  0
 13 14  1  0
 14 15  1  0
 14 16  2  0
 16 17  1  0
 16 18  1  0
 18 19  1  0
 18 20  2  0
 20  2  1  0
 10  5  1  0
 20 12  1  0
  3 21  1  0
  6 22  1  0
  7 23  1  0
  8 24  1  0
  9 25  1  0
 10 26  1  0
 13 27  1  0
 15 28  1  0
 17 29  1  0
 19 30  1  0
M  END
$$$$
