@<TRIPOS>MOLECULE
*****
 30 32 0 0 0
SMALL
GASTEIGER

@<TRIPOS>ATOM
      1 O          -1.4841   -2.8261   -0.5119 O.2     1  UNL1       -0.2869
      2 C          -0.9655   -1.7130   -0.2571 C.ar    1  UNL1        0.1967
      3 C           0.4117   -1.5746   -0.1716 C.ar    1  UNL1        0.0288
      4 C           0.9464   -0.3491    0.1075 C.ar    1  UNL1        0.1392
      5 C           2.3851   -0.1912    0.1995 C.ar    1  UNL1        0.0174
      6 C           2.9369    1.0410    0.4807 C.ar    1  UNL1       -0.0511
      7 C           4.2987    1.2389    0.5780 C.ar    1  UNL1       -0.0611
      8 C           5.1646    0.1577    0.3866 C.ar    1  UNL1       -0.0617
      9 C           4.6228   -1.0807    0.1045 C.ar    1  UNL1       -0.0611
     10 C           3.2357   -1.2414    0.0140 C.ar    1  UNL1       -0.0511
     11 O           0.1434    0.6941    0.2935 O.2     1  UNL1       -0.4544
     12 C          -1.1606    0.6238    0.2254 C.ar    1  UNL1        0.1465
     13 C          -1.9429    1.7701    0.4339 C.ar    1  UNL1        0.0268
     14 C          -3.3156    1.7141    0.3660 C.ar    1  UNL1        0.1655
     15 O          -4.0936    2.8528    0.5731 O.3     1  UNL1       -0.5031
     16 C          -3.8885    0.4909    0.0858 C.ar    1  UNL1        0.2015
     17 O          -5.2631    0.4263    0.0159 O.3     1  UNL1       -0.5009
     18 C          -3.1207   -0.6458   -0.1213 C.ar    1  UNL1        0.1766
     19 O          -3.7153   -1.8712   -0.4029 O.3     1  UNL1       -0.5027
     20 C          -1.7442   -0.5919   -0.0537 C.ar    1  UNL1        0.1091
     21 H           0.9938   -2.4521   -0.3319 H       1  UNL1        0.0693
     22 H           2.3186    1.9309    0.6421 H       1  UNL1        0.0625
     23 H           4.7476    2.1979    0.7977 H       1  UNL1        0.0618
     24 H           6.2416    0.3146    0.4636 H       1  UNL1        0.0618
     25 H           5.2992   -1.9238   -0.0447 H       1  UNL1        0.0618
     26 H           2.9246   -2.2467   -0.2097 H       1  UNL1        0.0625
     27 H          -1.4451    2.7222    0.6541 H       1  UNL1        0.0692
     28 H          -4.9365    3.0178    0.0340 H       1  UNL1        0.2923
     29 H          -5.7707   -0.3921   -0.2668 H       1  UNL1        0.2924
     30 H          -3.8245   -2.0935   -1.3915 H       1  UNL1        0.2923
@<TRIPOS>BOND
     1     1     2    2
     2     2     3   ar
     3     3     4   ar
     4     4     5    1
     5     5     6   ar
     6     6     7   ar
     7     7     8   ar
     8     8     9   ar
     9     9    10   ar
    10     4    11   ar
    11    11    12   ar
    12    12    13   ar
    13    13    14   ar
    14    14    15    1
    15    14    16   ar
    16    16    17    1
    17    16    18   ar
    18    18    19    1
    19    18    20   ar
    20    20     2   ar
    21    10     5   ar
    22    20    12   ar
    23     3    21    1
    24     6    22    1
    25     7    23    1
    26     8    24    1
    27     9    25    1
    28    10    26    1
    29    13    27    1
    30    15    28    1
    31    17    29    1
    32    19    30    1
