@<TRIPOS>MOLECULE
*****
 48 51 0 0 0
SMALL
GASTEIGER

@<TRIPOS>ATOM
      1 O          -7.8113    0.2018    1.0998 O.2     1  UNL1       -0.2681
      2 C          -6.9101   -0.0945    0.2616 C.2     1  UNL1        0.2665
      3 N          -7.2956   -0.9489   -0.7949 N.am    1  UNL1       -0.1935
      4 O          -8.5871   -1.4208   -0.8869 O.3     1  UNL1       -0.2949
      5 C          -5.5554    0.4456    0.4232 C.ar    1  UNL1        0.0390
      6 C          -5.2691    1.2774    1.4923 C.ar    1  UNL1       -0.0493
      7 C          -4.0098    1.8081    1.6838 C.ar    1  UNL1       -0.0575
      8 C          -2.9842    1.5256    0.8091 C.ar    1  UNL1       -0.0417
      9 C          -3.2614    0.6995   -0.2559 C.ar    1  UNL1       -0.0294
     10 C          -4.5306    0.1650   -0.4483 C.ar    1  UNL1       -0.0449
     11 C          -2.1835    0.3831   -1.2083 C.3     1  UNL1        0.0248
     12 N          -0.8714    0.3258   -0.6631 N.3     1  UNL1       -0.2907
     13 C          -0.2666   -0.9871   -0.7708 C.3     1  UNL1        0.0574
     14 C           1.0975   -0.9523   -0.1852 C.ar    1  UNL1        0.1197
     15 C           1.4503   -1.2091    1.1174 C.ar    1  UNL1       -0.0188
     16 C           2.8156   -1.0612    1.2142 C.ar    1  UNL1       -0.0156
     17 C           3.2467   -0.7127   -0.0628 C.ar    1  UNL1        0.1355
     18 C           4.6454   -0.4648   -0.3812 C.ar    1  UNL1        0.0237
     19 C           5.0356   -0.1201   -1.6637 C.ar    1  UNL1       -0.0507
     20 C           6.3573    0.1186   -1.9838 C.ar    1  UNL1       -0.0547
     21 C           7.3383    0.0195   -1.0249 C.ar    1  UNL1        0.0156
     22 C           6.9764   -0.3228    0.2626 C.ar    1  UNL1        0.2738
     23 N           7.9799   -0.4305    1.2714 N.pl3   1  UNL1        0.0796
     24 O           7.6708   -0.7354    2.4252 O.2     1  UNL1        0.0414
     25 O           9.2913   -0.1965    0.9661 O.co2   1  UNL1       -0.5760
     26 C           5.6466   -0.5574    0.5606 C.ar    1  UNL1        0.0262
     27 O           2.2125   -0.6597   -0.8508 O.2     1  UNL1       -0.4584
     28 C          -0.6888    0.8728    0.6389 C.3     1  UNL1        0.0036
     29 C          -1.6011    2.0445    0.9318 C.3     1  UNL1       -0.0145
     30 H          -6.5816   -1.2139   -1.5025 H       1  UNL1        0.1825
     31 H          -8.4922   -2.3161   -1.3330 H       1  UNL1        0.2414
     32 H          -6.0810    1.5006    2.1839 H       1  UNL1        0.0625
     33 H          -3.7796    2.4651    2.5262 H       1  UNL1        0.0621
     34 H          -4.7370   -0.4819   -1.2872 H       1  UNL1        0.0628
     35 H          -2.1920    1.1660   -2.0004 H       1  UNL1        0.0476
     36 H          -2.3903   -0.6119   -1.6959 H       1  UNL1        0.0476
     37 H          -0.8500   -1.7346   -0.1773 H       1  UNL1        0.0507
     38 H          -0.2104   -1.3303   -1.8172 H       1  UNL1        0.0507
     39 H           0.7657   -1.4763    1.9027 H       1  UNL1        0.0652
     40 H           3.4033   -1.1952    2.1121 H       1  UNL1        0.0655
     41 H           4.2552   -0.0422   -2.4230 H       1  UNL1        0.0625
     42 H           6.6515    0.3880   -2.9921 H       1  UNL1        0.0620
     43 H           8.3949    0.2032   -1.2497 H       1  UNL1        0.0685
     44 H           5.3826   -0.8259    1.5812 H       1  UNL1        0.0692
     45 H           0.3443    1.2088    0.7963 H       1  UNL1        0.0430
     46 H          -0.9756    0.0824    1.3789 H       1  UNL1        0.0430
     47 H          -1.4459    2.8173    0.1612 H       1  UNL1        0.0326
     48 H          -1.4001    2.3833    1.9532 H       1  UNL1        0.0326
@<TRIPOS>UNITY_ATOM_ATTR
23 1
charge 1
25 1
charge -1
@<TRIPOS>BOND
     1     1     2    2
     2     2     3   am
     3     3     4    1
     4     2     5    1
     5     5     6   ar
     6     6     7   ar
     7     7     8   ar
     8     8     9   ar
     9     9    10   ar
    10     9    11    1
    11    11    12    1
    12    12    13    1
    13    13    14    1
    14    14    15   ar
    15    15    16   ar
    16    16    17   ar
    17    17    18    1
    18    18    19   ar
    19    19    20   ar
    20    20    21   ar
    21    21    22   ar
    22    22    23    1
    23    23    24    2
    24    23    25    1
    25    22    26   ar
    26    17    27   ar
    27    12    28    1
    28    28    29    1
    29    10     5   ar
    30    27    14   ar
    31    29     8    1
    32    26    18   ar
    33     3    30    1
    34     4    31    1
    35     6    32    1
    36     7    33    1
    37    10    34    1
    38    11    35    1
    39    11    36    1
    40    13    37    1
    41    13    38    1
    42    15    39    1
    43    16    40    1
    44    19    41    1
    45    20    42    1
    46    21    43    1
    47    26    44    1
    48    28    45    1
    49    28    46    1
    50    29    47    1
    51    29    48    1
