
     RDKit          3D

 48 51  0  0  0  0  0  0  0  0999 V2000
   -7.8113    0.2018    1.0998 O   0  0  0  0  0  0  0  0  0  0  0  0
   -6.9101   -0.0945    0.2616 C   0  0  0  0  0  0  0  0  0  0  0  0
   -7.2956   -0.9489   -0.7949 N   0  0  0  0  0  0  0  0  0  0  0  0
   -8.5871   -1.4208   -0.8869 O   0  0  0  0  0  0  0  0  0  0  0  0
   -5.5554    0.4456    0.4232 C   0  0  0  0  0  0  0  0  0  0  0  0
   -5.2691    1.2774    1.4923 C   0  0  0  0  0  0  0  0  0  0  0  0
   -4.0098    1.8081    1.6838 C   0  0  0  0  0  0  0  0  0  0  0  0
   -2.9842    1.5256    0.8091 C   0  0  0  0  0  0  0  0  0  0  0  0
   -3.2614    0.6995   -0.2559 C   0  0  0  0  0  0  0  0  0  0  0  0
   -4.5306    0.1650   -0.4483 C   0  0  0  0  0  0  0  0  0  0  0  0
   -2.1835    0.3831   -1.2083 C   0  0  0  0  0  0  0  0  0  0  0  0
   -0.8714    0.3258   -0.6631 N   0  0  0  0  0  0  0  0  0  0  0  0
   -0.2666   -0.9871   -0.7708 C   0  0  0  0  0  0  0  0  0  0  0  0
    1.0975   -0.9523   -0.1852 C   0  0  0  0  0  0  0  0  0  0  0  0
    1.4503   -1.2091    1.1174 C   0  0  0  0  0  0  0  0  0  0  0  0
    2.8156   -1.0612    1.2142 C   0  0  0  0  0  0  0  0  0  0  0  0
    3.2467   -0.7127   -0.0628 C   0  0  0  0  0  0  0  0  0  0  0  0
    4.6454   -0.4648   -0.3812 C   0  0  0  0  0  0  0  0  0  0  0  0
    5.0356   -0.1201   -1.6637 C   0  0  0  0  0  0  0  0  0  0  0  0
    6.3573    0.1186   -1.9838 C   0  0  0  0  0  0  0  0  0  0  0  0
    7.3383    0.0195   -1.0249 C   0  0  0  0  0  0  0  0  0  0  0  0
    6.9764   -0.3228    0.2626 C   0  0  0  0  0  0  0  0  0  0  0  0
    7.9799   -0.4305    1.2714 N   0  0  0  0  0  4  0  0  0  0  0  0
    7.6708   -0.7354    2.4252 O   0  0  0  0  0  0  0  0  0  0  0  0
    9.2913   -0.1965    0.9661 O   0  0  0  0  0  1  0  0  0  0  0  0
    5.6466   -0.5574    0.5606 C   0  0  0  0  0  0  0  0  0  0  0  0
    2.2125   -0.6597   -0.8508 O   0  0  0  0  0  0  0  0  0  0  0  0
   -0.6888    0.8728    0.6389 C   0  0  0  0  0  0  0  0  0  0  0  0
   -1.6011    2.0445    0.9318 C   0  0  0  0  0  0  0  0  0  0  0  0
   -6.5816   -1.2139   -1.5025 H   0  0  0  0  0  0  0  0  0  0  0  0
   -8.4922   -2.3161   -1.3330 H   0  0  0  0  0  0  0  0  0  0  0  0
   -6.0810    1.5006    2.1839 H   0  0  0  0  0  0  0  0  0  0  0  0
   -3.7796    2.4651    2.5262 H   0  0  0  0  0  0  0  0  0  0  0  0
   -4.7370   -0.4819   -1.2872 H   0  0  0  0  0  0  0  0  0  0  0  0
   -2.1920    1.1660   -2.0004 H   0  0  0  0  0  0  0  0  0  0  0  0
   -2.3903   -0.6119   -1.6959 H   0  0  0  0  0  0  0  0  0  0  0  0
   -0.8500   -1.7346   -0.1773 H   0  0  0  0  0  0  0  0  0  0  0  0
   -0.2104   -1.3303   -1.8172 H   0  0  0  0  0  0  0  0  0  0  0  0
    0.7657   -1.4763    1.9027 H   0  0  0  0  0  0  0  0  0  0  0  0
    3.4033   -1.1952    2.1121 H   0  0  0  0  0  0  0  0  0  0  0  0
    4.2552   -0.0422   -2.4230 H   0  0  0  0  0  0  0  0  0  0  0  0
    6.6515    0.3880   -2.9921 H   0  0  0  0  0  0  0  0  0  0  0  0
    8.3949    0.2032   -1.2497 H   0  0  0  0  0  0  0  0  0  0  0  0
    5.3826   -0.8259    1.5812 H   0  0  0  0  0  0  0  0  0  0  0  0
    0.3443    1.2088    0.7963 H   0  0  0  0  0  0  0  0  0  0  0  0
   -0.9756    0.0824    1.3789 H   0  0  0  0  0  0  0  0  0  0  0  0
   -1.4459    2.8173    0.1612 H   0  0  0  0  0  0  0  0  0  0  0  0
   -1.4001    2.3833    1.9532 H   0  0  0  0  0  0  0  0  0  0  0  0
  1  2  2  0
  2  3  1  0
  3  4  1  0
  2  5  1  0
  5  6  2  0
  6  7  1  0
  7  8  2  0
  8  9  1  0
  9 10  2  0
  9 11  1  0
 11 12  1  0
 12 13  1  0
 13 14  1  0
 14 15  2  0
 15 16  1  0
 16 17  2  0
 17 18  1  0
 18 19  2  0
 19 20  1  0
 20 21  2  0
 21 22  1  0
 22 23  1  0
 23 24  2  0
 23 25  1  0
 22 26  2  0
 17 27  1  0
 12 28  1  0
 28 29  1  0
 10  5  1  0
 27 14  1  0
 29  8  1  0
 26 18  1  0
  3 30  1  0
  4 31  1  0
  6 32  1  0
  7 33  1  0
 10 34  1  0
 11 35  1  0
 11 36  1  0
 13 37  1  0
 13 38  1  0
 15 39  1  0
 16 40  1  0
 19 41  1  0
 20 42  1  0
 21 43  1  0
 26 44  1  0
 28 45  1  0
 28 46  1  0
 29 47  1  0
 29 48  1  0
M  CHG  2  23   1  25  -1
M  END
$$$$
