@<TRIPOS>MOLECULE
*****
 36 38 0 0 0
SMALL
GASTEIGER

@<TRIPOS>ATOM
      1 C          -4.8686    1.0628   -1.2264 C.3     1  UNL1       -0.0388
      2 C          -4.0417    0.2852   -0.2421 C.ar    1  UNL1       -0.0330
      3 C          -4.6865   -0.4269    0.7470 C.ar    1  UNL1        0.0265
      4 C          -3.9051   -1.1314    1.6368 C.ar    1  UNL1        0.3375
      5 O          -4.4218   -1.8137    2.5783 O.2     1  UNL1       -0.2452
      6 O          -2.6113   -1.1258    1.5482 O.2     1  UNL1       -0.4217
      7 C          -1.9569   -0.4541    0.6123 C.ar    1  UNL1        0.1457
      8 C          -0.5515   -0.4805    0.5594 C.ar    1  UNL1        0.0341
      9 C           0.1608   -1.2681    1.5643 C.3     1  UNL1       -0.0327
     10 C           0.1435    0.2040   -0.3961 C.ar    1  UNL1        0.1279
     11 O           1.4531    0.2304   -0.5133 O.3     1  UNL1       -0.4810
     12 C           2.6140   -0.2017   -0.0104 C.3     1  UNL1        0.1576
     13 C           3.4478    1.0242    0.4315 C.3     1  UNL1       -0.0083
     14 C           4.8742    0.5842    0.3402 C.3     1  UNL1       -0.0425
     15 C           4.9268   -0.5959   -0.6014 C.3     1  UNL1        0.0097
     16 C           3.5466   -0.7101   -1.0889 C.2     1  UNL1        0.1735
     17 O           3.2001   -1.1355   -2.1648 O.2     1  UNL1       -0.2935
     18 C          -0.6218    0.9375   -1.3254 C.ar    1  UNL1       -0.0188
     19 C          -1.9963    0.9644   -1.2752 C.ar    1  UNL1       -0.0474
     20 C          -2.6777    0.2653   -0.3010 C.ar    1  UNL1        0.0210
     21 H          -4.8642    0.5537   -2.2151 H       1  UNL1        0.0278
     22 H          -4.4693    2.1143   -1.3118 H       1  UNL1        0.0278
     23 H          -5.8943    1.1794   -0.8229 H       1  UNL1        0.0278
     24 H          -5.7733   -0.4488    0.8443 H       1  UNL1        0.0692
     25 H          -0.6161   -1.7433    2.2445 H       1  UNL1        0.0280
     26 H           0.7031   -2.1498    1.1635 H       1  UNL1        0.0280
     27 H           0.7722   -0.6762    2.2724 H       1  UNL1        0.0280
     28 H           2.6443   -0.8626    0.8683 H       1  UNL1        0.0814
     29 H           3.2732    1.8221   -0.3218 H       1  UNL1        0.0305
     30 H           3.1622    1.3301    1.4591 H       1  UNL1        0.0305
     31 H           5.5498    1.3725   -0.0599 H       1  UNL1        0.0271
     32 H           5.2886    0.2382    1.3092 H       1  UNL1        0.0271
     33 H           5.2235   -1.5382   -0.0776 H       1  UNL1        0.0343
     34 H           5.6728   -0.4352   -1.4021 H       1  UNL1        0.0343
     35 H          -0.1132    1.4935   -2.0981 H       1  UNL1        0.0654
     36 H          -2.5868    1.5360   -1.9998 H       1  UNL1        0.0626
@<TRIPOS>BOND
     1     1     2    1
     2     2     3   ar
     3     3     4   ar
     4     4     5    2
     5     4     6   ar
     6     6     7   ar
     7     7     8   ar
     8     8     9    1
     9     8    10   ar
    10    10    11    1
    11    11    12    1
    12    12    13    1
    13    13    14    1
    14    14    15    1
    15    15    16    1
    16    16    17    2
    17    10    18   ar
    18    18    19   ar
    19    19    20   ar
    20    20     2   ar
    21    20     7   ar
    22    16    12    1
    23     1    21    1
    24     1    22    1
    25     1    23    1
    26     3    24    1
    27     9    25    1
    28     9    26    1
    29     9    27    1
    30    12    28    1
    31    13    29    1
    32    13    30    1
    33    14    31    1
    34    14    32    1
    35    15    33    1
    36    15    34    1
    37    18    35    1
    38    19    36    1
