@<TRIPOS>MOLECULE
*****
 49 51 0 0 0
SMALL
GASTEIGER

@<TRIPOS>ATOM
      1 C           1.5422   -1.1418   -3.5261 C.3     1  UNL1        0.0788
      2 O           2.2330   -1.0651   -2.3080 O.3     1  UNL1       -0.4948
      3 C           1.5306   -0.6927   -1.1434 C.ar    1  UNL1        0.1253
      4 C           0.1745   -0.4099   -1.2190 C.ar    1  UNL1       -0.0084
      5 C          -0.5561   -0.0418   -0.1115 C.ar    1  UNL1        0.0292
      6 C          -1.9804    0.2629   -0.1560 C.ar    1  UNL1        0.0099
      7 C          -2.4515    1.5392   -0.3988 C.ar    1  UNL1        0.0160
      8 N          -3.7789    1.8028   -0.4377 N.ar    1  UNL1       -0.3171
      9 C          -4.1633    3.1728   -0.7016 C.3     1  UNL1        0.0147
     10 C          -4.7038    0.8469   -0.2441 C.ar    1  UNL1        0.2603
     11 O          -5.9158    1.1777   -0.2973 O.2     1  UNL1       -0.2670
     12 C          -4.2978   -0.4457    0.0025 C.ar    1  UNL1        0.0653
     13 C          -5.2601   -1.4081    0.1974 C.ar    1  UNL1        0.0405
     14 N          -4.8500   -2.6638    0.4361 N.ar    1  UNL1       -0.2625
     15 C          -3.5209   -2.9643    0.4819 C.ar    1  UNL1        0.0282
     16 C          -2.5429   -2.0089    0.2885 C.ar    1  UNL1       -0.0351
     17 C          -2.9388   -0.7209    0.0432 C.ar    1  UNL1       -0.0006
     18 C           0.1328    0.0328    1.0882 C.ar    1  UNL1        0.1284
     19 O          -0.5916    0.4012    2.2068 O.3     1  UNL1       -0.4945
     20 C           0.0844    0.4862    3.4456 C.3     1  UNL1        0.0788
     21 C           1.4776   -0.2450    1.1778 C.ar    1  UNL1       -0.0115
     22 C           2.1890   -0.6105    0.0610 C.ar    1  UNL1        0.0117
     23 C           3.6343   -0.8974    0.2093 C.3     1  UNL1        0.0270
     24 N           4.4783    0.1778   -0.2754 N.3     1  UNL1       -0.3041
     25 C           4.2282    1.4135    0.4506 C.3     1  UNL1       -0.0127
     26 C           5.8528   -0.2239   -0.0151 C.3     1  UNL1       -0.0127
     27 H           1.1369   -0.1409   -3.8329 H       1  UNL1        0.0660
     28 H           0.7256   -1.9079   -3.4993 H       1  UNL1        0.0660
     29 H           2.2551   -1.5040   -4.2953 H       1  UNL1        0.0660
     30 H          -0.3302   -0.4775   -2.1644 H       1  UNL1        0.0661
     31 H          -1.6995    2.3061   -0.5536 H       1  UNL1        0.0816
     32 H          -5.1063    3.4269   -0.1740 H       1  UNL1        0.0457
     33 H          -4.3560    3.2494   -1.7971 H       1  UNL1        0.0457
     34 H          -3.3552    3.8821   -0.4581 H       1  UNL1        0.0457
     35 H          -6.3215   -1.2226    0.1696 H       1  UNL1        0.0837
     36 H          -3.2635   -3.9900    0.6770 H       1  UNL1        0.0830
     37 H          -1.4829   -2.2403    0.3235 H       1  UNL1        0.0639
     38 H           0.9130    1.2121    3.3090 H       1  UNL1        0.0660
     39 H          -0.6422    0.8101    4.2040 H       1  UNL1        0.0660
     40 H           0.5565   -0.4876    3.6908 H       1  UNL1        0.0660
     41 H           1.9498   -0.1636    2.1621 H       1  UNL1        0.0658
     42 H           3.9403   -1.8054   -0.3480 H       1  UNL1        0.0477
     43 H           3.8948   -1.0834    1.2747 H       1  UNL1        0.0477
     44 H           3.1960    1.7770    0.2778 H       1  UNL1        0.0391
     45 H           4.4038    1.2377    1.5494 H       1  UNL1        0.0391
     46 H           4.9199    2.1797    0.0938 H       1  UNL1        0.0391
     47 H           6.0388   -0.2742    1.0766 H       1  UNL1        0.0391
     48 H           6.1292   -1.1500   -0.5308 H       1  UNL1        0.0391
     49 H           6.4918    0.5921   -0.4099 H       1  UNL1        0.0391
@<TRIPOS>BOND
     1     1     2    1
     2     2     3    1
     3     3     4   ar
     4     4     5   ar
     5     5     6    1
     6     6     7   ar
     7     7     8   ar
     8     8     9    1
     9     8    10   ar
    10    10    11    2
    11    10    12   ar
    12    12    13   ar
    13    13    14   ar
    14    14    15   ar
    15    15    16   ar
    16    16    17   ar
    17     5    18   ar
    18    18    19    1
    19    19    20    1
    20    18    21   ar
    21    21    22   ar
    22    22    23    1
    23    23    24    1
    24    24    25    1
    25    24    26    1
    26    22     3   ar
    27    17     6   ar
    28    17    12   ar
    29     1    27    1
    30     1    28    1
    31     1    29    1
    32     4    30    1
    33     7    31    1
    34     9    32    1
    35     9    33    1
    36     9    34    1
    37    13    35    1
    38    15    36    1
    39    16    37    1
    40    20    38    1
    41    20    39    1
    42    20    40    1
    43    21    41    1
    44    23    42    1
    45    23    43    1
    46    25    44    1
    47    25    45    1
    48    25    46    1
    49    26    47    1
    50    26    48    1
    51    26    49    1
