
     RDKit          3D

 49 51  0  0  0  0  0  0  0  0999 V2000
    1.5422   -1.1418   -3.5261 C   0  0  0  0  0  0  0  0  0  0  0  0
    2.2330   -1.0651   -2.3080 O   0  0  0  0  0  0  0  0  0  0  0  0
    1.5306   -0.6927   -1.1434 C   0  0  0  0  0  0  0  0  0  0  0  0
    0.1745   -0.4099   -1.2190 C   0  0  0  0  0  0  0  0  0  0  0  0
   -0.5561   -0.0418   -0.1115 C   0  0  0  0  0  0  0  0  0  0  0  0
   -1.9804    0.2629   -0.1560 C   0  0  0  0  0  0  0  0  0  0  0  0
   -2.4515    1.5392   -0.3988 C   0  0  0  0  0  0  0  0  0  0  0  0
   -3.7789    1.8028   -0.4377 N   0  0  0  0  0  0  0  0  0  0  0  0
   -4.1633    3.1728   -0.7016 C   0  0  0  0  0  0  0  0  0  0  0  0
   -4.7038    0.8469   -0.2441 C   0  0  0  0  0  0  0  0  0  0  0  0
   -5.9158    1.1777   -0.2973 O   0  0  0  0  0  0  0  0  0  0  0  0
   -4.2978   -0.4457    0.0025 C   0  0  0  0  0  0  0  0  0  0  0  0
   -5.2601   -1.4081    0.1974 C   0  0  0  0  0  0  0  0  0  0  0  0
   -4.8500   -2.6638    0.4361 N   0  0  0  0  0  0  0  0  0  0  0  0
   -3.5209   -2.9643    0.4819 C   0  0  0  0  0  0  0  0  0  0  0  0
   -2.5429   -2.0089    0.2885 C   0  0  0  0  0  0  0  0  0  0  0  0
   -2.9388   -0.7209    0.0432 C   0  0  0  0  0  0  0  0  0  0  0  0
    0.1328    0.0328    1.0882 C   0  0  0  0  0  0  0  0  0  0  0  0
   -0.5916    0.4012    2.2068 O   0  0  0  0  0  0  0  0  0  0  0  0
    0.0844    0.4862    3.4456 C   0  0  0  0  0  0  0  0  0  0  0  0
    1.4776   -0.2450    1.1778 C   0  0  0  0  0  0  0  0  0  0  0  0
    2.1890   -0.6105    0.0610 C   0  0  0  0  0  0  0  0  0  0  0  0
    3.6343   -0.8974    0.2093 C   0  0  0  0  0  0  0  0  0  0  0  0
    4.4783    0.1778   -0.2754 N   0  0  0  0  0  0  0  0  0  0  0  0
    4.2282    1.4135    0.4506 C   0  0  0  0  0  0  0  0  0  0  0  0
    5.8528   -0.2239   -0.0151 C   0  0  0  0  0  0  0  0  0  0  0  0
    1.1369   -0.1409   -3.8329 H   0  0  0  0  0  0  0  0  0  0  0  0
    0.7256   -1.9079   -3.4993 H   0  0  0  0  0  0  0  0  0  0  0  0
    2.2551   -1.5040   -4.2953 H   0  0  0  0  0  0  0  0  0  0  0  0
   -0.3302   -0.4775   -2.1644 H   0  0  0  0  0  0  0  0  0  0  0  0
   -1.6995    2.3061   -0.5536 H   0  0  0  0  0  0  0  0  0  0  0  0
   -5.1063    3.4269   -0.1740 H   0  0  0  0  0  0  0  0  0  0  0  0
   -4.3560    3.2494   -1.7971 H   0  0  0  0  0  0  0  0  0  0  0  0
   -3.3552    3.8821   -0.4581 H   0  0  0  0  0  0  0  0  0  0  0  0
   -6.3215   -1.2226    0.1696 H   0  0  0  0  0  0  0  0  0  0  0  0
   -3.2635   -3.9900    0.6770 H   0  0  0  0  0  0  0  0  0  0  0  0
   -1.4829   -2.2403    0.3235 H   0  0  0  0  0  0  0  0  0  0  0  0
    0.9130    1.2121    3.3090 H   0  0  0  0  0  0  0  0  0  0  0  0
   -0.6422    0.8101    4.2040 H   0  0  0  0  0  0  0  0  0  0  0  0
    0.5565   -0.4876    3.6908 H   0  0  0  0  0  0  0  0  0  0  0  0
    1.9498   -0.1636    2.1621 H   0  0  0  0  0  0  0  0  0  0  0  0
    3.9403   -1.8054   -0.3480 H   0  0  0  0  0  0  0  0  0  0  0  0
    3.8948   -1.0834    1.2747 H   0  0  0  0  0  0  0  0  0  0  0  0
    3.1960    1.7770    0.2778 H   0  0  0  0  0  0  0  0  0  0  0  0
    4.4038    1.2377    1.5494 H   0  0  0  0  0  0  0  0  0  0  0  0
    4.9199    2.1797    0.0938 H   0  0  0  0  0  0  0  0  0  0  0  0
    6.0388   -0.2742    1.0766 H   0  0  0  0  0  0  0  0  0  0  0  0
    6.1292   -1.1500   -0.5308 H   0  0  0  0  0  0  0  0  0  0  0  0
    6.4918    0.5921   -0.4099 H   0  0  0  0  0  0  0  0  0  0  0  0
  1  2  1  0
  2  3  1  0
  3  4  2  0
  4  5  1  0
  5  6  1  0
  6  7  2  0
  7  8  1  0
  8  9  1  0
  8 10  1  0
 10 11  2  0
 10 12  1  0
 12 13  2  0
 13 14  1  0
 14 15  2  0
 15 16  1  0
 16 17  2  0
  5 18  2  0
 18 19  1  0
 19 20  1  0
 18 21  1  0
 21 22  2  0
 22 23  1  0
 23 24  1  0
 24 25  1  0
 24 26  1  0
 22  3  1  0
 17  6  1  0
 17 12  1  0
  1 27  1  0
  1 28  1  0
  1 29  1  0
  4 30  1  0
  7 31  1  0
  9 32  1  0
  9 33  1  0
  9 34  1  0
 13 35  1  0
 15 36  1  0
 16 37  1  0
 20 38  1  0
 20 39  1  0
 20 40  1  0
 21 41  1  0
 23 42  1  0
 23 43  1  0
 25 44  1  0
 25 45  1  0
 25 46  1  0
 26 47  1  0
 26 48  1  0
 26 49  1  0
M  END
$$$$
