@<TRIPOS>MOLECULE
*****
 68 72 0 0 0
SMALL
GASTEIGER

@<TRIPOS>ATOM
      1 C           5.9587   -3.9878    1.6576 C.3     1  UNL1        0.0788
      2 O           5.0354   -2.9966    1.2091 O.3     1  UNL1       -0.4944
      3 C           5.5158   -2.0163    0.3523 C.ar    1  UNL1        0.1316
      4 C           6.8326   -1.9800   -0.0646 C.ar    1  UNL1       -0.0192
      5 C           7.2772   -0.9912   -0.9168 C.ar    1  UNL1       -0.0576
      6 C           6.4006   -0.0259   -1.3603 C.ar    1  UNL1       -0.0500
      7 C           5.0848   -0.0570   -0.9475 C.ar    1  UNL1        0.0367
      8 C           4.6454   -1.0553   -0.0898 C.ar    1  UNL1        0.0748
      9 C           3.2541   -1.1108    0.3633 C.2     1  UNL1        0.2016
     10 O           2.8716   -2.0397    1.1537 O.2     1  UNL1       -0.2864
     11 C           2.3413   -0.0899   -0.1098 C.ar    1  UNL1        0.0784
     12 C           1.0221   -0.1653    0.3368 C.ar    1  UNL1        0.1345
     13 O           0.6088   -1.1704    1.1936 O.3     1  UNL1       -0.5057
     14 C           0.1485    0.7835   -0.0951 C.ar    1  UNL1        0.0302
     15 C           0.6019    1.7879   -0.9599 C.ar    1  UNL1        0.0070
     16 C           1.8892    1.8583   -1.3937 C.ar    1  UNL1        0.1322
     17 O           2.3143    2.8658   -2.2531 O.3     1  UNL1       -0.5057
     18 C           2.7723    0.9037   -0.9614 C.ar    1  UNL1        0.0782
     19 C           4.1421    0.9623   -1.4104 C.2     1  UNL1        0.1982
     20 O           4.5101    1.8842   -2.1912 O.2     1  UNL1       -0.2865
     21 C          -0.4320    2.7790   -1.3508 C.3     1  UNL1        0.0123
     22 C          -1.1423    3.3498   -0.1399 C.3     1  UNL1        0.1325
     23 O          -0.2961    4.2221    0.5251 O.3     1  UNL1       -0.3806
     24 C          -2.3743    4.0246   -0.6371 C.2     1  UNL1        0.1900
     25 O          -3.1764    3.3287   -1.2361 O.2     1  UNL1       -0.2919
     26 C          -2.6275    5.4750   -0.4210 C.3     1  UNL1        0.1051
     27 O          -1.5800    6.0511    0.2814 O.3     1  UNL1       -0.3874
     28 C          -1.5918    2.2701    0.8170 C.3     1  UNL1        0.0141
     29 C          -1.2786    0.8845    0.2533 C.3     1  UNL1        0.0934
     30 O          -1.6512   -0.0940    1.1190 O.3     1  UNL1       -0.3432
     31 C          -2.7038   -0.8530    0.6055 C.3     1  UNL1        0.1618
     32 C          -2.3007   -2.2741    0.5182 C.3     1  UNL1        0.0161
     33 C          -3.4505   -3.2309    0.3197 C.3     1  UNL1        0.0382
     34 N          -3.8116   -3.3935   -1.0520 N.3     1  UNL1       -0.3249
     35 C          -4.5820   -2.8064    1.2105 C.3     1  UNL1        0.0963
     36 O          -5.7276   -3.5800    1.0043 O.3     1  UNL1       -0.3877
     37 C          -4.8944   -1.3420    1.1356 C.3     1  UNL1        0.0861
     38 C          -5.4454   -0.9212   -0.1947 C.3     1  UNL1       -0.0361
     39 O          -3.7729   -0.6301    1.4778 O.3     1  UNL1       -0.3457
     40 H           6.8792   -3.5505    2.0593 H       1  UNL1        0.0660
     41 H           5.5163   -4.6253    2.4491 H       1  UNL1        0.0660
     42 H           6.1683   -4.6794    0.8009 H       1  UNL1        0.0660
     43 H           7.5154   -2.7388    0.2859 H       1  UNL1        0.0654
     44 H           8.3277   -0.9712   -1.2430 H       1  UNL1        0.0619
     45 H           6.6979    0.7667   -2.0259 H       1  UNL1        0.0625
     46 H           0.5595   -2.1408    0.9121 H       1  UNL1        0.2922
     47 H           2.7677    3.6651   -1.8405 H       1  UNL1        0.2922
     48 H          -1.1868    2.3816   -2.0281 H       1  UNL1        0.0347
     49 H           0.0989    3.6249   -1.8357 H       1  UNL1        0.0347
     50 H          -0.3979    4.1895    1.5112 H       1  UNL1        0.2108
     51 H          -2.6631    5.9489   -1.4223 H       1  UNL1        0.0637
     52 H          -3.5940    5.6525    0.0566 H       1  UNL1        0.0637
     53 H          -0.9094    6.4131   -0.3578 H       1  UNL1        0.2100
     54 H          -1.0578    2.3462    1.7815 H       1  UNL1        0.0326
     55 H          -2.6765    2.2870    1.0266 H       1  UNL1        0.0326
     56 H          -1.8895    0.7753   -0.6838 H       1  UNL1        0.0649
     57 H          -2.9645   -0.4602   -0.4036 H       1  UNL1        0.0910
     58 H          -1.7429   -2.5742    1.4294 H       1  UNL1        0.0330
     59 H          -1.6163   -2.3959   -0.3466 H       1  UNL1        0.0330
     60 H          -3.0975   -4.2276    0.6929 H       1  UNL1        0.0486
     61 H          -3.2685   -2.8293   -1.7246 H       1  UNL1        0.1186
     62 H          -4.8099   -3.4959   -1.2468 H       1  UNL1        0.1186
     63 H          -4.2620   -3.0170    2.2615 H       1  UNL1        0.0635
     64 H          -6.2782   -3.4724    1.8238 H       1  UNL1        0.2100
     65 H          -5.6721   -1.1303    1.8972 H       1  UNL1        0.0620
     66 H          -5.6350    0.1773   -0.1382 H       1  UNL1        0.0255
     67 H          -6.4066   -1.4356   -0.3955 H       1  UNL1        0.0255
     68 H          -4.7905   -1.1029   -1.0445 H       1  UNL1        0.0255
@<TRIPOS>BOND
     1     1     2    1
     2     2     3    1
     3     3     4   ar
     4     4     5   ar
     5     5     6   ar
     6     6     7   ar
     7     7     8   ar
     8     8     9    1
     9     9    10    2
    10     9    11    1
    11    11    12   ar
    12    12    13    1
    13    12    14   ar
    14    14    15   ar
    15    15    16   ar
    16    16    17    1
    17    16    18   ar
    18    18    19    1
    19    19    20    2
    20    15    21    1
    21    21    22    1
    22    22    23    1
    23    22    24    1
    24    24    25    2
    25    24    26    1
    26    26    27    1
    27    22    28    1
    28    28    29    1
    29    29    30    1
    30    30    31    1
    31    31    32    1
    32    32    33    1
    33    33    34    1
    34    33    35    1
    35    35    36    1
    36    35    37    1
    37    37    38    1
    38    37    39    1
    39     8     3   ar
    40    18    11   ar
    41    39    31    1
    42    19     7    1
    43    29    14    1
    44     1    40    1
    45     1    41    1
    46     1    42    1
    47     4    43    1
    48     5    44    1
    49     6    45    1
    50    13    46    1
    51    17    47    1
    52    21    48    1
    53    21    49    1
    54    23    50    1
    55    26    51    1
    56    26    52    1
    57    27    53    1
    58    28    54    1
    59    28    55    1
    60    29    56    1
    61    31    57    1
    62    32    58    1
    63    32    59    1
    64    33    60    1
    65    34    61    1
    66    34    62    1
    67    35    63    1
    68    36    64    1
    69    37    65    1
    70    38    66    1
    71    38    67    1
    72    38    68    1
