@<TRIPOS>MOLECULE
*****
 84 89 0 0 0
SMALL
GASTEIGER

@<TRIPOS>ATOM
      1 C          -3.0511   -1.8844   -0.5424 C.3     1  UNL1        0.0789
      2 O          -4.0328   -1.8526    0.5219 O.3     1  UNL1       -0.4925
      3 C          -4.5429   -0.6018    0.9094 C.ar    1  UNL1        0.1533
      4 C          -3.7533    0.0471    1.8708 C.ar    1  UNL1        0.0778
      5 N          -2.5819   -0.5411    2.3951 N.am    1  UNL1       -0.2661
      6 C          -1.2723   -0.3897    1.8892 C.2     1  UNL1        0.3082
      7 O          -1.0924    0.3172    0.8821 O.2     1  UNL1       -0.2521
      8 N          -0.1610   -1.0385    2.5243 N.am    1  UNL1       -0.2686
      9 C           1.1776   -0.9276    2.0724 C.ar    1  UNL1        0.0427
     10 C           1.9706    0.0910    2.5500 C.ar    1  UNL1       -0.0364
     11 C           3.2842    0.1822    2.1119 C.ar    1  UNL1       -0.0170
     12 C           3.8433   -0.7056    1.2119 C.ar    1  UNL1        0.1362
     13 O           5.1376   -0.5455    0.8352 O.3     1  UNL1       -0.4553
     14 C           5.6767   -0.2854   -0.3819 C.ar    1  UNL1        0.1332
     15 C           4.9318    0.0024   -1.5013 C.ar    1  UNL1       -0.0011
     16 C           5.5947    0.2463   -2.6829 C.ar    1  UNL1        0.0332
     17 N           6.9524    0.2105   -2.7717 N.ar    1  UNL1       -0.2400
     18 C           7.6984   -0.0677   -1.6932 C.ar    1  UNL1        0.1263
     19 N           9.1044   -0.1164   -1.8156 N.pl3   1  UNL1       -0.2993
     20 C           9.8532    1.0885   -1.8045 C.ar    1  UNL1        0.0324
     21 C           9.2222    2.3029   -1.7774 C.ar    1  UNL1       -0.0405
     22 C           9.9232    3.4938   -1.7730 C.ar    1  UNL1       -0.0600
     23 C          11.3018    3.4632   -1.7965 C.ar    1  UNL1       -0.0616
     24 C          11.9276    2.2387   -1.8237 C.ar    1  UNL1       -0.0600
     25 C          11.2432    1.0526   -1.8283 C.ar    1  UNL1       -0.0405
     26 C           7.0577   -0.3134   -0.5057 C.ar    1  UNL1        0.0208
     27 C           3.0410   -1.7238    0.7392 C.ar    1  UNL1        0.0262
     28 C           3.5784   -2.6245   -0.1482 C.ar    1  UNL1       -0.0505
     29 C           2.7474   -3.6458   -0.6022 C.ar    1  UNL1       -0.0611
     30 C           1.4459   -3.7504   -0.1817 C.ar    1  UNL1       -0.0611
     31 C           0.9110   -2.8521    0.7048 C.ar    1  UNL1       -0.0521
     32 C           1.7166   -1.8252    1.1728 C.ar    1  UNL1        0.0069
     33 C          -4.1701    1.2905    2.3091 C.ar    1  UNL1       -0.0331
     34 C          -5.3247    1.8480    1.8022 C.ar    1  UNL1       -0.0393
     35 C          -5.7904    3.1896    2.2611 C.3     1  UNL1       -0.0126
     36 C          -7.0606    3.5690    1.5647 C.3     1  UNL1       -0.0560
     37 C          -6.0584    3.1677    3.7595 C.3     1  UNL1       -0.0560
     38 C          -4.7533    4.2443    1.9168 C.3     1  UNL1       -0.0560
     39 C          -6.0566    1.1680    0.8672 C.ar    1  UNL1       -0.0423
     40 C          -5.6850   -0.0880    0.3900 C.ar    1  UNL1        0.0804
     41 C          -6.5800   -0.7280   -0.5229 C.2     1  UNL1        0.2480
     42 O          -7.6100   -0.0947   -0.9633 O.2     1  UNL1       -0.2701
     43 N          -6.4468   -2.0371   -1.0158 N.am    1  UNL1       -0.3040
     44 C          -7.4135   -2.5956   -1.9543 C.3     1  UNL1        0.0700
     45 C          -6.7062   -3.1154   -3.2176 C.3     1  UNL1        0.0682
     46 O          -7.7601   -4.0633   -3.2715 O.3     1  UNL1       -0.3760
     47 C          -7.6744   -4.0566   -1.8576 C.3     1  UNL1        0.0682
     48 H          -2.1368   -2.3235   -0.0678 H       1  UNL1        0.0660
     49 H          -3.4295   -2.5323   -1.3543 H       1  UNL1        0.0660
     50 H          -2.8128   -0.8751   -0.8980 H       1  UNL1        0.0660
     51 H          -2.7138   -1.1452    3.2412 H       1  UNL1        0.1565
     52 H          -0.3950   -1.6161    3.3644 H       1  UNL1        0.1564
     53 H           1.5749    0.8107    3.2583 H       1  UNL1        0.0637
     54 H           3.9229    0.9890    2.4864 H       1  UNL1        0.0655
     55 H           3.8307    0.0380   -1.4576 H       1  UNL1        0.0669
     56 H           5.0331    0.4742   -3.5734 H       1  UNL1        0.0831
     57 H           9.5942   -1.0413   -1.9149 H       1  UNL1        0.1536
     58 H           8.1339    2.3317   -1.7574 H       1  UNL1        0.0636
     59 H           9.4431    4.4624   -1.7546 H       1  UNL1        0.0618
     60 H          11.8706    4.3953   -1.7944 H       1  UNL1        0.0618
     61 H          13.0055    2.2058   -1.8417 H       1  UNL1        0.0618
     62 H          11.6991    0.0747   -1.8484 H       1  UNL1        0.0636
     63 H           7.6477   -0.5350    0.3580 H       1  UNL1        0.0689
     64 H           4.5910   -2.6030   -0.5043 H       1  UNL1        0.0625
     65 H           3.1671   -4.3616   -1.3043 H       1  UNL1        0.0618
     66 H           0.7978   -4.5434   -0.5341 H       1  UNL1        0.0618
     67 H          -0.1062   -2.9135    1.0514 H       1  UNL1        0.0624
     68 H          -3.6013    1.8453    3.0527 H       1  UNL1        0.0640
     69 H          -6.9208    3.7500    0.4781 H       1  UNL1        0.0238
     70 H          -7.3561    4.5754    1.9737 H       1  UNL1        0.0238
     71 H          -7.9076    2.8888    1.7949 H       1  UNL1        0.0238
     72 H          -6.5662    2.2098    3.9827 H       1  UNL1        0.0238
     73 H          -5.0921    3.2618    4.3095 H       1  UNL1        0.0238
     74 H          -6.7513    4.0131    3.9663 H       1  UNL1        0.0238
     75 H          -4.1978    4.5450    2.8284 H       1  UNL1        0.0238
     76 H          -5.2388    5.1532    1.5067 H       1  UNL1        0.0238
     77 H          -4.0844    3.8130    1.1464 H       1  UNL1        0.0238
     78 H          -6.9467    1.6394    0.5024 H       1  UNL1        0.0629
     79 H          -5.6945   -2.6866   -0.7426 H       1  UNL1        0.1495
     80 H          -8.2737   -1.9656   -2.1655 H       1  UNL1        0.0544
     81 H          -6.7038   -2.4129   -4.0540 H       1  UNL1        0.0579
     82 H          -5.7768   -3.6282   -2.9525 H       1  UNL1        0.0579
     83 H          -8.6064   -4.3864   -1.3900 H       1  UNL1        0.0579
     84 H          -6.7621   -4.6501   -1.5996 H       1  UNL1        0.0579
@<TRIPOS>BOND
     1     1     2    1
     2     2     3    1
     3     3     4   ar
     4     4     5    1
     5     5     6   am
     6     6     7    2
     7     6     8   am
     8     8     9    1
     9     9    10   ar
    10    10    11   ar
    11    11    12   ar
    12    12    13    1
    13    13    14    1
    14    14    15   ar
    15    15    16   ar
    16    16    17   ar
    17    17    18   ar
    18    18    19    1
    19    19    20    1
    20    20    21   ar
    21    21    22   ar
    22    22    23   ar
    23    23    24   ar
    24    24    25   ar
    25    18    26   ar
    26    12    27   ar
    27    27    28   ar
    28    28    29   ar
    29    29    30   ar
    30    30    31   ar
    31    31    32   ar
    32     4    33   ar
    33    33    34   ar
    34    34    35    1
    35    35    36    1
    36    35    37    1
    37    35    38    1
    38    34    39   ar
    39    39    40   ar
    40    40    41    1
    41    41    42    2
    42    41    43   am
    43    43    44    1
    44    44    45    1
    45    45    46    1
    46    46    47    1
    47    40     3   ar
    48    47    44    1
    49    32     9   ar
    50    26    14   ar
    51    32    27   ar
    52    25    20   ar
    53     1    48    1
    54     1    49    1
    55     1    50    1
    56     5    51    1
    57     8    52    1
    58    10    53    1
    59    11    54    1
    60    15    55    1
    61    16    56    1
    62    19    57    1
    63    21    58    1
    64    22    59    1
    65    23    60    1
    66    24    61    1
    67    25    62    1
    68    26    63    1
    69    28    64    1
    70    29    65    1
    71    30    66    1
    72    31    67    1
    73    33    68    1
    74    36    69    1
    75    36    70    1
    76    36    71    1
    77    37    72    1
    78    37    73    1
    79    37    74    1
    80    38    75    1
    81    38    76    1
    82    38    77    1
    83    39    78    1
    84    43    79    1
    85    44    80    1
    86    45    81    1
    87    45    82    1
    88    47    83    1
    89    47    84    1
