
     RDKit          3D

 84 89  0  0  0  0  0  0  0  0999 V2000
   -3.0511   -1.8844   -0.5424 C   0  0  0  0  0  0  0  0  0  0  0  0
   -4.0328   -1.8526    0.5219 O   0  0  0  0  0  0  0  0  0  0  0  0
   -4.5429   -0.6018    0.9094 C   0  0  0  0  0  0  0  0  0  0  0  0
   -3.7533    0.0471    1.8708 C   0  0  0  0  0  0  0  0  0  0  0  0
   -2.5819   -0.5411    2.3951 N   0  0  0  0  0  0  0  0  0  0  0  0
   -1.2723   -0.3897    1.8892 C   0  0  0  0  0  0  0  0  0  0  0  0
   -1.0924    0.3172    0.8821 O   0  0  0  0  0  0  0  0  0  0  0  0
   -0.1610   -1.0385    2.5243 N   0  0  0  0  0  0  0  0  0  0  0  0
    1.1776   -0.9276    2.0724 C   0  0  0  0  0  0  0  0  0  0  0  0
    1.9706    0.0910    2.5500 C   0  0  0  0  0  0  0  0  0  0  0  0
    3.2842    0.1822    2.1119 C   0  0  0  0  0  0  0  0  0  0  0  0
    3.8433   -0.7056    1.2119 C   0  0  0  0  0  0  0  0  0  0  0  0
    5.1376   -0.5455    0.8352 O   0  0  0  0  0  0  0  0  0  0  0  0
    5.6767   -0.2854   -0.3819 C   0  0  0  0  0  0  0  0  0  0  0  0
    4.9318    0.0024   -1.5013 C   0  0  0  0  0  0  0  0  0  0  0  0
    5.5947    0.2463   -2.6829 C   0  0  0  0  0  0  0  0  0  0  0  0
    6.9524    0.2105   -2.7717 N   0  0  0  0  0  0  0  0  0  0  0  0
    7.6984   -0.0677   -1.6932 C   0  0  0  0  0  0  0  0  0  0  0  0
    9.1044   -0.1164   -1.8156 N   0  0  0  0  0  0  0  0  0  0  0  0
    9.8532    1.0885   -1.8045 C   0  0  0  0  0  0  0  0  0  0  0  0
    9.2222    2.3029   -1.7774 C   0  0  0  0  0  0  0  0  0  0  0  0
    9.9232    3.4938   -1.7730 C   0  0  0  0  0  0  0  0  0  0  0  0
   11.3018    3.4632   -1.7965 C   0  0  0  0  0  0  0  0  0  0  0  0
   11.9276    2.2387   -1.8237 C   0  0  0  0  0  0  0  0  0  0  0  0
   11.2432    1.0526   -1.8283 C   0  0  0  0  0  0  0  0  0  0  0  0
    7.0577   -0.3134   -0.5057 C   0  0  0  0  0  0  0  0  0  0  0  0
    3.0410   -1.7238    0.7392 C   0  0  0  0  0  0  0  0  0  0  0  0
    3.5784   -2.6245   -0.1482 C   0  0  0  0  0  0  0  0  0  0  0  0
    2.7474   -3.6458   -0.6022 C   0  0  0  0  0  0  0  0  0  0  0  0
    1.4459   -3.7504   -0.1817 C   0  0  0  0  0  0  0  0  0  0  0  0
    0.9110   -2.8521    0.7048 C   0  0  0  0  0  0  0  0  0  0  0  0
    1.7166   -1.8252    1.1728 C   0  0  0  0  0  0  0  0  0  0  0  0
   -4.1701    1.2905    2.3091 C   0  0  0  0  0  0  0  0  0  0  0  0
   -5.3247    1.8480    1.8022 C   0  0  0  0  0  0  0  0  0  0  0  0
   -5.7904    3.1896    2.2611 C   0  0  0  0  0  0  0  0  0  0  0  0
   -7.0606    3.5690    1.5647 C   0  0  0  0  0  0  0  0  0  0  0  0
   -6.0584    3.1677    3.7595 C   0  0  0  0  0  0  0  0  0  0  0  0
   -4.7533    4.2443    1.9168 C   0  0  0  0  0  0  0  0  0  0  0  0
   -6.0566    1.1680    0.8672 C   0  0  0  0  0  0  0  0  0  0  0  0
   -5.6850   -0.0880    0.3900 C   0  0  0  0  0  0  0  0  0  0  0  0
   -6.5800   -0.7280   -0.5229 C   0  0  0  0  0  0  0  0  0  0  0  0
   -7.6100   -0.0947   -0.9633 O   0  0  0  0  0  0  0  0  0  0  0  0
   -6.4468   -2.0371   -1.0158 N   0  0  0  0  0  0  0  0  0  0  0  0
   -7.4135   -2.5956   -1.9543 C   0  0  0  0  0  0  0  0  0  0  0  0
   -6.7062   -3.1154   -3.2176 C   0  0  0  0  0  0  0  0  0  0  0  0
   -7.7601   -4.0633   -3.2715 O   0  0  0  0  0  0  0  0  0  0  0  0
   -7.6744   -4.0566   -1.8576 C   0  0  0  0  0  0  0  0  0  0  0  0
   -2.1368   -2.3235   -0.0678 H   0  0  0  0  0  0  0  0  0  0  0  0
   -3.4295   -2.5323   -1.3543 H   0  0  0  0  0  0  0  0  0  0  0  0
   -2.8128   -0.8751   -0.8980 H   0  0  0  0  0  0  0  0  0  0  0  0
   -2.7138   -1.1452    3.2412 H   0  0  0  0  0  0  0  0  0  0  0  0
   -0.3950   -1.6161    3.3644 H   0  0  0  0  0  0  0  0  0  0  0  0
    1.5749    0.8107    3.2583 H   0  0  0  0  0  0  0  0  0  0  0  0
    3.9229    0.9890    2.4864 H   0  0  0  0  0  0  0  0  0  0  0  0
    3.8307    0.0380   -1.4576 H   0  0  0  0  0  0  0  0  0  0  0  0
    5.0331    0.4742   -3.5734 H   0  0  0  0  0  0  0  0  0  0  0  0
    9.5942   -1.0413   -1.9149 H   0  0  0  0  0  0  0  0  0  0  0  0
    8.1339    2.3317   -1.7574 H   0  0  0  0  0  0  0  0  0  0  0  0
    9.4431    4.4624   -1.7546 H   0  0  0  0  0  0  0  0  0  0  0  0
   11.8706    4.3953   -1.7944 H   0  0  0  0  0  0  0  0  0  0  0  0
   13.0055    2.2058   -1.8417 H   0  0  0  0  0  0  0  0  0  0  0  0
   11.6991    0.0747   -1.8484 H   0  0  0  0  0  0  0  0  0  0  0  0
    7.6477   -0.5350    0.3580 H   0  0  0  0  0  0  0  0  0  0  0  0
    4.5910   -2.6030   -0.5043 H   0  0  0  0  0  0  0  0  0  0  0  0
    3.1671   -4.3616   -1.3043 H   0  0  0  0  0  0  0  0  0  0  0  0
    0.7978   -4.5434   -0.5341 H   0  0  0  0  0  0  0  0  0  0  0  0
   -0.1062   -2.9135    1.0514 H   0  0  0  0  0  0  0  0  0  0  0  0
   -3.6013    1.8453    3.0527 H   0  0  0  0  0  0  0  0  0  0  0  0
   -6.9208    3.7500    0.4781 H   0  0  0  0  0  0  0  0  0  0  0  0
   -7.3561    4.5754    1.9737 H   0  0  0  0  0  0  0  0  0  0  0  0
   -7.9076    2.8888    1.7949 H   0  0  0  0  0  0  0  0  0  0  0  0
   -6.5662    2.2098    3.9827 H   0  0  0  0  0  0  0  0  0  0  0  0
   -5.0921    3.2618    4.3095 H   0  0  0  0  0  0  0  0  0  0  0  0
   -6.7513    4.0131    3.9663 H   0  0  0  0  0  0  0  0  0  0  0  0
   -4.1978    4.5450    2.8284 H   0  0  0  0  0  0  0  0  0  0  0  0
   -5.2388    5.1532    1.5067 H   0  0  0  0  0  0  0  0  0  0  0  0
   -4.0844    3.8130    1.1464 H   0  0  0  0  0  0  0  0  0  0  0  0
   -6.9467    1.6394    0.5024 H   0  0  0  0  0  0  0  0  0  0  0  0
   -5.6945   -2.6866   -0.7426 H   0  0  0  0  0  0  0  0  0  0  0  0
   -8.2737   -1.9656   -2.1655 H   0  0  0  0  0  0  0  0  0  0  0  0
   -6.7038   -2.4129   -4.0540 H   0  0  0  0  0  0  0  0  0  0  0  0
   -5.7768   -3.6282   -2.9525 H   0  0  0  0  0  0  0  0  0  0  0  0
   -8.6064   -4.3864   -1.3900 H   0  0  0  0  0  0  0  0  0  0  0  0
   -6.7621   -4.6501   -1.5996 H   0  0  0  0  0  0  0  0  0  0  0  0
  1  2  1  0
  2  3  1  0
  3  4  2  0
  4  5  1  0
  5  6  1  0
  6  7  2  0
  6  8  1  0
  8  9  1  0
  9 10  2  0
 10 11  1  0
 11 12  2  0
 12 13  1  0
 13 14  1  0
 14 15  2  0
 15 16  1  0
 16 17  2  0
 17 18  1  0
 18 19  1  0
 19 20  1  0
 20 21  2  0
 21 22  1  0
 22 23  2  0
 23 24  1  0
 24 25  2  0
 18 26  2  0
 12 27  1  0
 27 28  2  0
 28 29  1  0
 29 30  2  0
 30 31  1  0
 31 32  2  0
  4 33  1  0
 33 34  2  0
 34 35  1  0
 35 36  1  0
 35 37  1  0
 35 38  1  0
 34 39  1  0
 39 40  2  0
 40 41  1  0
 41 42  2  0
 41 43  1  0
 43 44  1  0
 44 45  1  0
 45 46  1  0
 46 47  1  0
 40  3  1  0
 47 44  1  0
 32  9  1  0
 26 14  1  0
 32 27  1  0
 25 20  1  0
  1 48  1  0
  1 49  1  0
  1 50  1  0
  5 51  1  0
  8 52  1  0
 10 53  1  0
 11 54  1  0
 15 55  1  0
 16 56  1  0
 19 57  1  0
 21 58  1  0
 22 59  1  0
 23 60  1  0
 24 61  1  0
 25 62  1  0
 26 63  1  0
 28 64  1  0
 29 65  1  0
 30 66  1  0
 31 67  1  0
 33 68  1  0
 36 69  1  0
 36 70  1  0
 36 71  1  0
 37 72  1  0
 37 73  1  0
 37 74  1  0
 38 75  1  0
 38 76  1  0
 38 77  1  0
 39 78  1  0
 43 79  1  0
 44 80  1  0
 45 81  1  0
 45 82  1  0
 47 83  1  0
 47 84  1  0
M  END
$$$$
