
     RDKit          3D

 46 48  0  0  0  0  0  0  0  0999 V2000
    0.1859   -0.8269    0.9774 C   0  0  2  0  0  0  0  0  0  0  0  0
    1.5736   -1.0275    0.4387 C   0  0  0  0  0  0  0  0  0  0  0  0
    1.6198   -1.5049   -0.8475 O   0  0  0  0  0  0  0  0  0  0  0  0
    3.2480   -1.6743   -1.2749 P   0  0  0  0  0  0  0  0  0  0  0  0
    3.4838   -1.4247   -2.9266 O   0  0  0  0  0  0  0  0  0  0  0  0
    3.7601   -3.0625   -0.8890 O   0  0  0  0  0  0  0  0  0  0  0  0
    4.1499   -0.5794   -0.3545 O   0  0  0  0  0  0  0  0  0  0  0  0
    4.7963    0.6508   -1.2917 P   0  0  0  0  0  0  0  0  0  0  0  0
    4.2319    2.1605   -0.7599 O   0  0  0  0  0  0  0  0  0  0  0  0
    4.4135    0.5284   -2.7406 O   0  0  0  0  0  0  0  0  0  0  0  0
    6.4785    0.5952   -1.2075 O   0  0  0  0  0  0  0  0  0  0  0  0
    6.9470    1.0041    0.3544 P   0  0  0  0  0  0  0  0  0  0  0  0
    5.9960    2.2906    0.9007 O   0  0  0  0  0  0  0  0  0  0  0  0
    6.7460   -0.3344    1.3948 O   0  0  0  0  0  0  0  0  0  0  0  0
    8.4043    1.4172    0.3508 O   0  0  0  0  0  0  0  0  0  0  0  0
   -0.6724   -2.0630    0.8599 C   0  0  0  0  0  0  0  0  0  0  0  0
   -2.0298   -1.4556    1.2416 C   0  0  1  0  0  0  0  0  0  0  0  0
   -2.1968   -1.4879    2.6252 O   0  0  0  0  0  0  0  0  0  0  0  0
   -1.8096   -0.0133    0.8430 C   0  0  1  0  0  0  0  0  0  0  0  0
   -0.5703    0.0731    0.2456 O   0  0  0  0  0  0  0  0  0  0  0  0
   -2.8789    0.4203   -0.0543 N   0  0  0  0  0  0  0  0  0  0  0  0
   -2.7735    0.6329   -1.3783 C   0  0  0  0  0  0  0  0  0  0  0  0
   -4.0090    1.0246   -1.8101 N   0  0  0  0  0  0  0  0  0  0  0  0
   -4.8460    1.0479   -0.7625 C   0  0  0  0  0  0  0  0  0  0  0  0
   -6.1672    1.3407   -0.5273 C   0  0  0  0  0  0  0  0  0  0  0  0
   -6.9941    1.7460   -1.5976 N   0  0  0  0  0  0  0  0  0  0  0  0
   -6.7347    1.2669    0.6768 N   0  0  0  0  0  0  0  0  0  0  0  0
   -6.0365    0.8906    1.7762 C   0  0  0  0  0  0  0  0  0  0  0  0
   -4.7521    0.6070    1.5425 N   0  0  0  0  0  0  0  0  0  0  0  0
   -4.1390    0.6663    0.3549 C   0  0  0  0  0  0  0  0  0  0  0  0
    0.2724   -0.5770    2.0461 H   0  0  0  0  0  0  0  0  0  0  0  0
    2.1634   -1.5677    1.1765 H   0  0  0  0  0  0  0  0  0  0  0  0
    2.0181    0.0076    0.3927 H   0  0  0  0  0  0  0  0  0  0  0  0
    2.6834   -1.7857   -3.3950 H   0  0  0  0  0  0  0  0  0  0  0  0
    3.4458    2.4324   -1.2995 H   0  0  0  0  0  0  0  0  0  0  0  0
    6.2596    3.0935    0.3647 H   0  0  0  0  0  0  0  0  0  0  0  0
    6.0843   -0.9884    1.0341 H   0  0  0  0  0  0  0  0  0  0  0  0
   -0.8059   -2.3868   -0.1928 H   0  0  0  0  0  0  0  0  0  0  0  0
   -0.3814   -2.8835    1.5319 H   0  0  0  0  0  0  0  0  0  0  0  0
   -2.8698   -1.9368    0.7385 H   0  0  0  0  0  0  0  0  0  0  0  0
   -3.1186   -1.7225    2.9021 H   0  0  0  0  0  0  0  0  0  0  0  0
   -1.8042    0.6657    1.7142 H   0  0  0  0  0  0  0  0  0  0  0  0
   -1.8927    0.5208   -1.9974 H   0  0  0  0  0  0  0  0  0  0  0  0
   -7.5392    1.2821   -2.3836 H   0  0  0  0  0  0  0  0  0  0  0  0
   -7.5813    2.1510   -2.3445 H   0  0  0  0  0  0  0  0  0  0  0  0
   -6.3585    0.7868    2.7996 H   0  0  0  0  0  0  0  0  0  0  0  0
  1  2  1  0
  2  3  1  0
  3  4  1  0
  4  5  1  0
  4  6  2  0
  4  7  1  0
  7  8  1  0
  8  9  1  0
  8 10  2  0
  8 11  1  0
 11 12  1  0
 12 13  1  0
 12 14  1  0
 12 15  2  0
  1 16  1  0
 16 17  1  0
 17 18  1  0
 17 19  1  0
 19 20  1  0
 19 21  1  0
 21 22  1  0
 22 23  2  0
 23 24  1  0
 24 25  2  0
 25 26  1  0
 25 27  1  0
 27 28  2  0
 28 29  1  0
 29 30  2  0
 20  1  1  0
 30 21  1  0
 30 24  1  0
  1 31  1  1
  2 32  1  0
  2 33  1  0
  5 34  1  0
  9 35  1  0
 13 36  1  0
 14 37  1  0
 16 38  1  0
 16 39  1  0
 17 40  1  6
 18 41  1  0
 19 42  1  1
 22 43  1  0
 26 44  1  0
 26 45  1  0
 28 46  1  0
M  END
$$$$
