@<TRIPOS>MOLECULE
*****
 48 52 0 0 0
SMALL
GASTEIGER

@<TRIPOS>ATOM
      1 C          -5.7468    1.1049   -0.1700 C.3     1  UNL1        0.0086
      2 C          -5.8524    2.4206   -0.9204 C.3     1  UNL1        0.0445
      3 C          -6.9224    3.1955   -0.2855 C.1     1  UNL1        0.0634
      4 N          -7.7550    3.8081    0.2312 N.1     1  UNL1       -0.1965
      5 C          -5.4289    1.3008    1.2473 C.2     1  UNL1       -0.0742
      6 C          -4.3519    0.7780    1.8514 C.2     1  UNL1       -0.0395
      7 C          -3.4206   -0.0411    1.0749 C.2     1  UNL1        0.0672
      8 C          -3.6996   -0.2609   -0.3387 C.2     1  UNL1       -0.0395
      9 C          -4.7611    0.2676   -0.8869 C.2     1  UNL1       -0.0742
     10 N          -2.4429   -0.4649    1.8028 N.2     1  UNL1       -0.2113
     11 C          -1.4552   -1.2755    1.1850 C.ar    1  UNL1        0.2532
     12 N          -1.5564   -2.3583    0.4043 N.ar    1  UNL1       -0.2105
     13 C          -0.4738   -2.9647   -0.0686 C.ar    1  UNL1        0.0784
     14 C          -0.7086   -4.0789   -0.8678 C.ar    1  UNL1       -0.0355
     15 C           0.3549   -4.7878   -1.4143 C.ar    1  UNL1       -0.0597
     16 C           1.6287   -4.3506   -1.1379 C.ar    1  UNL1       -0.0610
     17 C           1.8648   -3.2414   -0.3424 C.ar    1  UNL1       -0.0490
     18 C           0.8104   -2.5432    0.1961 C.ar    1  UNL1        0.0447
     19 C           0.9140   -1.4254    1.0020 C.ar    1  UNL1        0.1678
     20 N           2.2185   -0.9534    1.3027 N.2     1  UNL1       -0.2089
     21 C           2.8411   -0.0491    0.6345 C.ar    1  UNL1        0.1493
     22 N           2.6184    0.7307   -0.4453 N.ar    1  UNL1       -0.2834
     23 N           3.6718    1.5002   -0.6668 N.ar    1  UNL1       -0.3022
     24 C           4.6155    1.2527    0.2547 C.ar    1  UNL1        0.0391
     25 C           4.1207    0.2749    1.0955 C.ar    1  UNL1        0.0029
     26 C           5.9197    1.9359    0.3027 C.3     1  UNL1        0.0008
     27 C           6.1108    3.2804   -0.2845 C.3     1  UNL1       -0.0442
     28 C           6.6023    2.1018   -1.0488 C.3     1  UNL1       -0.0442
     29 N          -0.2053   -0.8130    1.4804 N.ar    1  UNL1       -0.1908
     30 H          -6.7145    0.5742   -0.2292 H       1  UNL1        0.0395
     31 H          -4.8739    2.9398   -0.9210 H       1  UNL1        0.0427
     32 H          -6.1238    2.2031   -1.9711 H       1  UNL1        0.0427
     33 H          -6.1543    1.9156    1.7699 H       1  UNL1        0.0579
     34 H          -4.2677    1.0200    2.8994 H       1  UNL1        0.0636
     35 H          -2.9557   -0.8777   -0.8261 H       1  UNL1        0.0636
     36 H          -4.9208    0.0769   -1.9255 H       1  UNL1        0.0579
     37 H          -1.7088   -4.4648   -1.1157 H       1  UNL1        0.0639
     38 H           0.2300   -5.6669   -2.0468 H       1  UNL1        0.0618
     39 H           2.4998   -4.8374   -1.5176 H       1  UNL1        0.0618
     40 H           2.8471   -2.8843   -0.1148 H       1  UNL1        0.0625
     41 H           1.7022    0.6258   -0.9275 H       1  UNL1        0.1883
     42 H           3.7191    2.1913   -1.4616 H       1  UNL1        0.1864
     43 H           4.7200   -0.0925    1.9321 H       1  UNL1        0.0672
     44 H           6.5750    1.5918    1.1485 H       1  UNL1        0.0364
     45 H           6.9191    3.8795    0.2086 H       1  UNL1        0.0272
     46 H           5.2263    3.8436   -0.5781 H       1  UNL1        0.0272
     47 H           6.0817    1.7371   -1.9499 H       1  UNL1        0.0272
     48 H           7.6886    1.8810   -1.0568 H       1  UNL1        0.0272
@<TRIPOS>BOND
     1     1     2    1
     2     2     3    1
     3     3     4    3
     4     1     5    1
     5     5     6    2
     6     6     7    1
     7     7     8    1
     8     8     9    2
     9     7    10    2
    10    10    11    1
    11    11    12   ar
    12    12    13   ar
    13    13    14   ar
    14    14    15   ar
    15    15    16   ar
    16    16    17   ar
    17    17    18   ar
    18    18    19   ar
    19    19    20    1
    20    20    21    2
    21    21    22   ar
    22    22    23   ar
    23    23    24   ar
    24    24    25   ar
    25    24    26    1
    26    26    27    1
    27    27    28    1
    28    19    29   ar
    29     9     1    1
    30    29    11   ar
    31    18    13   ar
    32    25    21   ar
    33    28    26    1
    34     1    30    1
    35     2    31    1
    36     2    32    1
    37     5    33    1
    38     6    34    1
    39     8    35    1
    40     9    36    1
    41    14    37    1
    42    15    38    1
    43    16    39    1
    44    17    40    1
    45    22    41    1
    46    23    42    1
    47    25    43    1
    48    26    44    1
    49    27    45    1
    50    27    46    1
    51    28    47    1
    52    28    48    1
