
     RDKit          3D

 48 52  0  0  0  0  0  0  0  0999 V2000
   -5.7468    1.1049   -0.1700 C   0  0  0  0  0  0  0  0  0  0  0  0
   -5.8524    2.4206   -0.9204 C   0  0  0  0  0  0  0  0  0  0  0  0
   -6.9224    3.1955   -0.2855 C   0  0  0  0  0  0  0  0  0  0  0  0
   -7.7550    3.8081    0.2312 N   0  0  0  0  0  0  0  0  0  0  0  0
   -5.4289    1.3008    1.2473 C   0  0  0  0  0  0  0  0  0  0  0  0
   -4.3519    0.7780    1.8514 C   0  0  0  0  0  0  0  0  0  0  0  0
   -3.4206   -0.0411    1.0749 C   0  0  0  0  0  0  0  0  0  0  0  0
   -3.6996   -0.2609   -0.3387 C   0  0  0  0  0  0  0  0  0  0  0  0
   -4.7611    0.2676   -0.8869 C   0  0  0  0  0  0  0  0  0  0  0  0
   -2.4429   -0.4649    1.8028 N   0  0  0  0  0  0  0  0  0  0  0  0
   -1.4552   -1.2755    1.1850 C   0  0  0  0  0  0  0  0  0  0  0  0
   -1.5564   -2.3583    0.4043 N   0  0  0  0  0  0  0  0  0  0  0  0
   -0.4738   -2.9647   -0.0686 C   0  0  0  0  0  0  0  0  0  0  0  0
   -0.7086   -4.0789   -0.8678 C   0  0  0  0  0  0  0  0  0  0  0  0
    0.3549   -4.7878   -1.4143 C   0  0  0  0  0  0  0  0  0  0  0  0
    1.6287   -4.3506   -1.1379 C   0  0  0  0  0  0  0  0  0  0  0  0
    1.8648   -3.2414   -0.3424 C   0  0  0  0  0  0  0  0  0  0  0  0
    0.8104   -2.5432    0.1961 C   0  0  0  0  0  0  0  0  0  0  0  0
    0.9140   -1.4254    1.0020 C   0  0  0  0  0  0  0  0  0  0  0  0
    2.2185   -0.9534    1.3027 N   0  0  0  0  0  0  0  0  0  0  0  0
    2.8411   -0.0491    0.6345 C   0  0  0  0  0  0  0  0  0  0  0  0
    2.6184    0.7307   -0.4453 N   0  0  0  0  0  0  0  0  0  0  0  0
    3.6718    1.5002   -0.6668 N   0  0  0  0  0  0  0  0  0  0  0  0
    4.6155    1.2527    0.2547 C   0  0  0  0  0  0  0  0  0  0  0  0
    4.1207    0.2749    1.0955 C   0  0  0  0  0  0  0  0  0  0  0  0
    5.9197    1.9359    0.3027 C   0  0  0  0  0  0  0  0  0  0  0  0
    6.1108    3.2804   -0.2845 C   0  0  0  0  0  0  0  0  0  0  0  0
    6.6023    2.1018   -1.0488 C   0  0  0  0  0  0  0  0  0  0  0  0
   -0.2053   -0.8130    1.4804 N   0  0  0  0  0  0  0  0  0  0  0  0
   -6.7145    0.5742   -0.2292 H   0  0  0  0  0  0  0  0  0  0  0  0
   -4.8739    2.9398   -0.9210 H   0  0  0  0  0  0  0  0  0  0  0  0
   -6.1238    2.2031   -1.9711 H   0  0  0  0  0  0  0  0  0  0  0  0
   -6.1543    1.9156    1.7699 H   0  0  0  0  0  0  0  0  0  0  0  0
   -4.2677    1.0200    2.8994 H   0  0  0  0  0  0  0  0  0  0  0  0
   -2.9557   -0.8777   -0.8261 H   0  0  0  0  0  0  0  0  0  0  0  0
   -4.9208    0.0769   -1.9255 H   0  0  0  0  0  0  0  0  0  0  0  0
   -1.7088   -4.4648   -1.1157 H   0  0  0  0  0  0  0  0  0  0  0  0
    0.2300   -5.6669   -2.0468 H   0  0  0  0  0  0  0  0  0  0  0  0
    2.4998   -4.8374   -1.5176 H   0  0  0  0  0  0  0  0  0  0  0  0
    2.8471   -2.8843   -0.1148 H   0  0  0  0  0  0  0  0  0  0  0  0
    1.7022    0.6258   -0.9275 H   0  0  0  0  0  0  0  0  0  0  0  0
    3.7191    2.1913   -1.4616 H   0  0  0  0  0  0  0  0  0  0  0  0
    4.7200   -0.0925    1.9321 H   0  0  0  0  0  0  0  0  0  0  0  0
    6.5750    1.5918    1.1485 H   0  0  0  0  0  0  0  0  0  0  0  0
    6.9191    3.8795    0.2086 H   0  0  0  0  0  0  0  0  0  0  0  0
    5.2263    3.8436   -0.5781 H   0  0  0  0  0  0  0  0  0  0  0  0
    6.0817    1.7371   -1.9499 H   0  0  0  0  0  0  0  0  0  0  0  0
    7.6886    1.8810   -1.0568 H   0  0  0  0  0  0  0  0  0  0  0  0
  1  2  1  0
  2  3  1  0
  3  4  3  0
  1  5  1  0
  5  6  2  0
  6  7  1  0
  7  8  1  0
  8  9  2  0
  7 10  2  3
 10 11  1  0
 11 12  2  0
 12 13  1  0
 13 14  2  0
 14 15  1  0
 15 16  2  0
 16 17  1  0
 17 18  2  0
 18 19  1  0
 19 20  1  0
 20 21  2  3
 21 22  1  0
 22 23  1  0
 23 24  1  0
 24 25  2  0
 24 26  1  0
 26 27  1  0
 27 28  1  0
 19 29  2  0
  9  1  1  0
 29 11  1  0
 18 13  1  0
 25 21  1  0
 28 26  1  0
  1 30  1  0
  2 31  1  0
  2 32  1  0
  5 33  1  0
  6 34  1  0
  8 35  1  0
  9 36  1  0
 14 37  1  0
 15 38  1  0
 16 39  1  0
 17 40  1  0
 22 41  1  0
 23 42  1  0
 25 43  1  0
 26 44  1  0
 27 45  1  0
 27 46  1  0
 28 47  1  0
 28 48  1  0
M  END
$$$$
