@<TRIPOS>MOLECULE
*****
 55 60 0 0 0
SMALL
GASTEIGER

@<TRIPOS>ATOM
      1 N          -0.8116   -0.7329   -3.5859 N.pl3   1  UNL1       -0.3134
      2 C          -0.7127   -0.7645   -2.1385 C.2     1  UNL1        0.2763
      3 N          -0.9936    0.2630   -1.4433 N.2     1  UNL1       -0.2205
      4 C          -0.9320    0.3469   -0.0116 C.3     1  UNL1        0.1265
      5 C          -0.8678   -1.0187    0.6657 C.3     1  UNL1        0.0155
      6 C          -0.1978   -2.0804   -0.1219 C.3     1  UNL1        0.0953
      7 O          -0.3066   -1.9323   -1.5148 O.2     1  UNL1       -0.4658
      8 C           0.2438    1.0980    0.4593 C.ar    1  UNL1        0.0287
      9 C           1.5049    0.6545    0.0306 C.ar    1  UNL1       -0.0312
     10 C           2.6666    1.2677    0.4152 C.ar    1  UNL1        0.0343
     11 N           3.9477    0.7867   -0.0432 N.am    1  UNL1       -0.2802
     12 C           4.6971   -0.1845    0.6503 C.2     1  UNL1        0.2666
     13 O           4.2127   -0.6444    1.7183 O.2     1  UNL1       -0.2682
     14 C           5.9907   -0.6793    0.2003 C.ar    1  UNL1        0.1257
     15 C           6.7154   -1.6267    0.8824 C.ar    1  UNL1       -0.0298
     16 C           7.9535   -2.0771    0.4193 C.ar    1  UNL1       -0.0397
     17 C           8.4610   -1.5586   -0.7506 C.ar    1  UNL1        0.0591
     18 CL         10.0117   -2.1180   -1.3372 Cl      1  UNL1       -0.0820
     19 C           7.7141   -0.6131   -1.4105 C.ar    1  UNL1        0.0467
     20 N           6.5090   -0.1903   -0.9380 N.ar    1  UNL1       -0.2489
     21 C           2.5672    2.3553    1.2516 C.ar    1  UNL1       -0.0370
     22 C           1.3552    2.8181    1.6906 C.ar    1  UNL1       -0.0172
     23 C           0.1777    2.1816    1.2890 C.ar    1  UNL1        0.1346
     24 O          -1.0449    2.6815    1.7524 O.3     1  UNL1       -0.4508
     25 C          -2.1862    2.0300    1.3318 C.ar    1  UNL1        0.1883
     26 C          -2.1941    0.9558    0.5141 C.ar    1  UNL1        0.0334
     27 C          -3.4123    0.3509    0.1310 C.ar    1  UNL1       -0.0262
     28 C          -4.6105    0.8233    0.5680 C.ar    1  UNL1        0.0748
     29 C          -5.8947    0.2283    0.1968 C.ar    1  UNL1        0.0061
     30 C          -5.9376   -0.8541   -0.6257 C.ar    1  UNL1       -0.0342
     31 C          -7.1681   -1.4219   -0.9796 C.ar    1  UNL1        0.0313
     32 N          -8.3042   -0.8913   -0.5022 N.ar    1  UNL1       -0.2276
     33 C          -8.3092    0.1775    0.3129 C.ar    1  UNL1        0.2138
     34 F          -9.4797    0.6852    0.7751 F       1  UNL1       -0.1839
     35 C          -7.0810    0.7463    0.6677 C.ar    1  UNL1        0.0019
     36 N          -4.5957    1.9129    1.3978 N.ar    1  UNL1       -0.2161
     37 C          -3.4488    2.4850    1.7600 C.ar    1  UNL1        0.2567
     38 F          -3.4267    3.5799    2.5933 F       1  UNL1       -0.1799
     39 H          -1.2814   -1.5065   -4.0883 H       1  UNL1        0.1466
     40 H          -0.4200    0.0522   -4.1341 H       1  UNL1        0.1466
     41 H          -1.8992   -1.3439    0.9788 H       1  UNL1        0.0328
     42 H          -0.3187   -0.8871    1.6175 H       1  UNL1        0.0328
     43 H           0.8491   -2.2673    0.2262 H       1  UNL1        0.0698
     44 H          -0.7459   -3.0492    0.1078 H       1  UNL1        0.0698
     45 H           1.6118   -0.2050   -0.6411 H       1  UNL1        0.0641
     46 H           4.3250    1.1792   -0.9228 H       1  UNL1        0.1552
     47 H           6.3079   -2.0185    1.7877 H       1  UNL1        0.0641
     48 H           8.5241   -2.8218    0.9547 H       1  UNL1        0.0633
     49 H           8.1153   -0.2063   -2.3312 H       1  UNL1        0.0844
     50 H           3.5082    2.8386    1.5534 H       1  UNL1        0.0637
     51 H           1.2869    3.6872    2.3581 H       1  UNL1        0.0655
     52 H          -3.3360   -0.5028   -0.5247 H       1  UNL1        0.0644
     53 H          -5.0580   -1.3108   -1.0303 H       1  UNL1        0.0639
     54 H          -7.2191   -2.2755   -1.6271 H       1  UNL1        0.0831
     55 H          -7.0628    1.5976    1.3156 H       1  UNL1        0.0669
@<TRIPOS>BOND
     1     1     2    1
     2     2     3    2
     3     3     4    1
     4     4     5    1
     5     5     6    1
     6     6     7    1
     7     4     8    1
     8     8     9   ar
     9     9    10   ar
    10    10    11    1
    11    11    12   am
    12    12    13    2
    13    12    14    1
    14    14    15   ar
    15    15    16   ar
    16    16    17   ar
    17    17    18    1
    18    17    19   ar
    19    19    20   ar
    20    10    21   ar
    21    21    22   ar
    22    22    23   ar
    23    23    24    1
    24    24    25    1
    25    25    26   ar
    26    26    27   ar
    27    27    28   ar
    28    28    29    1
    29    29    30   ar
    30    30    31   ar
    31    31    32   ar
    32    32    33   ar
    33    33    34    1
    34    33    35   ar
    35    28    36   ar
    36    36    37   ar
    37    37    38    1
    38     7     2    1
    39    23     8   ar
    40    37    25   ar
    41    26     4    1
    42    35    29   ar
    43    20    14   ar
    44     1    39    1
    45     1    40    1
    46     5    41    1
    47     5    42    1
    48     6    43    1
    49     6    44    1
    50     9    45    1
    51    11    46    1
    52    15    47    1
    53    16    48    1
    54    19    49    1
    55    21    50    1
    56    22    51    1
    57    27    52    1
    58    30    53    1
    59    31    54    1
    60    35    55    1
