
     RDKit          3D

 55 60  0  0  0  0  0  0  0  0999 V2000
   -0.8116   -0.7329   -3.5859 N   0  0  0  0  0  0  0  0  0  0  0  0
   -0.7127   -0.7645   -2.1385 C   0  0  0  0  0  0  0  0  0  0  0  0
   -0.9936    0.2630   -1.4433 N   0  0  0  0  0  0  0  0  0  0  0  0
   -0.9320    0.3469   -0.0116 C   0  0  0  0  0  0  0  0  0  0  0  0
   -0.8678   -1.0187    0.6657 C   0  0  0  0  0  0  0  0  0  0  0  0
   -0.1978   -2.0804   -0.1219 C   0  0  0  0  0  0  0  0  0  0  0  0
   -0.3066   -1.9323   -1.5148 O   0  0  0  0  0  0  0  0  0  0  0  0
    0.2438    1.0980    0.4593 C   0  0  0  0  0  0  0  0  0  0  0  0
    1.5049    0.6545    0.0306 C   0  0  0  0  0  0  0  0  0  0  0  0
    2.6666    1.2677    0.4152 C   0  0  0  0  0  0  0  0  0  0  0  0
    3.9477    0.7867   -0.0432 N   0  0  0  0  0  0  0  0  0  0  0  0
    4.6971   -0.1845    0.6503 C   0  0  0  0  0  0  0  0  0  0  0  0
    4.2127   -0.6444    1.7183 O   0  0  0  0  0  0  0  0  0  0  0  0
    5.9907   -0.6793    0.2003 C   0  0  0  0  0  0  0  0  0  0  0  0
    6.7154   -1.6267    0.8824 C   0  0  0  0  0  0  0  0  0  0  0  0
    7.9535   -2.0771    0.4193 C   0  0  0  0  0  0  0  0  0  0  0  0
    8.4610   -1.5586   -0.7506 C   0  0  0  0  0  0  0  0  0  0  0  0
   10.0117   -2.1180   -1.3372 Cl  0  0  0  0  0  0  0  0  0  0  0  0
    7.7141   -0.6131   -1.4105 C   0  0  0  0  0  0  0  0  0  0  0  0
    6.5090   -0.1903   -0.9380 N   0  0  0  0  0  0  0  0  0  0  0  0
    2.5672    2.3553    1.2516 C   0  0  0  0  0  0  0  0  0  0  0  0
    1.3552    2.8181    1.6906 C   0  0  0  0  0  0  0  0  0  0  0  0
    0.1777    2.1816    1.2890 C   0  0  0  0  0  0  0  0  0  0  0  0
   -1.0449    2.6815    1.7524 O   0  0  0  0  0  0  0  0  0  0  0  0
   -2.1862    2.0300    1.3318 C   0  0  0  0  0  0  0  0  0  0  0  0
   -2.1941    0.9558    0.5141 C   0  0  0  0  0  0  0  0  0  0  0  0
   -3.4123    0.3509    0.1310 C   0  0  0  0  0  0  0  0  0  0  0  0
   -4.6105    0.8233    0.5680 C   0  0  0  0  0  0  0  0  0  0  0  0
   -5.8947    0.2283    0.1968 C   0  0  0  0  0  0  0  0  0  0  0  0
   -5.9376   -0.8541   -0.6257 C   0  0  0  0  0  0  0  0  0  0  0  0
   -7.1681   -1.4219   -0.9796 C   0  0  0  0  0  0  0  0  0  0  0  0
   -8.3042   -0.8913   -0.5022 N   0  0  0  0  0  0  0  0  0  0  0  0
   -8.3092    0.1775    0.3129 C   0  0  0  0  0  0  0  0  0  0  0  0
   -9.4797    0.6852    0.7751 F   0  0  0  0  0  0  0  0  0  0  0  0
   -7.0810    0.7463    0.6677 C   0  0  0  0  0  0  0  0  0  0  0  0
   -4.5957    1.9129    1.3978 N   0  0  0  0  0  0  0  0  0  0  0  0
   -3.4488    2.4850    1.7600 C   0  0  0  0  0  0  0  0  0  0  0  0
   -3.4267    3.5799    2.5933 F   0  0  0  0  0  0  0  0  0  0  0  0
   -1.2814   -1.5065   -4.0883 H   0  0  0  0  0  0  0  0  0  0  0  0
   -0.4200    0.0522   -4.1341 H   0  0  0  0  0  0  0  0  0  0  0  0
   -1.8992   -1.3439    0.9788 H   0  0  0  0  0  0  0  0  0  0  0  0
   -0.3187   -0.8871    1.6175 H   0  0  0  0  0  0  0  0  0  0  0  0
    0.8491   -2.2673    0.2262 H   0  0  0  0  0  0  0  0  0  0  0  0
   -0.7459   -3.0492    0.1078 H   0  0  0  0  0  0  0  0  0  0  0  0
    1.6118   -0.2050   -0.6411 H   0  0  0  0  0  0  0  0  0  0  0  0
    4.3250    1.1792   -0.9228 H   0  0  0  0  0  0  0  0  0  0  0  0
    6.3079   -2.0185    1.7877 H   0  0  0  0  0  0  0  0  0  0  0  0
    8.5241   -2.8218    0.9547 H   0  0  0  0  0  0  0  0  0  0  0  0
    8.1153   -0.2063   -2.3312 H   0  0  0  0  0  0  0  0  0  0  0  0
    3.5082    2.8386    1.5534 H   0  0  0  0  0  0  0  0  0  0  0  0
    1.2869    3.6872    2.3581 H   0  0  0  0  0  0  0  0  0  0  0  0
   -3.3360   -0.5028   -0.5247 H   0  0  0  0  0  0  0  0  0  0  0  0
   -5.0580   -1.3108   -1.0303 H   0  0  0  0  0  0  0  0  0  0  0  0
   -7.2191   -2.2755   -1.6271 H   0  0  0  0  0  0  0  0  0  0  0  0
   -7.0628    1.5976    1.3156 H   0  0  0  0  0  0  0  0  0  0  0  0
  1  2  1  0
  2  3  2  0
  3  4  1  0
  4  5  1  0
  5  6  1  0
  6  7  1  0
  4  8  1  0
  8  9  2  0
  9 10  1  0
 10 11  1  0
 11 12  1  0
 12 13  2  0
 12 14  1  0
 14 15  2  0
 15 16  1  0
 16 17  2  0
 17 18  1  0
 17 19  1  0
 19 20  2  0
 10 21  2  0
 21 22  1  0
 22 23  2  0
 23 24  1  0
 24 25  1  0
 25 26  2  0
 26 27  1  0
 27 28  2  0
 28 29  1  0
 29 30  2  0
 30 31  1  0
 31 32  2  0
 32 33  1  0
 33 34  1  0
 33 35  2  0
 28 36  1  0
 36 37  2  0
 37 38  1  0
  7  2  1  0
 23  8  1  0
 37 25  1  0
 26  4  1  0
 35 29  1  0
 20 14  1  0
  1 39  1  0
  1 40  1  0
  5 41  1  0
  5 42  1  0
  6 43  1  0
  6 44  1  0
  9 45  1  0
 11 46  1  0
 15 47  1  0
 16 48  1  0
 19 49  1  0
 21 50  1  0
 22 51  1  0
 27 52  1  0
 30 53  1  0
 31 54  1  0
 35 55  1  0
M  END
$$$$
