@<TRIPOS>MOLECULE
*****
 69 70 0 0 0
SMALL
GASTEIGER

@<TRIPOS>ATOM
      1 C           1.3029    1.7501   -0.7491 C.3     1  UNL1        0.0577
      2 O           1.8085    2.9644   -1.2269 O.3     1  UNL1       -0.3917
      3 C           2.5383    0.8880   -0.4716 C.3     1  UNL1       -0.0268
      4 C           3.4288    1.5282    0.5404 C.3     1  UNL1       -0.0507
      5 C           4.6629    0.6579    0.8119 C.3     1  UNL1       -0.0530
      6 C           5.4629    0.4504   -0.4436 C.3     1  UNL1       -0.0531
      7 C           6.7050   -0.4160   -0.2072 C.3     1  UNL1       -0.0533
      8 C           7.6397    0.2049    0.8062 C.3     1  UNL1       -0.0559
      9 C           8.8545   -0.6985    1.0003 C.3     1  UNL1       -0.0653
     10 C           0.4398    1.0662   -1.7863 C.3     1  UNL1        0.0022
     11 C          -0.0938   -0.2347   -1.2554 C.3     1  UNL1        0.0929
     12 O          -0.8670   -0.0478   -0.1186 O.3     1  UNL1       -0.3385
     13 C          -1.6812   -1.1350    0.0576 C.3     1  UNL1        0.2251
     14 C          -1.1710   -1.9553    1.1886 C.3     1  UNL1        0.1009
     15 O           0.1240   -2.3636    0.8640 O.3     1  UNL1       -0.3896
     16 O          -2.9791   -0.6990    0.1684 O.3     1  UNL1       -0.3125
     17 C          -3.2693    0.1567    1.1961 C.3     1  UNL1        0.1912
     18 O          -3.6578    1.3659    0.6225 O.3     1  UNL1       -0.3404
     19 C          -4.7862    1.3138   -0.1307 C.3     1  UNL1        0.1130
     20 C          -5.6141    2.5567    0.1968 C.3     1  UNL1        0.0730
     21 O          -6.7863    2.5416   -0.5590 O.3     1  UNL1       -0.3924
     22 C          -5.6192    0.0977   -0.0634 C.3     1  UNL1        0.1119
     23 O          -5.4473   -0.6863   -1.2263 O.3     1  UNL1       -0.3865
     24 C          -5.5251   -0.7218    1.1773 C.3     1  UNL1        0.1141
     25 O          -6.7088   -0.7580    1.9219 O.3     1  UNL1       -0.3864
     26 C          -4.4143   -0.2646    2.0786 C.3     1  UNL1        0.1342
     27 O          -4.1174   -1.2358    2.9978 O.3     1  UNL1       -0.3841
     28 C          -1.6426   -1.9403   -1.2442 C.3     1  UNL1        0.1394
     29 O          -2.8900   -2.3956   -1.6254 O.3     1  UNL1       -0.3837
     30 C          -1.1075   -0.8582   -2.1925 C.3     1  UNL1        0.1124
     31 O          -0.5176   -1.4314   -3.3175 O.3     1  UNL1       -0.3865
     32 H           0.7285    1.9356    0.1735 H       1  UNL1        0.0594
     33 H           2.7424    2.8793   -1.5812 H       1  UNL1        0.2098
     34 H           2.2664   -0.1190   -0.1194 H       1  UNL1        0.0290
     35 H           3.1060    0.8824   -1.4422 H       1  UNL1        0.0290
     36 H           3.8327    2.5089    0.2156 H       1  UNL1        0.0266
     37 H           2.9312    1.7181    1.5125 H       1  UNL1        0.0266
     38 H           5.2857    1.0821    1.6007 H       1  UNL1        0.0265
     39 H           4.3061   -0.3426    1.1311 H       1  UNL1        0.0265
     40 H           4.9012   -0.0623   -1.2334 H       1  UNL1        0.0265
     41 H           5.8580    1.4076   -0.8529 H       1  UNL1        0.0265
     42 H           6.4038   -1.4226    0.0892 H       1  UNL1        0.0265
     43 H           7.2152   -0.4712   -1.1960 H       1  UNL1        0.0265
     44 H           7.1449    0.2623    1.7789 H       1  UNL1        0.0263
     45 H           8.0130    1.1778    0.4205 H       1  UNL1        0.0263
     46 H           8.5880   -1.4697    1.7492 H       1  UNL1        0.0230
     47 H           9.6654   -0.0643    1.4088 H       1  UNL1        0.0230
     48 H           9.1593   -1.1952    0.0531 H       1  UNL1        0.0230
     49 H          -0.4110    1.7444   -2.0072 H       1  UNL1        0.0316
     50 H           1.0525    0.8428   -2.6820 H       1  UNL1        0.0316
     51 H           0.7232   -0.9439   -1.1642 H       1  UNL1        0.0624
     52 H          -1.0634   -1.3287    2.0904 H       1  UNL1        0.0612
     53 H          -1.7283   -2.8953    1.3565 H       1  UNL1        0.0612
     54 H           0.8179   -2.0376    1.4646 H       1  UNL1        0.2096
     55 H          -2.4230    0.4261    1.8562 H       1  UNL1        0.0939
     56 H          -4.4620    1.4631   -1.2003 H       1  UNL1        0.0647
     57 H          -5.0870    3.4922   -0.0292 H       1  UNL1        0.0584
     58 H          -5.8952    2.5935    1.2749 H       1  UNL1        0.0584
     59 H          -7.0748    3.4454   -0.8512 H       1  UNL1        0.2095
     60 H          -6.7007    0.4191   -0.1294 H       1  UNL1        0.0647
     61 H          -4.8924   -0.1944   -1.9096 H       1  UNL1        0.2100
     62 H          -5.2942   -1.7736    0.8725 H       1  UNL1        0.0648
     63 H          -7.4227   -1.2424    1.4115 H       1  UNL1        0.2100
     64 H          -4.7250    0.6493    2.6427 H       1  UNL1        0.0671
     65 H          -4.7966   -1.9641    3.0422 H       1  UNL1        0.2101
     66 H          -0.8797   -2.7258   -1.1973 H       1  UNL1        0.0675
     67 H          -3.0035   -3.3748   -1.5895 H       1  UNL1        0.2101
     68 H          -1.9362   -0.1609   -2.4533 H       1  UNL1        0.0647
     69 H          -1.0172   -2.2849   -3.5173 H       1  UNL1        0.2100
@<TRIPOS>BOND
     1     1     2    1
     2     1     3    1
     3     3     4    1
     4     4     5    1
     5     5     6    1
     6     6     7    1
     7     7     8    1
     8     8     9    1
     9     1    10    1
    10    10    11    1
    11    11    12    1
    12    12    13    1
    13    13    14    1
    14    14    15    1
    15    13    16    1
    16    16    17    1
    17    17    18    1
    18    18    19    1
    19    19    20    1
    20    20    21    1
    21    19    22    1
    22    22    23    1
    23    22    24    1
    24    24    25    1
    25    24    26    1
    26    26    27    1
    27    13    28    1
    28    28    29    1
    29    28    30    1
    30    30    31    1
    31    30    11    1
    32    26    17    1
    33     1    32    1
    34     2    33    1
    35     3    34    1
    36     3    35    1
    37     4    36    1
    38     4    37    1
    39     5    38    1
    40     5    39    1
    41     6    40    1
    42     6    41    1
    43     7    42    1
    44     7    43    1
    45     8    44    1
    46     8    45    1
    47     9    46    1
    48     9    47    1
    49     9    48    1
    50    10    49    1
    51    10    50    1
    52    11    51    1
    53    14    52    1
    54    14    53    1
    55    15    54    1
    56    17    55    1
    57    19    56    1
    58    20    57    1
    59    20    58    1
    60    21    59    1
    61    22    60    1
    62    23    61    1
    63    24    62    1
    64    25    63    1
    65    26    64    1
    66    27    65    1
    67    28    66    1
    68    29    67    1
    69    30    68    1
    70    31    69    1
