@<TRIPOS>MOLECULE
*****
 33 35 0 0 0
SMALL
GASTEIGER

@<TRIPOS>ATOM
      1 O          -5.5193   -1.9714   -1.4538 O.2     1  UNL1       -0.2490
      2 C          -4.7529   -1.0752   -1.0166 C.2     1  UNL1        0.3248
      3 O          -5.1643   -0.2636    0.0303 O.3     1  UNL1       -0.4794
      4 C          -3.4202   -0.9259   -1.6535 C.3     1  UNL1        0.1243
      5 N          -2.6682    0.1479   -1.0318 N.ar    1  UNL1       -0.2896
      6 C          -2.7196    1.4097   -1.4482 C.ar    1  UNL1        0.0151
      7 C          -1.9704    2.3994   -0.8063 C.ar    1  UNL1        0.0194
      8 C          -1.1648    2.0886    0.2689 C.ar    1  UNL1        0.2569
      9 O          -0.5046    3.0019    0.8229 O.2     1  UNL1       -0.2675
     10 N          -1.1413    0.8015    0.6582 N.ar    1  UNL1       -0.2544
     11 C          -0.3292    0.4086    1.7645 C.3     1  UNL1        0.0794
     12 C           1.0317    0.0271    1.2579 C.ar    1  UNL1        0.0995
     13 N           1.7082   -0.8261    0.8607 N.ar    1  UNL1       -0.2407
     14 C           2.9623   -0.8176    0.4730 C.ar    1  UNL1        0.0968
     15 C           3.7671   -1.8603   -0.0056 C.ar    1  UNL1        0.0674
     16 CL          3.2019   -3.5040   -0.1906 Cl      1  UNL1       -0.0813
     17 C           5.0717   -1.6132   -0.3565 C.ar    1  UNL1       -0.0413
     18 C           5.6886   -0.3923   -0.2803 C.ar    1  UNL1       -0.0592
     19 C           4.8946    0.6476    0.1944 C.ar    1  UNL1       -0.0458
     20 C           3.5849    0.4106    0.5491 C.ar    1  UNL1        0.0407
     21 S           2.2763    1.4665    1.1871 S.2     1  UNL1       -0.0703
     22 C          -1.8704   -0.1418    0.0281 C.ar    1  UNL1        0.3328
     23 O          -1.8290   -1.3475    0.4166 O.2     1  UNL1       -0.2462
     24 H          -6.0910   -0.4218    0.4058 H       1  UNL1        0.2951
     25 H          -3.5130   -0.6970   -2.7156 H       1  UNL1        0.0609
     26 H          -2.8328   -1.8536   -1.5371 H       1  UNL1        0.0609
     27 H          -3.3382    1.6885   -2.2850 H       1  UNL1        0.0812
     28 H          -2.0574    3.3997   -1.1933 H       1  UNL1        0.0686
     29 H          -0.7460   -0.4739    2.2940 H       1  UNL1        0.0565
     30 H          -0.2820    1.2807    2.4661 H       1  UNL1        0.0565
     31 H           5.7147   -2.4265   -0.7346 H       1  UNL1        0.0633
     32 H           6.7076   -0.2052   -0.5557 H       1  UNL1        0.0618
     33 H           5.3050    1.6384    0.2843 H       1  UNL1        0.0629
@<TRIPOS>BOND
     1     1     2    2
     2     2     3    1
     3     2     4    1
     4     4     5    1
     5     5     6   ar
     6     6     7   ar
     7     7     8   ar
     8     8     9    2
     9     8    10   ar
    10    10    11    1
    11    11    12    1
    12    12    13   ar
    13    13    14   ar
    14    14    15   ar
    15    15    16    1
    16    15    17   ar
    17    17    18   ar
    18    18    19   ar
    19    19    20   ar
    20    20    21   ar
    21    10    22   ar
    22    22    23    2
    23    22     5   ar
    24    21    12   ar
    25    20    14   ar
    26     3    24    1
    27     4    25    1
    28     4    26    1
    29     6    27    1
    30     7    28    1
    31    11    29    1
    32    11    30    1
    33    17    31    1
    34    18    32    1
    35    19    33    1
