
     RDKit          3D

 33 35  0  0  0  0  0  0  0  0999 V2000
   -5.5193   -1.9714   -1.4538 O   0  0  0  0  0  0  0  0  0  0  0  0
   -4.7529   -1.0752   -1.0166 C   0  0  0  0  0  0  0  0  0  0  0  0
   -5.1643   -0.2636    0.0303 O   0  0  0  0  0  0  0  0  0  0  0  0
   -3.4202   -0.9259   -1.6535 C   0  0  0  0  0  0  0  0  0  0  0  0
   -2.6682    0.1479   -1.0318 N   0  0  0  0  0  0  0  0  0  0  0  0
   -2.7196    1.4097   -1.4482 C   0  0  0  0  0  0  0  0  0  0  0  0
   -1.9704    2.3994   -0.8063 C   0  0  0  0  0  0  0  0  0  0  0  0
   -1.1648    2.0886    0.2689 C   0  0  0  0  0  0  0  0  0  0  0  0
   -0.5046    3.0019    0.8229 O   0  0  0  0  0  0  0  0  0  0  0  0
   -1.1413    0.8015    0.6582 N   0  0  0  0  0  0  0  0  0  0  0  0
   -0.3292    0.4086    1.7645 C   0  0  0  0  0  0  0  0  0  0  0  0
    1.0317    0.0271    1.2579 C   0  0  0  0  0  0  0  0  0  0  0  0
    1.7082   -0.8261    0.8607 N   0  0  0  0  0  0  0  0  0  0  0  0
    2.9623   -0.8176    0.4730 C   0  0  0  0  0  0  0  0  0  0  0  0
    3.7671   -1.8603   -0.0056 C   0  0  0  0  0  0  0  0  0  0  0  0
    3.2019   -3.5040   -0.1906 Cl  0  0  0  0  0  0  0  0  0  0  0  0
    5.0717   -1.6132   -0.3565 C   0  0  0  0  0  0  0  0  0  0  0  0
    5.6886   -0.3923   -0.2803 C   0  0  0  0  0  0  0  0  0  0  0  0
    4.8946    0.6476    0.1944 C   0  0  0  0  0  0  0  0  0  0  0  0
    3.5849    0.4106    0.5491 C   0  0  0  0  0  0  0  0  0  0  0  0
    2.2763    1.4665    1.1871 S   0  0  0  0  0  0  0  0  0  0  0  0
   -1.8704   -0.1418    0.0281 C   0  0  0  0  0  0  0  0  0  0  0  0
   -1.8290   -1.3475    0.4166 O   0  0  0  0  0  0  0  0  0  0  0  0
   -6.0910   -0.4218    0.4058 H   0  0  0  0  0  0  0  0  0  0  0  0
   -3.5130   -0.6970   -2.7156 H   0  0  0  0  0  0  0  0  0  0  0  0
   -2.8328   -1.8536   -1.5371 H   0  0  0  0  0  0  0  0  0  0  0  0
   -3.3382    1.6885   -2.2850 H   0  0  0  0  0  0  0  0  0  0  0  0
   -2.0574    3.3997   -1.1933 H   0  0  0  0  0  0  0  0  0  0  0  0
   -0.7460   -0.4739    2.2940 H   0  0  0  0  0  0  0  0  0  0  0  0
   -0.2820    1.2807    2.4661 H   0  0  0  0  0  0  0  0  0  0  0  0
    5.7147   -2.4265   -0.7346 H   0  0  0  0  0  0  0  0  0  0  0  0
    6.7076   -0.2052   -0.5557 H   0  0  0  0  0  0  0  0  0  0  0  0
    5.3050    1.6384    0.2843 H   0  0  0  0  0  0  0  0  0  0  0  0
  1  2  2  0
  2  3  1  0
  2  4  1  0
  4  5  1  0
  5  6  1  0
  6  7  2  0
  7  8  1  0
  8  9  2  0
  8 10  1  0
 10 11  1  0
 11 12  1  0
 12 13  2  0
 13 14  1  0
 14 15  2  0
 15 16  1  0
 15 17  1  0
 17 18  2  0
 18 19  1  0
 19 20  2  0
 20 21  1  0
 10 22  1  0
 22 23  2  0
 22  5  1  0
 21 12  1  0
 20 14  1  0
  3 24  1  0
  4 25  1  0
  4 26  1  0
  6 27  1  0
  7 28  1  0
 11 29  1  0
 11 30  1  0
 17 31  1  0
 18 32  1  0
 19 33  1  0
M  END
$$$$
