
     RDKit          3D

 62 66  0  0  0  0  0  0  0  0999 V2000
   -9.2370    2.0519   -1.9984 C   0  0  0  0  0  0  0  0  0  0  0  0
   -7.6488    2.6086   -1.3526 S   0  0  0  0  0  0  0  0  0  0  0  0
   -6.8984    1.3280   -0.3771 C   0  0  0  0  0  0  0  0  0  0  0  0
   -6.0735    0.4235   -0.9781 C   0  0  0  0  0  0  0  0  0  0  0  0
   -5.4720   -0.5878   -0.2395 C   0  0  0  0  0  0  0  0  0  0  0  0
   -5.7290   -0.6532    1.1097 C   0  0  0  0  0  0  0  0  0  0  0  0
   -5.0862   -1.7328    1.9122 C   0  0  0  0  0  0  0  0  0  0  0  0
   -3.7968   -1.2369    2.4001 N   0  0  0  0  0  0  0  0  0  0  0  0
   -3.6744   -0.5389    3.6264 C   0  0  0  0  0  0  0  0  0  0  0  0
   -4.5853   -0.2403    4.4564 O   0  0  0  0  0  0  0  0  0  0  0  0
   -2.2649   -0.2064    3.7822 C   0  0  0  0  0  0  0  0  0  0  0  0
   -1.7102    0.4049    4.7145 O   0  0  0  0  0  0  0  0  0  0  0  0
   -1.5698   -0.7273    2.6186 C   0  0  0  0  0  0  0  0  0  0  0  0
   -0.2521   -0.7085    2.2392 C   0  0  0  0  0  0  0  0  0  0  0  0
    0.1614   -1.2864    1.0658 C   0  0  0  0  0  0  0  0  0  0  0  0
    1.8367   -1.2184    0.6543 S   0  0  0  0  0  6  0  0  0  0  0  0
    2.2353   -2.4735   -0.0560 O   0  0  0  0  0  0  0  0  0  0  0  0
    2.6713   -1.0964    1.9181 O   0  0  0  0  0  0  0  0  0  0  0  0
    2.2079    0.1652   -0.3514 N   0  0  0  0  0  0  0  0  0  0  0  0
    1.4572    0.0400   -1.5858 C   0  0  0  0  0  0  0  0  0  0  0  0
    2.3488    0.5367   -2.6780 C   0  0  0  0  0  0  0  0  0  0  0  0
    3.7065    0.6634   -2.0711 C   0  0  0  0  0  0  0  0  0  0  0  0
    3.5768    0.0546   -0.7181 C   0  0  1  0  0  0  0  0  0  0  0  0
    4.4896    0.8645    0.2318 C   0  0  0  0  0  0  0  0  0  0  0  0
    5.7232    0.7227   -0.1480 O   0  0  0  0  0  0  0  0  0  0  0  0
    6.9264    0.5934   -0.5418 C   0  0  0  0  0  0  0  0  0  0  0  0
    7.9126    0.0457    0.2829 C   0  0  0  0  0  0  0  0  0  0  0  0
    9.2069   -0.1114   -0.0929 C   0  0  0  0  0  0  0  0  0  0  0  0
    9.5883    0.2818   -1.3446 C   0  0  0  0  0  0  0  0  0  0  0  0
    8.6713    0.8287   -2.2095 C   0  0  0  0  0  0  0  0  0  0  0  0
    7.3642    0.9809   -1.8136 C   0  0  0  0  0  0  0  0  0  0  0  0
   -0.7678   -1.8910    0.2650 C   0  0  0  0  0  0  0  0  0  0  0  0
   -2.1089   -1.9198    0.6333 C   0  0  0  0  0  0  0  0  0  0  0  0
   -2.5256   -1.3438    1.8045 C   0  0  0  0  0  0  0  0  0  0  0  0
   -6.5594    0.2522    1.7312 C   0  0  0  0  0  0  0  0  0  0  0  0
   -7.1397    1.2425    0.9693 C   0  0  0  0  0  0  0  0  0  0  0  0
   -9.4722    1.0132   -1.7368 H   0  0  0  0  0  0  0  0  0  0  0  0
  -10.0785    2.6683   -1.5981 H   0  0  0  0  0  0  0  0  0  0  0  0
   -9.2323    2.2029   -3.1051 H   0  0  0  0  0  0  0  0  0  0  0  0
   -5.8676    0.4677   -2.0315 H   0  0  0  0  0  0  0  0  0  0  0  0
   -4.8342   -1.2769   -0.7403 H   0  0  0  0  0  0  0  0  0  0  0  0
   -4.9153   -2.5951    1.2517 H   0  0  0  0  0  0  0  0  0  0  0  0
   -5.7214   -2.0054    2.7741 H   0  0  0  0  0  0  0  0  0  0  0  0
    0.4530   -0.2213    2.8973 H   0  0  0  0  0  0  0  0  0  0  0  0
    0.5161    0.6216   -1.4990 H   0  0  0  0  0  0  0  0  0  0  0  0
    1.2250   -1.0424   -1.7195 H   0  0  0  0  0  0  0  0  0  0  0  0
    2.3330   -0.1971   -3.5351 H   0  0  0  0  0  0  0  0  0  0  0  0
    2.0204    1.5174   -3.0498 H   0  0  0  0  0  0  0  0  0  0  0  0
    4.4936    0.1481   -2.6622 H   0  0  0  0  0  0  0  0  0  0  0  0
    4.0006    1.7249   -1.9595 H   0  0  0  0  0  0  0  0  0  0  0  0
    3.9215   -1.0121   -0.6732 H   0  0  0  0  0  0  0  0  0  0  0  0
    4.2191    0.5239    1.2896 H   0  0  0  0  0  0  0  0  0  0  0  0
    4.0417    1.9181    0.1863 H   0  0  0  0  0  0  0  0  0  0  0  0
    7.6098   -0.2693    1.2834 H   0  0  0  0  0  0  0  0  0  0  0  0
    9.9299   -0.5374    0.5770 H   0  0  0  0  0  0  0  0  0  0  0  0
   10.6208    0.1593   -1.6502 H   0  0  0  0  0  0  0  0  0  0  0  0
    8.9466    1.1513   -3.2142 H   0  0  0  0  0  0  0  0  0  0  0  0
    6.6684    1.4059   -2.4949 H   0  0  0  0  0  0  0  0  0  0  0  0
   -0.4860   -2.3655   -0.6801 H   0  0  0  0  0  0  0  0  0  0  0  0
   -2.8416   -2.3998   -0.0045 H   0  0  0  0  0  0  0  0  0  0  0  0
   -6.7362    0.1698    2.7828 H   0  0  0  0  0  0  0  0  0  0  0  0
   -7.7984    1.9642    1.4529 H   0  0  0  0  0  0  0  0  0  0  0  0
  1  2  1  0
  2  3  1  0
  3  4  2  0
  4  5  1  0
  5  6  2  0
  6  7  1  0
  7  8  1  0
  8  9  1  0
  9 10  2  0
  9 11  1  0
 11 12  2  0
 11 13  1  0
 13 14  2  0
 14 15  1  0
 15 16  1  0
 16 17  2  0
 16 18  2  0
 16 19  1  0
 19 20  1  0
 20 21  1  0
 21 22  1  0
 22 23  1  0
 23 24  1  0
 24 25  1  0
 25 26  1  0
 26 27  2  0
 27 28  1  0
 28 29  2  0
 29 30  1  0
 30 31  2  0
 15 32  2  0
 32 33  1  0
 33 34  2  0
  6 35  1  0
 35 36  2  0
 36  3  1  0
 34  8  1  0
 34 13  1  0
 23 19  1  0
 31 26  1  0
  1 37  1  0
  1 38  1  0
  1 39  1  0
  4 40  1  0
  5 41  1  0
  7 42  1  0
  7 43  1  0
 14 44  1  0
 20 45  1  0
 20 46  1  0
 21 47  1  0
 21 48  1  0
 22 49  1  0
 22 50  1  0
 23 51  1  6
 24 52  1  0
 24 53  1  0
 27 54  1  0
 28 55  1  0
 29 56  1  0
 30 57  1  0
 31 58  1  0
 32 59  1  0
 33 60  1  0
 35 61  1  0
 36 62  1  0
M  END
$$$$
