@<TRIPOS>MOLECULE
*****
 62 66 0 0 0
SMALL
GASTEIGER

@<TRIPOS>ATOM
      1 C          -9.2370    2.0519   -1.9984 C.3     1  UNL1       -0.0135
      2 S          -7.6488    2.6086   -1.3526 S.3     1  UNL1       -0.1286
      3 C          -6.8984    1.3280   -0.3771 C.ar    1  UNL1        0.0076
      4 C          -6.0735    0.4235   -0.9781 C.ar    1  UNL1       -0.0480
      5 C          -5.4720   -0.5878   -0.2395 C.ar    1  UNL1       -0.0560
      6 C          -5.7290   -0.6532    1.1097 C.ar    1  UNL1       -0.0296
      7 C          -5.0862   -1.7328    1.9122 C.3     1  UNL1        0.0452
      8 N          -3.7968   -1.2369    2.4001 N.am    1  UNL1       -0.2598
      9 C          -3.6744   -0.5389    3.6264 C.2     1  UNL1        0.2915
     10 O          -4.5853   -0.2403    4.4564 O.2     1  UNL1       -0.2661
     11 C          -2.2649   -0.2064    3.7822 C.2     1  UNL1        0.2496
     12 O          -1.7102    0.4049    4.7145 O.2     1  UNL1       -0.2817
     13 C          -1.5698   -0.7273    2.6186 C.ar    1  UNL1        0.0502
     14 C          -0.2521   -0.7085    2.2392 C.ar    1  UNL1       -0.0226
     15 C           0.1614   -1.2864    1.0658 C.ar    1  UNL1        0.1063
     16 S           1.8367   -1.2184    0.6543 S.O2    1  UNL1        0.0612
     17 O           2.2353   -2.4735   -0.0560 O.2     1  UNL1       -0.1528
     18 O           2.6713   -1.0964    1.9181 O.2     1  UNL1       -0.1528
     19 N           2.2079    0.1652   -0.3514 N.3     1  UNL1       -0.1703
     20 C           1.4572    0.0400   -1.5858 C.3     1  UNL1        0.0210
     21 C           2.3488    0.5367   -2.6780 C.3     1  UNL1       -0.0370
     22 C           3.7065    0.6634   -2.0711 C.3     1  UNL1       -0.0313
     23 C           3.5768    0.0546   -0.7181 C.3     1  UNL1        0.0659
     24 C           4.4896    0.8645    0.2318 C.3     1  UNL1        0.1067
     25 O           5.7232    0.7227   -0.1480 O.3     1  UNL1       -0.4904
     26 C           6.9264    0.5934   -0.5418 C.ar    1  UNL1        0.1206
     27 C           7.9126    0.0457    0.2829 C.ar    1  UNL1       -0.0199
     28 C           9.2069   -0.1114   -0.0929 C.ar    1  UNL1       -0.0583
     29 C           9.5883    0.2818   -1.3446 C.ar    1  UNL1       -0.0615
     30 C           8.6713    0.8287   -2.2095 C.ar    1  UNL1       -0.0583
     31 C           7.3642    0.9809   -1.8136 C.ar    1  UNL1       -0.0199
     32 C          -0.7678   -1.8910    0.2650 C.ar    1  UNL1       -0.0335
     33 C          -2.1089   -1.9198    0.6333 C.ar    1  UNL1       -0.0377
     34 C          -2.5256   -1.3438    1.8045 C.ar    1  UNL1        0.0481
     35 C          -6.5594    0.2522    1.7312 C.ar    1  UNL1       -0.0560
     36 C          -7.1397    1.2425    0.9693 C.ar    1  UNL1       -0.0480
     37 H          -9.4722    1.0132   -1.7368 H       1  UNL1        0.0344
     38 H         -10.0785    2.6683   -1.5981 H       1  UNL1        0.0344
     39 H          -9.2323    2.2029   -3.1051 H       1  UNL1        0.0344
     40 H          -5.8676    0.4677   -2.0315 H       1  UNL1        0.0629
     41 H          -4.8342   -1.2769   -0.7403 H       1  UNL1        0.0621
     42 H          -4.9153   -2.5951    1.2517 H       1  UNL1        0.0518
     43 H          -5.7214   -2.0054    2.7741 H       1  UNL1        0.0518
     44 H           0.4530   -0.2213    2.8973 H       1  UNL1        0.0645
     45 H           0.5161    0.6216   -1.4990 H       1  UNL1        0.0444
     46 H           1.2250   -1.0424   -1.7195 H       1  UNL1        0.0444
     47 H           2.3330   -0.1971   -3.5351 H       1  UNL1        0.0279
     48 H           2.0204    1.5174   -3.0498 H       1  UNL1        0.0279
     49 H           4.4936    0.1481   -2.6622 H       1  UNL1        0.0282
     50 H           4.0006    1.7249   -1.9595 H       1  UNL1        0.0282
     51 H           3.9215   -1.0121   -0.6732 H       1  UNL1        0.0513
     52 H           4.2191    0.5239    1.2896 H       1  UNL1        0.0713
     53 H           4.0417    1.9181    0.1863 H       1  UNL1        0.0713
     54 H           7.6098   -0.2693    1.2834 H       1  UNL1        0.0654
     55 H           9.9299   -0.5374    0.5770 H       1  UNL1        0.0619
     56 H          10.6208    0.1593   -1.6502 H       1  UNL1        0.0618
     57 H           8.9466    1.1513   -3.2142 H       1  UNL1        0.0619
     58 H           6.6684    1.4059   -2.4949 H       1  UNL1        0.0654
     59 H          -0.4860   -2.3655   -0.6801 H       1  UNL1        0.0638
     60 H          -2.8416   -2.3998   -0.0045 H       1  UNL1        0.0637
     61 H          -6.7362    0.1698    2.7828 H       1  UNL1        0.0621
     62 H          -7.7984    1.9642    1.4529 H       1  UNL1        0.0629
@<TRIPOS>BOND
     1     1     2    1
     2     2     3    1
     3     3     4   ar
     4     4     5   ar
     5     5     6   ar
     6     6     7    1
     7     7     8    1
     8     8     9   am
     9     9    10    2
    10     9    11    1
    11    11    12    2
    12    11    13    1
    13    13    14   ar
    14    14    15   ar
    15    15    16    1
    16    16    17    2
    17    16    18    2
    18    16    19    1
    19    19    20    1
    20    20    21    1
    21    21    22    1
    22    22    23    1
    23    23    24    1
    24    24    25    1
    25    25    26    1
    26    26    27   ar
    27    27    28   ar
    28    28    29   ar
    29    29    30   ar
    30    30    31   ar
    31    15    32   ar
    32    32    33   ar
    33    33    34   ar
    34     6    35   ar
    35    35    36   ar
    36    36     3   ar
    37    34     8    1
    38    34    13   ar
    39    23    19    1
    40    31    26   ar
    41     1    37    1
    42     1    38    1
    43     1    39    1
    44     4    40    1
    45     5    41    1
    46     7    42    1
    47     7    43    1
    48    14    44    1
    49    20    45    1
    50    20    46    1
    51    21    47    1
    52    21    48    1
    53    22    49    1
    54    22    50    1
    55    23    51    1
    56    24    52    1
    57    24    53    1
    58    27    54    1
    59    28    55    1
    60    29    56    1
    61    30    57    1
    62    31    58    1
    63    32    59    1
    64    33    60    1
    65    35    61    1
    66    36    62    1
