@<TRIPOS>MOLECULE
*****
 46 48 0 0 0
SMALL
GASTEIGER

@<TRIPOS>ATOM
      1 O          -1.5532   -1.3762    1.9686 O.2     1  UNL1       -0.2492
      2 C          -1.6922   -0.8698    0.8271 C.2     1  UNL1        0.3239
      3 O          -1.6117   -1.7218   -0.2657 O.3     1  UNL1       -0.4795
      4 C          -1.9338    0.5909    0.6669 C.3     1  UNL1        0.1292
      5 C          -3.2540    1.0126    1.3136 C.3     1  UNL1       -0.0003
      6 C          -4.3310    0.2666    0.6527 C.ar    1  UNL1       -0.0453
      7 C          -4.9538    0.7917   -0.4773 C.ar    1  UNL1       -0.0585
      8 C          -5.9749    0.1071   -1.1195 C.ar    1  UNL1       -0.0615
      9 C          -6.3927   -1.1091   -0.6491 C.ar    1  UNL1       -0.0617
     10 C          -5.7870   -1.6400    0.4657 C.ar    1  UNL1       -0.0615
     11 C          -4.7552   -0.9570    1.1216 C.ar    1  UNL1       -0.0585
     12 N          -2.0537    0.9562   -0.7274 N.3     1  UNL1       -0.1758
     13 S          -0.8639    2.1436   -1.0870 S.O2    1  UNL1        0.0591
     14 O          -1.0159    2.5563   -2.5403 O.2     1  UNL1       -0.1530
     15 O          -1.0527    3.3708   -0.2441 O.2     1  UNL1       -0.1530
     16 C           0.7144    1.4347   -0.8101 C.ar    1  UNL1        0.1053
     17 C           1.3247    0.6693   -1.8024 C.ar    1  UNL1       -0.0348
     18 C           2.5684    0.1094   -1.6128 C.ar    1  UNL1       -0.0522
     19 C           3.2765    0.2719   -0.4401 C.ar    1  UNL1       -0.0178
     20 C           4.5957   -0.3250   -0.2479 C.ar    1  UNL1       -0.0178
     21 C           5.3888   -0.4531   -1.3663 C.ar    1  UNL1       -0.0530
     22 C           6.6391   -0.9964   -1.3027 C.ar    1  UNL1       -0.0472
     23 C           7.1076   -1.4234   -0.0827 C.ar    1  UNL1        0.0179
     24 BR          8.8495   -2.1783   -0.0049 Br      1  UNL1       -0.0503
     25 C           6.3085   -1.2945    1.0451 C.ar    1  UNL1       -0.0472
     26 C           5.0447   -0.7458    0.9830 C.ar    1  UNL1       -0.0530
     27 C           2.6708    1.0299    0.5409 C.ar    1  UNL1       -0.0522
     28 C           1.4202    1.5978    0.3608 C.ar    1  UNL1       -0.0348
     29 H          -1.6868   -2.7125   -0.1557 H       1  UNL1        0.2951
     30 H          -1.1311    1.1329    1.1966 H       1  UNL1        0.0596
     31 H          -3.3701    2.0913    1.0611 H       1  UNL1        0.0334
     32 H          -3.2417    0.8586    2.4079 H       1  UNL1        0.0334
     33 H          -4.6484    1.7559   -0.8799 H       1  UNL1        0.0620
     34 H          -6.4266    0.5724   -2.0050 H       1  UNL1        0.0618
     35 H          -7.1839   -1.6342   -1.1510 H       1  UNL1        0.0618
     36 H          -6.1189   -2.5856    0.8231 H       1  UNL1        0.0618
     37 H          -4.2953   -1.3982    1.9995 H       1  UNL1        0.0620
     38 H          -1.9310    0.1457   -1.3709 H       1  UNL1        0.1489
     39 H           0.7593    0.5505   -2.7142 H       1  UNL1        0.0637
     40 H           3.0204   -0.4820   -2.4021 H       1  UNL1        0.0624
     41 H           5.0415   -0.1205   -2.3556 H       1  UNL1        0.0624
     42 H           7.2412   -1.0811   -2.2181 H       1  UNL1        0.0629
     43 H           6.6769   -1.6337    2.0212 H       1  UNL1        0.0629
     44 H           4.3950   -0.6293    1.8369 H       1  UNL1        0.0624
     45 H           3.2378    1.1533    1.4655 H       1  UNL1        0.0624
     46 H           0.9785    2.1979    1.1645 H       1  UNL1        0.0637
@<TRIPOS>BOND
     1     1     2    2
     2     2     3    1
     3     2     4    1
     4     4     5    1
     5     5     6    1
     6     6     7   ar
     7     7     8   ar
     8     8     9   ar
     9     9    10   ar
    10    10    11   ar
    11     4    12    1
    12    12    13    1
    13    13    14    2
    14    13    15    2
    15    13    16    1
    16    16    17   ar
    17    17    18   ar
    18    18    19   ar
    19    19    20    1
    20    20    21   ar
    21    21    22   ar
    22    22    23   ar
    23    23    24    1
    24    23    25   ar
    25    25    26   ar
    26    19    27   ar
    27    27    28   ar
    28    11     6   ar
    29    28    16   ar
    30    26    20   ar
    31     3    29    1
    32     4    30    1
    33     5    31    1
    34     5    32    1
    35     7    33    1
    36     8    34    1
    37     9    35    1
    38    10    36    1
    39    11    37    1
    40    12    38    1
    41    17    39    1
    42    18    40    1
    43    21    41    1
    44    22    42    1
    45    25    43    1
    46    26    44    1
    47    27    45    1
    48    28    46    1
