
     RDKit          3D

 56 61  0  0  0  0  0  0  0  0999 V2000
   -5.6300    0.9386   -0.2860 C   0  0  0  0  0  0  0  0  0  0  0  0
   -5.0903    0.8407   -1.5381 O   0  0  0  0  0  0  0  0  0  0  0  0
   -3.7315    0.9210   -1.5301 C   0  0  0  0  0  0  0  0  0  0  0  0
   -3.1180   -0.1922   -0.7888 C   0  0  0  0  0  0  0  0  0  0  0  0
   -3.6213   -1.2824   -0.2041 N   0  0  0  0  0  0  0  0  0  0  0  0
   -2.6822   -2.0298    0.3449 N   0  0  0  0  0  0  0  0  0  0  0  0
   -2.9615   -3.2557    1.0320 C   0  0  0  0  0  0  0  0  0  0  0  0
   -3.4489   -4.3759    0.1058 C   0  0  0  0  0  0  0  0  0  0  0  0
   -2.1902   -4.4762    0.8965 C   0  0  0  0  0  0  0  0  0  0  0  0
   -1.5110   -1.4322    0.1279 C   0  0  0  0  0  0  0  0  0  0  0  0
   -1.7296   -0.2790   -0.5770 C   0  0  0  0  0  0  0  0  0  0  0  0
   -0.4619    0.4130   -0.8290 C   0  0  0  0  0  0  0  0  0  0  0  0
   -0.4816    1.7876   -0.2693 C   0  0  0  0  0  0  0  0  0  0  0  0
   -0.2869    1.9776    1.0765 C   0  0  0  0  0  0  0  0  0  0  0  0
   -0.3009    3.2138    1.6534 C   0  0  0  0  0  0  0  0  0  0  0  0
   -0.5206    4.3328    0.8525 C   0  0  0  0  0  0  0  0  0  0  0  0
   -0.5405    5.9124    1.5576 Cl  0  0  0  0  0  0  0  0  0  0  0  0
   -0.7153    4.1237   -0.5030 C   0  0  0  0  0  0  0  0  0  0  0  0
   -0.7002    2.8785   -1.0777 C   0  0  0  0  0  0  0  0  0  0  0  0
    0.5367   -0.4353   -0.2465 N   0  0  0  0  0  0  0  0  0  0  0  0
    1.9330   -0.1813   -0.2602 C   0  0  0  0  0  0  0  0  0  0  0  0
    2.4351    0.9120   -0.9612 C   0  0  0  0  0  0  0  0  0  0  0  0
    3.7719    1.1831   -0.9755 C   0  0  0  0  0  0  0  0  0  0  0  0
    4.2984    2.3384   -1.7181 C   0  0  0  0  0  0  0  0  0  0  0  0
    4.6465    0.3718   -0.2916 C   0  0  0  0  0  0  0  0  0  0  0  0
    5.9981    0.3918   -0.1266 N   0  0  0  0  0  0  0  0  0  0  0  0
    6.3334   -0.6321    0.6366 N   0  0  0  0  0  0  0  0  0  0  0  0
    5.2370   -1.3306    0.9813 C   0  0  0  0  0  0  0  0  0  0  0  0
    5.1552   -2.5516    1.8285 C   0  0  0  0  0  0  0  0  0  0  0  0
    4.1976   -0.6934    0.3964 N   0  0  0  0  0  0  0  0  0  0  0  0
    2.8725   -0.9425    0.3970 C   0  0  0  0  0  0  0  0  0  0  0  0
   -0.0620   -1.5646    0.3607 C   0  0  0  0  0  0  0  0  0  0  0  0
    0.4112   -2.5383    0.9888 O   0  0  0  0  0  0  0  0  0  0  0  0
   -5.3603    1.9198    0.2009 H   0  0  0  0  0  0  0  0  0  0  0  0
   -5.2988    0.1608    0.3970 H   0  0  0  0  0  0  0  0  0  0  0  0
   -6.7603    0.9387   -0.3194 H   0  0  0  0  0  0  0  0  0  0  0  0
   -3.4038    1.8711   -1.0149 H   0  0  0  0  0  0  0  0  0  0  0  0
   -3.3322    0.9995   -2.5721 H   0  0  0  0  0  0  0  0  0  0  0  0
   -3.5916   -3.1270    1.9312 H   0  0  0  0  0  0  0  0  0  0  0  0
   -4.3518   -4.9276    0.3883 H   0  0  0  0  0  0  0  0  0  0  0  0
   -3.3584   -4.2126   -0.9938 H   0  0  0  0  0  0  0  0  0  0  0  0
   -2.2445   -5.2070    1.7518 H   0  0  0  0  0  0  0  0  0  0  0  0
   -1.2728   -4.5947    0.3043 H   0  0  0  0  0  0  0  0  0  0  0  0
   -0.2183    0.4874   -1.9169 H   0  0  0  0  0  0  0  0  0  0  0  0
   -0.1115    1.1208    1.7298 H   0  0  0  0  0  0  0  0  0  0  0  0
   -0.1460    3.3409    2.7019 H   0  0  0  0  0  0  0  0  0  0  0  0
   -0.8853    4.9655   -1.1302 H   0  0  0  0  0  0  0  0  0  0  0  0
   -0.8574    2.7352   -2.1531 H   0  0  0  0  0  0  0  0  0  0  0  0
    1.7679    1.5526   -1.5058 H   0  0  0  0  0  0  0  0  0  0  0  0
    5.3720    2.5190   -1.5425 H   0  0  0  0  0  0  0  0  0  0  0  0
    4.2012    2.2051   -2.8303 H   0  0  0  0  0  0  0  0  0  0  0  0
    3.7664    3.2747   -1.4544 H   0  0  0  0  0  0  0  0  0  0  0  0
    5.6450   -2.3595    2.8036 H   0  0  0  0  0  0  0  0  0  0  0  0
    4.1097   -2.8662    1.9103 H   0  0  0  0  0  0  0  0  0  0  0  0
    5.7260   -3.3430    1.3053 H   0  0  0  0  0  0  0  0  0  0  0  0
    2.5623   -1.7970    0.9556 H   0  0  0  0  0  0  0  0  0  0  0  0
  1  2  1  0
  2  3  1  0
  3  4  1  0
  4  5  2  0
  5  6  1  0
  6  7  1  0
  7  8  1  0
  8  9  1  0
  6 10  1  0
 10 11  2  0
 11 12  1  0
 12 13  1  0
 13 14  2  0
 14 15  1  0
 15 16  2  0
 16 17  1  0
 16 18  1  0
 18 19  2  0
 12 20  1  0
 20 21  1  0
 21 22  1  0
 22 23  2  0
 23 24  1  0
 23 25  1  0
 25 26  2  0
 26 27  1  0
 27 28  2  0
 28 29  1  0
 28 30  1  0
 30 31  1  0
 20 32  1  0
 32 33  2  0
 11  4  1  0
 19 13  1  0
 31 21  2  0
  9  7  1  0
 32 10  1  0
 30 25  1  0
  1 34  1  0
  1 35  1  0
  1 36  1  0
  3 37  1  0
  3 38  1  0
  7 39  1  0
  8 40  1  0
  8 41  1  0
  9 42  1  0
  9 43  1  0
 12 44  1  0
 14 45  1  0
 15 46  1  0
 18 47  1  0
 19 48  1  0
 22 49  1  0
 24 50  1  0
 24 51  1  0
 24 52  1  0
 29 53  1  0
 29 54  1  0
 29 55  1  0
 31 56  1  0
M  END
$$$$
