@<TRIPOS>MOLECULE
*****
 56 61 0 0 0
SMALL
GASTEIGER

@<TRIPOS>ATOM
      1 C          -5.6300    0.9386   -0.2860 C.3     1  UNL1        0.0369
      2 O          -5.0903    0.8407   -1.5381 O.3     1  UNL1       -0.3768
      3 C          -3.7315    0.9210   -1.5301 C.3     1  UNL1        0.0913
      4 C          -3.1180   -0.1922   -0.7888 C.ar    1  UNL1        0.0946
      5 N          -3.6213   -1.2824   -0.2041 N.ar    1  UNL1       -0.1726
      6 N          -2.6822   -2.0298    0.3449 N.ar    1  UNL1       -0.2555
      7 C          -2.9615   -3.2557    1.0320 C.3     1  UNL1        0.0537
      8 C          -3.4489   -4.3759    0.1058 C.3     1  UNL1       -0.0285
      9 C          -2.1902   -4.4762    0.8965 C.3     1  UNL1       -0.0285
     10 C          -1.5110   -1.4322    0.1279 C.ar    1  UNL1        0.1297
     11 C          -1.7296   -0.2790   -0.5770 C.ar    1  UNL1        0.0330
     12 C          -0.4619    0.4130   -0.8290 C.3     1  UNL1        0.0855
     13 C          -0.4816    1.7876   -0.2693 C.ar    1  UNL1       -0.0221
     14 C          -0.2869    1.9776    1.0765 C.ar    1  UNL1       -0.0551
     15 C          -0.3009    3.2138    1.6534 C.ar    1  UNL1       -0.0431
     16 C          -0.5206    4.3328    0.8525 C.ar    1  UNL1        0.0410
     17 CL         -0.5405    5.9124    1.5576 Cl      1  UNL1       -0.0835
     18 C          -0.7153    4.1237   -0.5030 C.ar    1  UNL1       -0.0431
     19 C          -0.7002    2.8785   -1.0777 C.ar    1  UNL1       -0.0551
     20 N           0.5367   -0.4353   -0.2465 N.am    1  UNL1       -0.2531
     21 C           1.9330   -0.1813   -0.2602 C.ar    1  UNL1        0.0545
     22 C           2.4351    0.9120   -0.9612 C.ar    1  UNL1       -0.0324
     23 C           3.7719    1.1831   -0.9755 C.ar    1  UNL1       -0.0041
     24 C           4.2984    2.3384   -1.7181 C.3     1  UNL1       -0.0361
     25 C           4.6465    0.3718   -0.2916 C.ar    1  UNL1        0.1641
     26 N           5.9981    0.3918   -0.1266 N.ar    1  UNL1       -0.1292
     27 N           6.3334   -0.6321    0.6366 N.ar    1  UNL1       -0.1340
     28 C           5.2370   -1.3306    0.9813 C.ar    1  UNL1        0.1347
     29 C           5.1552   -2.5516    1.8285 C.3     1  UNL1       -0.0041
     30 N           4.1976   -0.6934    0.3964 N.ar    1  UNL1       -0.2846
     31 C           2.8725   -0.9425    0.3970 C.ar    1  UNL1        0.0344
     32 C          -0.0620   -1.5646    0.3607 C.2     1  UNL1        0.2700
     33 O           0.4112   -2.5383    0.9888 O.2     1  UNL1       -0.2679
     34 H          -5.3603    1.9198    0.2009 H       1  UNL1        0.0524
     35 H          -5.2988    0.1608    0.3970 H       1  UNL1        0.0524
     36 H          -6.7603    0.9387   -0.3194 H       1  UNL1        0.0524
     37 H          -3.4038    1.8711   -1.0149 H       1  UNL1        0.0626
     38 H          -3.3322    0.9995   -2.5721 H       1  UNL1        0.0626
     39 H          -3.5916   -3.1270    1.9312 H       1  UNL1        0.0545
     40 H          -4.3518   -4.9276    0.3883 H       1  UNL1        0.0286
     41 H          -3.3584   -4.2126   -0.9938 H       1  UNL1        0.0286
     42 H          -2.2445   -5.2070    1.7518 H       1  UNL1        0.0286
     43 H          -1.2728   -4.5947    0.3043 H       1  UNL1        0.0286
     44 H          -0.2183    0.4874   -1.9169 H       1  UNL1        0.0606
     45 H          -0.1115    1.1208    1.7298 H       1  UNL1        0.0621
     46 H          -0.1460    3.3409    2.7019 H       1  UNL1        0.0632
     47 H          -0.8853    4.9655   -1.1302 H       1  UNL1        0.0632
     48 H          -0.8574    2.7352   -2.1531 H       1  UNL1        0.0621
     49 H           1.7679    1.5526   -1.5058 H       1  UNL1        0.0640
     50 H           5.3720    2.5190   -1.5425 H       1  UNL1        0.0279
     51 H           4.2012    2.2051   -2.8303 H       1  UNL1        0.0279
     52 H           3.7664    3.2747   -1.4544 H       1  UNL1        0.0279
     53 H           5.6450   -2.3595    2.8036 H       1  UNL1        0.0308
     54 H           4.1097   -2.8662    1.9103 H       1  UNL1        0.0308
     55 H           5.7260   -3.3430    1.3053 H       1  UNL1        0.0308
     56 H           2.5623   -1.7970    0.9556 H       1  UNL1        0.0833
@<TRIPOS>BOND
     1     1     2    1
     2     2     3    1
     3     3     4    1
     4     4     5   ar
     5     5     6   ar
     6     6     7    1
     7     7     8    1
     8     8     9    1
     9     6    10   ar
    10    10    11   ar
    11    11    12    1
    12    12    13    1
    13    13    14   ar
    14    14    15   ar
    15    15    16   ar
    16    16    17    1
    17    16    18   ar
    18    18    19   ar
    19    12    20    1
    20    20    21    1
    21    21    22   ar
    22    22    23   ar
    23    23    24    1
    24    23    25   ar
    25    25    26   ar
    26    26    27   ar
    27    27    28   ar
    28    28    29    1
    29    28    30   ar
    30    30    31   ar
    31    20    32   am
    32    32    33    2
    33    11     4   ar
    34    19    13   ar
    35    31    21   ar
    36     9     7    1
    37    32    10    1
    38    30    25   ar
    39     1    34    1
    40     1    35    1
    41     1    36    1
    42     3    37    1
    43     3    38    1
    44     7    39    1
    45     8    40    1
    46     8    41    1
    47     9    42    1
    48     9    43    1
    49    12    44    1
    50    14    45    1
    51    15    46    1
    52    18    47    1
    53    19    48    1
    54    22    49    1
    55    24    50    1
    56    24    51    1
    57    24    52    1
    58    29    53    1
    59    29    54    1
    60    29    55    1
    61    31    56    1
