@<TRIPOS>MOLECULE
*****
 50 53 0 0 0
SMALL
GASTEIGER

@<TRIPOS>ATOM
      1 C           2.5318   -3.2323   -2.1814 C.3     1  UNL1        0.0790
      2 O           3.6862   -2.7086   -1.5793 O.3     1  UNL1       -0.4914
      3 C           3.7414   -1.5875   -0.8031 C.ar    1  UNL1        0.1619
      4 C           2.6396   -0.8137   -0.5094 C.ar    1  UNL1       -0.0071
      5 C           2.7084    0.3348    0.2884 C.ar    1  UNL1        0.0042
      6 C           1.4856    1.1077    0.5559 C.ar    1  UNL1        0.0770
      7 C           1.4835    2.2422    1.3291 C.ar    1  UNL1       -0.0077
      8 C           0.3332    2.9816    1.5892 C.ar    1  UNL1        0.0999
      9 N           0.0136    4.0838    2.2729 N.ar    1  UNL1       -0.1712
     10 N          -1.3031    4.3196    2.1544 N.ar    1  UNL1       -0.2732
     11 C          -2.0156    5.4150    2.7501 C.3     1  UNL1        0.0302
     12 C          -1.8543    3.3598    1.3830 C.ar    1  UNL1        0.0380
     13 C          -0.8390    2.5028    1.0139 C.ar    1  UNL1        0.0812
     14 C          -0.8516    1.3658    0.2360 C.ar    1  UNL1        0.2265
     15 O          -2.0634    0.9592   -0.2984 O.3     1  UNL1       -0.4725
     16 C          -2.0955   -0.2058   -1.0996 C.3     1  UNL1        0.1037
     17 C          -2.5246    0.1585   -2.5030 C.3     1  UNL1       -0.0274
     18 C          -2.9858   -1.2721   -0.5011 C.3     1  UNL1        0.0196
     19 C          -2.9942   -2.4877   -1.3768 C.3     1  UNL1        0.0182
     20 N          -3.1584   -3.6023   -0.4757 N.am    1  UNL1       -0.3149
     21 C          -2.7933   -3.2370    0.8270 C.2     1  UNL1        0.2135
     22 O          -2.8045   -3.9797    1.8486 O.2     1  UNL1       -0.2758
     23 C          -2.3872   -1.8018    0.7836 C.3     1  UNL1        0.0315
     24 N           0.2972    0.7018    0.0270 N.ar    1  UNL1       -0.2122
     25 C           3.9385    0.6821    0.7864 C.ar    1  UNL1       -0.0489
     26 C           5.0880   -0.0724    0.5159 C.ar    1  UNL1       -0.0159
     27 C           4.9495   -1.1917   -0.2767 C.ar    1  UNL1        0.1585
     28 O           6.0746   -1.9643   -0.5647 O.3     1  UNL1       -0.5033
     29 H           1.6786   -3.0143   -1.5078 H       1  UNL1        0.0660
     30 H           2.3579   -2.6912   -3.1361 H       1  UNL1        0.0660
     31 H           2.5864   -4.2962   -2.4061 H       1  UNL1        0.0660
     32 H           1.6695   -1.0707   -0.8907 H       1  UNL1        0.0662
     33 H           2.3949    2.6145    1.7763 H       1  UNL1        0.0661
     34 H          -1.3215    6.1808    3.1524 H       1  UNL1        0.0473
     35 H          -2.6997    5.8773    2.0110 H       1  UNL1        0.0473
     36 H          -2.5643    5.0136    3.6352 H       1  UNL1        0.0473
     37 H          -2.8740    3.2687    1.1044 H       1  UNL1        0.0834
     38 H          -1.0778   -0.6674   -1.1990 H       1  UNL1        0.0734
     39 H          -3.4154    0.8448   -2.4453 H       1  UNL1        0.0265
     40 H          -1.6682    0.6888   -2.9828 H       1  UNL1        0.0265
     41 H          -2.7453   -0.7492   -3.0821 H       1  UNL1        0.0265
     42 H          -4.0117   -0.9424   -0.3313 H       1  UNL1        0.0356
     43 H          -2.0360   -2.6312   -1.9234 H       1  UNL1        0.0466
     44 H          -3.8234   -2.5013   -2.0942 H       1  UNL1        0.0466
     45 H          -3.5009   -4.5383   -0.7694 H       1  UNL1        0.1487
     46 H          -2.7516   -1.2386    1.6615 H       1  UNL1        0.0363
     47 H          -1.2761   -1.7799    0.6983 H       1  UNL1        0.0363
     48 H           4.0410    1.5502    1.4001 H       1  UNL1        0.0625
     49 H           6.0562    0.2000    0.9072 H       1  UNL1        0.0655
     50 H           6.6806   -2.1757    0.2296 H       1  UNL1        0.2923
@<TRIPOS>BOND
     1     1     2    1
     2     2     3    1
     3     3     4   ar
     4     4     5   ar
     5     5     6    1
     6     6     7   ar
     7     7     8   ar
     8     8     9   ar
     9     9    10   ar
    10    10    11    1
    11    10    12   ar
    12    12    13   ar
    13    13    14   ar
    14    14    15    1
    15    15    16    1
    16    16    17    1
    17    16    18    1
    18    18    19    1
    19    19    20    1
    20    20    21   am
    21    21    22    2
    22    21    23    1
    23    14    24   ar
    24     5    25   ar
    25    25    26   ar
    26    26    27   ar
    27    27    28    1
    28    27     3   ar
    29    24     6   ar
    30    13     8   ar
    31    23    18    1
    32     1    29    1
    33     1    30    1
    34     1    31    1
    35     4    32    1
    36     7    33    1
    37    11    34    1
    38    11    35    1
    39    11    36    1
    40    12    37    1
    41    16    38    1
    42    17    39    1
    43    17    40    1
    44    17    41    1
    45    18    42    1
    46    19    43    1
    47    19    44    1
    48    20    45    1
    49    23    46    1
    50    23    47    1
    51    25    48    1
    52    26    49    1
    53    28    50    1
