@<TRIPOS>MOLECULE
*****
 38 40 0 0 0
SMALL
GASTEIGER

@<TRIPOS>ATOM
      1 O          -0.9786    2.9516   -0.7461 O.3     1  UNL1       -0.3636
      2 C          -0.7434    2.3734    0.5226 C.3     1  UNL1        0.2248
      3 N           0.5381    1.7603    0.4542 N.2     1  UNL1       -0.2427
      4 C           0.9925    0.5933    0.2513 C.2     1  UNL1        0.0807
      5 C           2.4573    0.4566    0.2792 C.ar    1  UNL1        0.0358
      6 C           3.0986    0.6969   -0.9268 C.ar    1  UNL1       -0.0498
      7 C           4.4814    0.6080   -1.0634 C.ar    1  UNL1       -0.0610
      8 C           5.1989    0.2669    0.0631 C.ar    1  UNL1       -0.0590
      9 C           4.5858    0.0199    1.2862 C.ar    1  UNL1       -0.0258
     10 C           3.2104    0.1126    1.4047 C.ar    1  UNL1        0.1325
     11 F           2.5209   -0.1079    2.5475 F       1  UNL1       -0.2048
     12 C           0.2379   -0.6047   -0.0014 C.ar    1  UNL1        0.0235
     13 C          -1.1322   -0.7803    0.1334 C.ar    1  UNL1        0.0457
     14 C          -1.6477   -2.0075   -0.1597 C.ar    1  UNL1       -0.0383
     15 C          -0.8662   -3.0700   -0.5808 C.ar    1  UNL1       -0.0416
     16 C           0.5112   -2.9075   -0.7204 C.ar    1  UNL1        0.0417
     17 CL          1.5639   -4.2101   -1.2496 Cl      1  UNL1       -0.0835
     18 C           1.0283   -1.6617   -0.4221 C.ar    1  UNL1       -0.0324
     19 N          -2.1898    0.1159    0.5427 N.am    1  UNL1       -0.2661
     20 C          -3.5256   -0.3620    0.6737 C.3     1  UNL1        0.0327
     21 C          -4.3494   -0.2559   -0.5732 C.3     1  UNL1        0.0509
     22 C          -4.3973    1.1850   -0.9254 C.1     1  UNL1        0.0641
     23 N          -4.4444    2.3227   -1.2226 N.1     1  UNL1       -0.1965
     24 C          -1.8777    1.4973    0.8171 C.2     1  UNL1        0.2712
     25 O          -2.8271    2.0594    1.4672 O.2     1  UNL1       -0.2702
     26 H          -0.6395    3.9002   -0.7771 H       1  UNL1        0.2125
     27 H          -0.7631    3.2588    1.2221 H       1  UNL1        0.0952
     28 H           2.5685    0.9711   -1.8490 H       1  UNL1        0.0625
     29 H           4.9796    0.7940   -1.9972 H       1  UNL1        0.0618
     30 H           6.2688    0.1898   -0.0087 H       1  UNL1        0.0618
     31 H           5.1185   -0.2490    2.1860 H       1  UNL1        0.0646
     32 H          -2.7005   -2.2129   -0.0768 H       1  UNL1        0.0637
     33 H          -1.2291   -4.0621   -0.8250 H       1  UNL1        0.0633
     34 H           2.0973   -1.5201   -0.5259 H       1  UNL1        0.0639
     35 H          -4.0142    0.4485    1.3164 H       1  UNL1        0.0478
     36 H          -3.7095   -1.2218    1.3203 H       1  UNL1        0.0478
     37 H          -5.4023   -0.5531   -0.3869 H       1  UNL1        0.0433
     38 H          -4.0202   -0.7957   -1.4498 H       1  UNL1        0.0433
@<TRIPOS>BOND
     1     1     2    1
     2     2     3    1
     3     3     4    2
     4     4     5    1
     5     5     6   ar
     6     6     7   ar
     7     7     8   ar
     8     8     9   ar
     9     9    10   ar
    10    10    11    1
    11     4    12    1
    12    12    13   ar
    13    13    14   ar
    14    14    15   ar
    15    15    16   ar
    16    16    17    1
    17    16    18   ar
    18    13    19    1
    19    19    20    1
    20    20    21    1
    21    21    22    1
    22    22    23    3
    23    19    24   am
    24    24    25    2
    25    24     2    1
    26    10     5   ar
    27    18    12   ar
    28     1    26    1
    29     2    27    1
    30     6    28    1
    31     7    29    1
    32     8    30    1
    33     9    31    1
    34    14    32    1
    35    15    33    1
    36    18    34    1
    37    20    35    1
    38    20    36    1
    39    21    37    1
    40    21    38    1
