@<TRIPOS>MOLECULE
*****
 74 78 0 0 0
SMALL
GASTEIGER

@<TRIPOS>ATOM
      1 C          -2.2192    5.7576   -0.2250 C.3     1  UNL1        0.0788
      2 O          -1.4653    4.8969    0.5629 O.3     1  UNL1       -0.4948
      3 C          -1.7218    3.6317    0.9654 C.ar    1  UNL1        0.1243
      4 C          -2.8849    2.9787    0.6252 C.ar    1  UNL1       -0.0075
      5 C          -3.1220    1.6747    1.0573 C.ar    1  UNL1        0.0417
      6 C          -4.3527    0.9793    0.7269 C.2     1  UNL1        0.2632
      7 O          -5.2336    1.6056    0.0892 O.2     1  UNL1       -0.2686
      8 N          -4.6092   -0.3590    1.0853 N.am    1  UNL1       -0.1815
      9 S          -6.0914   -1.1752    0.6952 S.O2    1  UNL1        0.0749
     10 O          -6.4201   -2.1862    1.7605 O.2     1  UNL1       -0.1499
     11 O          -7.2094   -0.1903    0.6643 O.2     1  UNL1       -0.1499
     12 C          -5.9585   -1.9084   -0.8840 C.ar    1  UNL1        0.1115
     13 C          -4.7847   -1.7617   -1.6320 C.ar    1  UNL1       -0.0348
     14 C          -4.6796   -2.3244   -2.8662 C.ar    1  UNL1       -0.0599
     15 C          -5.7220   -3.0518   -3.4141 C.ar    1  UNL1       -0.0614
     16 C          -6.8840   -3.2115   -2.7037 C.ar    1  UNL1       -0.0570
     17 C          -6.9864   -2.6302   -1.4326 C.ar    1  UNL1       -0.0238
     18 C          -8.2400   -2.8070   -0.6582 C.3     1  UNL1       -0.0378
     19 C          -2.1725    1.0550    1.8289 C.ar    1  UNL1       -0.0491
     20 C          -0.9880    1.7220    2.1750 C.ar    1  UNL1       -0.0541
     21 C          -0.7486    3.0053    1.7528 C.ar    1  UNL1       -0.0013
     22 C           0.4669    3.7334    2.0863 C.3     1  UNL1        0.0030
     23 C           1.4466    3.8713    0.9774 C.ar    1  UNL1       -0.0177
     24 C           1.7011    4.9685    0.1885 C.ar    1  UNL1        0.0089
     25 N           2.6548    4.6710   -0.7027 N.ar    1  UNL1       -0.3494
     26 C           3.2330    5.5386   -1.7381 C.3     1  UNL1        0.0119
     27 C           3.0138    3.3786   -0.4847 C.ar    1  UNL1        0.0492
     28 C           3.9286    2.5482   -1.0822 C.ar    1  UNL1       -0.0359
     29 C           4.1072    1.2244   -0.6539 C.ar    1  UNL1       -0.0384
     30 C           3.3856    0.6928    0.3741 C.ar    1  UNL1        0.0371
     31 N           3.5188   -0.6382    0.8497 N.am    1  UNL1       -0.2511
     32 C           4.3924   -1.6223    0.3518 C.2     1  UNL1        0.4048
     33 O           5.1621   -1.3930   -0.5960 O.2     1  UNL1       -0.2261
     34 O           4.4520   -2.9134    0.8883 O.3     1  UNL1       -0.4469
     35 C           5.3489   -3.8805    0.3553 C.3     1  UNL1        0.1047
     36 C           6.3271   -4.2395    1.4750 C.3     1  UNL1       -0.0156
     37 C           7.0141   -5.4364    0.8492 C.3     1  UNL1       -0.0496
     38 C           5.9403   -6.1346    0.0568 C.3     1  UNL1       -0.0496
     39 C           4.7214   -5.2054    0.0855 C.3     1  UNL1       -0.0156
     40 C           2.4519    1.5453    0.9829 C.ar    1  UNL1       -0.0309
     41 C           2.2820    2.8469    0.5557 C.ar    1  UNL1        0.0051
     42 H          -3.0058    6.3211    0.3222 H       1  UNL1        0.0660
     43 H          -1.5136    6.4613   -0.7136 H       1  UNL1        0.0660
     44 H          -2.7086    5.1377   -1.0218 H       1  UNL1        0.0660
     45 H          -3.6478    3.4326    0.0217 H       1  UNL1        0.0662
     46 H          -3.8949   -0.9251    1.6119 H       1  UNL1        0.1769
     47 H          -3.9902   -1.1766   -1.1546 H       1  UNL1        0.0637
     48 H          -3.7562   -2.1948   -3.4205 H       1  UNL1        0.0618
     49 H          -5.6341   -3.4961   -4.3917 H       1  UNL1        0.0618
     50 H          -7.7319   -3.7652   -3.0719 H       1  UNL1        0.0621
     51 H          -8.9208   -3.5431   -1.1434 H       1  UNL1        0.0278
     52 H          -8.0034   -3.1823    0.3609 H       1  UNL1        0.0278
     53 H          -8.7867   -1.8589   -0.5846 H       1  UNL1        0.0278
     54 H          -2.2685    0.0368    2.2120 H       1  UNL1        0.0625
     55 H          -0.2648    1.1962    2.7897 H       1  UNL1        0.0622
     56 H           0.2779    4.7688    2.4614 H       1  UNL1        0.0363
     57 H           1.0184    3.2407    2.9282 H       1  UNL1        0.0363
     58 H           1.2049    5.9102    0.2880 H       1  UNL1        0.0812
     59 H           4.2994    5.2116   -1.8932 H       1  UNL1        0.0456
     60 H           2.7345    5.3410   -2.7262 H       1  UNL1        0.0456
     61 H           3.1972    6.5982   -1.4425 H       1  UNL1        0.0456
     62 H           4.5214    2.9477   -1.9093 H       1  UNL1        0.0639
     63 H           4.8450    0.6428   -1.1746 H       1  UNL1        0.0637
     64 H           2.9080   -0.9678    1.6724 H       1  UNL1        0.1582
     65 H           5.9413   -3.4727   -0.4885 H       1  UNL1        0.0734
     66 H           7.0067   -3.4163    1.7156 H       1  UNL1        0.0301
     67 H           5.7479   -4.4916    2.3771 H       1  UNL1        0.0301
     68 H           7.5121   -6.0645    1.5923 H       1  UNL1        0.0266
     69 H           7.8055   -5.0135    0.1650 H       1  UNL1        0.0266
     70 H           6.2326   -6.2524   -1.0332 H       1  UNL1        0.0266
     71 H           5.6803   -7.1388    0.4454 H       1  UNL1        0.0266
     72 H           4.0255   -5.4668    0.8789 H       1  UNL1        0.0301
     73 H           4.2295   -5.2004   -0.9264 H       1  UNL1        0.0301
     74 H           1.8847    1.1233    1.7977 H       1  UNL1        0.0643
@<TRIPOS>BOND
     1     1     2    1
     2     2     3    1
     3     3     4   ar
     4     4     5   ar
     5     5     6    1
     6     6     7    2
     7     6     8   am
     8     8     9    1
     9     9    10    2
    10     9    11    2
    11     9    12    1
    12    12    13   ar
    13    13    14   ar
    14    14    15   ar
    15    15    16   ar
    16    16    17   ar
    17    17    18    1
    18     5    19   ar
    19    19    20   ar
    20    20    21   ar
    21    21    22    1
    22    22    23    1
    23    23    24   ar
    24    24    25   ar
    25    25    26    1
    26    25    27   ar
    27    27    28   ar
    28    28    29   ar
    29    29    30   ar
    30    30    31    1
    31    31    32   am
    32    32    33    2
    33    32    34    1
    34    34    35    1
    35    35    36    1
    36    36    37    1
    37    37    38    1
    38    38    39    1
    39    30    40   ar
    40    40    41   ar
    41    21     3   ar
    42    41    23   ar
    43    17    12   ar
    44    41    27   ar
    45    39    35    1
    46     1    42    1
    47     1    43    1
    48     1    44    1
    49     4    45    1
    50     8    46    1
    51    13    47    1
    52    14    48    1
    53    15    49    1
    54    16    50    1
    55    18    51    1
    56    18    52    1
    57    18    53    1
    58    19    54    1
    59    20    55    1
    60    22    56    1
    61    22    57    1
    62    24    58    1
    63    26    59    1
    64    26    60    1
    65    26    61    1
    66    28    62    1
    67    29    63    1
    68    31    64    1
    69    35    65    1
    70    36    66    1
    71    36    67    1
    72    37    68    1
    73    37    69    1
    74    38    70    1
    75    38    71    1
    76    39    72    1
    77    39    73    1
    78    40    74    1
