
     RDKit          3D

 74 78  0  0  0  0  0  0  0  0999 V2000
   -2.2192    5.7576   -0.2250 C   0  0  0  0  0  0  0  0  0  0  0  0
   -1.4653    4.8969    0.5629 O   0  0  0  0  0  0  0  0  0  0  0  0
   -1.7218    3.6317    0.9654 C   0  0  0  0  0  0  0  0  0  0  0  0
   -2.8849    2.9787    0.6252 C   0  0  0  0  0  0  0  0  0  0  0  0
   -3.1220    1.6747    1.0573 C   0  0  0  0  0  0  0  0  0  0  0  0
   -4.3527    0.9793    0.7269 C   0  0  0  0  0  0  0  0  0  0  0  0
   -5.2336    1.6056    0.0892 O   0  0  0  0  0  0  0  0  0  0  0  0
   -4.6092   -0.3590    1.0853 N   0  0  0  0  0  0  0  0  0  0  0  0
   -6.0914   -1.1752    0.6952 S   0  0  0  0  0  6  0  0  0  0  0  0
   -6.4201   -2.1862    1.7605 O   0  0  0  0  0  0  0  0  0  0  0  0
   -7.2094   -0.1903    0.6643 O   0  0  0  0  0  0  0  0  0  0  0  0
   -5.9585   -1.9084   -0.8840 C   0  0  0  0  0  0  0  0  0  0  0  0
   -4.7847   -1.7617   -1.6320 C   0  0  0  0  0  0  0  0  0  0  0  0
   -4.6796   -2.3244   -2.8662 C   0  0  0  0  0  0  0  0  0  0  0  0
   -5.7220   -3.0518   -3.4141 C   0  0  0  0  0  0  0  0  0  0  0  0
   -6.8840   -3.2115   -2.7037 C   0  0  0  0  0  0  0  0  0  0  0  0
   -6.9864   -2.6302   -1.4326 C   0  0  0  0  0  0  0  0  0  0  0  0
   -8.2400   -2.8070   -0.6582 C   0  0  0  0  0  0  0  0  0  0  0  0
   -2.1725    1.0550    1.8289 C   0  0  0  0  0  0  0  0  0  0  0  0
   -0.9880    1.7220    2.1750 C   0  0  0  0  0  0  0  0  0  0  0  0
   -0.7486    3.0053    1.7528 C   0  0  0  0  0  0  0  0  0  0  0  0
    0.4669    3.7334    2.0863 C   0  0  0  0  0  0  0  0  0  0  0  0
    1.4466    3.8713    0.9774 C   0  0  0  0  0  0  0  0  0  0  0  0
    1.7011    4.9685    0.1885 C   0  0  0  0  0  0  0  0  0  0  0  0
    2.6548    4.6710   -0.7027 N   0  0  0  0  0  0  0  0  0  0  0  0
    3.2330    5.5386   -1.7381 C   0  0  0  0  0  0  0  0  0  0  0  0
    3.0138    3.3786   -0.4847 C   0  0  0  0  0  0  0  0  0  0  0  0
    3.9286    2.5482   -1.0822 C   0  0  0  0  0  0  0  0  0  0  0  0
    4.1072    1.2244   -0.6539 C   0  0  0  0  0  0  0  0  0  0  0  0
    3.3856    0.6928    0.3741 C   0  0  0  0  0  0  0  0  0  0  0  0
    3.5188   -0.6382    0.8497 N   0  0  0  0  0  0  0  0  0  0  0  0
    4.3924   -1.6223    0.3518 C   0  0  0  0  0  0  0  0  0  0  0  0
    5.1621   -1.3930   -0.5960 O   0  0  0  0  0  0  0  0  0  0  0  0
    4.4520   -2.9134    0.8883 O   0  0  0  0  0  0  0  0  0  0  0  0
    5.3489   -3.8805    0.3553 C   0  0  0  0  0  0  0  0  0  0  0  0
    6.3271   -4.2395    1.4750 C   0  0  0  0  0  0  0  0  0  0  0  0
    7.0141   -5.4364    0.8492 C   0  0  0  0  0  0  0  0  0  0  0  0
    5.9403   -6.1346    0.0568 C   0  0  0  0  0  0  0  0  0  0  0  0
    4.7214   -5.2054    0.0855 C   0  0  0  0  0  0  0  0  0  0  0  0
    2.4519    1.5453    0.9829 C   0  0  0  0  0  0  0  0  0  0  0  0
    2.2820    2.8469    0.5557 C   0  0  0  0  0  0  0  0  0  0  0  0
   -3.0058    6.3211    0.3222 H   0  0  0  0  0  0  0  0  0  0  0  0
   -1.5136    6.4613   -0.7136 H   0  0  0  0  0  0  0  0  0  0  0  0
   -2.7086    5.1377   -1.0218 H   0  0  0  0  0  0  0  0  0  0  0  0
   -3.6478    3.4326    0.0217 H   0  0  0  0  0  0  0  0  0  0  0  0
   -3.8949   -0.9251    1.6119 H   0  0  0  0  0  0  0  0  0  0  0  0
   -3.9902   -1.1766   -1.1546 H   0  0  0  0  0  0  0  0  0  0  0  0
   -3.7562   -2.1948   -3.4205 H   0  0  0  0  0  0  0  0  0  0  0  0
   -5.6341   -3.4961   -4.3917 H   0  0  0  0  0  0  0  0  0  0  0  0
   -7.7319   -3.7652   -3.0719 H   0  0  0  0  0  0  0  0  0  0  0  0
   -8.9208   -3.5431   -1.1434 H   0  0  0  0  0  0  0  0  0  0  0  0
   -8.0034   -3.1823    0.3609 H   0  0  0  0  0  0  0  0  0  0  0  0
   -8.7867   -1.8589   -0.5846 H   0  0  0  0  0  0  0  0  0  0  0  0
   -2.2685    0.0368    2.2120 H   0  0  0  0  0  0  0  0  0  0  0  0
   -0.2648    1.1962    2.7897 H   0  0  0  0  0  0  0  0  0  0  0  0
    0.2779    4.7688    2.4614 H   0  0  0  0  0  0  0  0  0  0  0  0
    1.0184    3.2407    2.9282 H   0  0  0  0  0  0  0  0  0  0  0  0
    1.2049    5.9102    0.2880 H   0  0  0  0  0  0  0  0  0  0  0  0
    4.2994    5.2116   -1.8932 H   0  0  0  0  0  0  0  0  0  0  0  0
    2.7345    5.3410   -2.7262 H   0  0  0  0  0  0  0  0  0  0  0  0
    3.1972    6.5982   -1.4425 H   0  0  0  0  0  0  0  0  0  0  0  0
    4.5214    2.9477   -1.9093 H   0  0  0  0  0  0  0  0  0  0  0  0
    4.8450    0.6428   -1.1746 H   0  0  0  0  0  0  0  0  0  0  0  0
    2.9080   -0.9678    1.6724 H   0  0  0  0  0  0  0  0  0  0  0  0
    5.9413   -3.4727   -0.4885 H   0  0  0  0  0  0  0  0  0  0  0  0
    7.0067   -3.4163    1.7156 H   0  0  0  0  0  0  0  0  0  0  0  0
    5.7479   -4.4916    2.3771 H   0  0  0  0  0  0  0  0  0  0  0  0
    7.5121   -6.0645    1.5923 H   0  0  0  0  0  0  0  0  0  0  0  0
    7.8055   -5.0135    0.1650 H   0  0  0  0  0  0  0  0  0  0  0  0
    6.2326   -6.2524   -1.0332 H   0  0  0  0  0  0  0  0  0  0  0  0
    5.6803   -7.1388    0.4454 H   0  0  0  0  0  0  0  0  0  0  0  0
    4.0255   -5.4668    0.8789 H   0  0  0  0  0  0  0  0  0  0  0  0
    4.2295   -5.2004   -0.9264 H   0  0  0  0  0  0  0  0  0  0  0  0
    1.8847    1.1233    1.7977 H   0  0  0  0  0  0  0  0  0  0  0  0
  1  2  1  0
  2  3  1  0
  3  4  2  0
  4  5  1  0
  5  6  1  0
  6  7  2  0
  6  8  1  0
  8  9  1  0
  9 10  2  0
  9 11  2  0
  9 12  1  0
 12 13  2  0
 13 14  1  0
 14 15  2  0
 15 16  1  0
 16 17  2  0
 17 18  1  0
  5 19  2  0
 19 20  1  0
 20 21  2  0
 21 22  1  0
 22 23  1  0
 23 24  2  0
 24 25  1  0
 25 26  1  0
 25 27  1  0
 27 28  2  0
 28 29  1  0
 29 30  2  0
 30 31  1  0
 31 32  1  0
 32 33  2  0
 32 34  1  0
 34 35  1  0
 35 36  1  0
 36 37  1  0
 37 38  1  0
 38 39  1  0
 30 40  1  0
 40 41  2  0
 21  3  1  0
 41 23  1  0
 17 12  1  0
 41 27  1  0
 39 35  1  0
  1 42  1  0
  1 43  1  0
  1 44  1  0
  4 45  1  0
  8 46  1  0
 13 47  1  0
 14 48  1  0
 15 49  1  0
 16 50  1  0
 18 51  1  0
 18 52  1  0
 18 53  1  0
 19 54  1  0
 20 55  1  0
 22 56  1  0
 22 57  1  0
 24 58  1  0
 26 59  1  0
 26 60  1  0
 26 61  1  0
 28 62  1  0
 29 63  1  0
 31 64  1  0
 35 65  1  0
 36 66  1  0
 36 67  1  0
 37 68  1  0
 37 69  1  0
 38 70  1  0
 38 71  1  0
 39 72  1  0
 39 73  1  0
 40 74  1  0
M  END
$$$$
