
     RDKit          3D

 60 64  0  0  0  0  0  0  0  0999 V2000
   -4.3193   -4.0508    2.3783 C   0  0  0  0  0  0  0  0  0  0  0  0
   -3.9019   -3.0887    1.3307 C   0  0  0  0  0  0  0  0  0  0  0  0
   -3.4684   -3.4537    0.0763 C   0  0  0  0  0  0  0  0  0  0  0  0
   -3.0808   -2.5553   -0.8927 C   0  0  0  0  0  0  0  0  0  0  0  0
   -3.1185   -1.2090   -0.6194 C   0  0  0  0  0  0  0  0  0  0  0  0
   -2.7132   -0.1972   -1.5960 C   0  0  0  0  0  0  0  0  0  0  0  0
   -3.6191    0.2922   -2.3455 O   0  0  0  0  0  0  0  0  0  0  0  0
   -1.4070    0.2706   -1.7675 N   0  0  0  0  0  0  0  0  0  0  0  0
   -1.1337    1.3024   -2.7844 C   0  0  0  0  0  0  0  0  0  0  0  0
   -0.2518    0.6050   -3.8060 C   0  0  1  0  0  0  0  0  0  0  0  0
    0.4402    1.5533   -4.7362 C   0  0  0  0  0  0  0  0  0  0  0  0
    0.7093   -0.1896   -3.1901 O   0  0  0  0  0  0  0  0  0  0  0  0
    0.9694    0.1855   -1.8959 C   0  0  0  0  0  0  0  0  0  0  0  0
   -0.2504   -0.1668   -1.0464 C   0  0  1  0  0  0  0  0  0  0  0  0
   -0.0264    0.4390    0.2892 C   0  0  0  0  0  0  0  0  0  0  0  0
    1.2187   -0.1578    0.8417 C   0  0  0  0  0  0  0  0  0  0  0  0
    2.4142    0.5271    0.8784 C   0  0  0  0  0  0  0  0  0  0  0  0
    3.5679   -0.0428    1.3987 C   0  0  0  0  0  0  0  0  0  0  0  0
    4.8264    0.7202    1.4231 C   0  0  0  0  0  0  0  0  0  0  0  0
    5.9480    0.1895    1.9273 N   0  0  0  0  0  0  0  0  0  0  0  0
    7.1191    0.8655    1.9635 C   0  0  0  0  0  0  0  0  0  0  0  0
    7.1711    2.1496    1.4654 C   0  0  0  0  0  0  0  0  0  0  0  0
    6.0248    2.7068    0.9443 C   0  0  0  0  0  0  0  0  0  0  0  0
    4.8978    1.9716    0.9431 N   0  0  0  0  0  0  0  0  0  0  0  0
    3.5483   -1.3280    1.8999 C   0  0  0  0  0  0  0  0  0  0  0  0
    2.3648   -2.0253    1.8711 C   0  0  0  0  0  0  0  0  0  0  0  0
    1.2405   -1.4372    1.3512 C   0  0  0  0  0  0  0  0  0  0  0  0
    0.0601   -2.1328    1.3225 F   0  0  0  0  0  0  0  0  0  0  0  0
   -3.5493   -0.8161    0.6302 C   0  0  0  0  0  0  0  0  0  0  0  0
   -3.6269    0.5523    0.9913 N   0  0  0  0  0  0  0  0  0  0  0  0
   -3.9564    1.5752    0.2341 N   0  0  0  0  0  0  0  0  0  0  0  0
   -3.9124    2.7219    0.9421 C   0  0  0  0  0  0  0  0  0  0  0  0
   -3.5318    2.3571    2.2024 C   0  0  0  0  0  0  0  0  0  0  0  0
   -3.3666    1.0219    2.1932 N   0  0  0  0  0  0  0  0  0  0  0  0
   -3.9399   -1.7400    1.6044 C   0  0  0  0  0  0  0  0  0  0  0  0
   -3.9044   -5.0569    2.2444 H   0  0  0  0  0  0  0  0  0  0  0  0
   -5.4411   -4.0846    2.4161 H   0  0  0  0  0  0  0  0  0  0  0  0
   -4.0142   -3.6615    3.3944 H   0  0  0  0  0  0  0  0  0  0  0  0
   -3.4519   -4.5345   -0.1040 H   0  0  0  0  0  0  0  0  0  0  0  0
   -2.7488   -2.8984   -1.8618 H   0  0  0  0  0  0  0  0  0  0  0  0
   -2.0520    1.6192   -3.3017 H   0  0  0  0  0  0  0  0  0  0  0  0
   -0.5540    2.1375   -2.3472 H   0  0  0  0  0  0  0  0  0  0  0  0
   -0.9124   -0.0847   -4.4075 H   0  0  0  0  0  0  0  0  0  0  0  0
    0.6192    1.0607   -5.7357 H   0  0  0  0  0  0  0  0  0  0  0  0
    1.4627    1.8529   -4.3844 H   0  0  0  0  0  0  0  0  0  0  0  0
   -0.1379    2.4916   -4.8576 H   0  0  0  0  0  0  0  0  0  0  0  0
    1.2116    1.2625   -1.8468 H   0  0  0  0  0  0  0  0  0  0  0  0
    1.8642   -0.3594   -1.5305 H   0  0  0  0  0  0  0  0  0  0  0  0
   -0.2167   -1.2915   -0.9653 H   0  0  0  0  0  0  0  0  0  0  0  0
    0.1692    1.5442    0.1575 H   0  0  0  0  0  0  0  0  0  0  0  0
   -0.8634    0.3821    0.9966 H   0  0  0  0  0  0  0  0  0  0  0  0
    2.4586    1.5372    0.4918 H   0  0  0  0  0  0  0  0  0  0  0  0
    8.0152    0.3981    2.3836 H   0  0  0  0  0  0  0  0  0  0  0  0
    8.0855    2.7145    1.4788 H   0  0  0  0  0  0  0  0  0  0  0  0
    6.0240    3.7315    0.5357 H   0  0  0  0  0  0  0  0  0  0  0  0
    4.4670   -1.7507    2.3020 H   0  0  0  0  0  0  0  0  0  0  0  0
    2.3614   -3.0305    2.2659 H   0  0  0  0  0  0  0  0  0  0  0  0
   -4.1329    3.7217    0.5833 H   0  0  0  0  0  0  0  0  0  0  0  0
   -3.3770    2.9789    3.0779 H   0  0  0  0  0  0  0  0  0  0  0  0
   -4.2788   -1.4025    2.5918 H   0  0  0  0  0  0  0  0  0  0  0  0
  1  2  1  0
  2  3  2  0
  3  4  1  0
  4  5  2  0
  5  6  1  0
  6  7  2  0
  6  8  1  0
  8  9  1  0
  9 10  1  0
 10 11  1  0
 10 12  1  0
 12 13  1  0
 13 14  1  0
 14 15  1  0
 15 16  1  0
 16 17  2  0
 17 18  1  0
 18 19  1  0
 19 20  2  0
 20 21  1  0
 21 22  2  0
 22 23  1  0
 23 24  2  0
 18 25  2  0
 25 26  1  0
 26 27  2  0
 27 28  1  0
  5 29  1  0
 29 30  1  0
 30 31  1  0
 31 32  2  0
 32 33  1  0
 33 34  2  0
 29 35  2  0
 35  2  1  0
 14  8  1  0
 27 16  1  0
 34 30  1  0
 24 19  1  0
  1 36  1  0
  1 37  1  0
  1 38  1  0
  3 39  1  0
  4 40  1  0
  9 41  1  0
  9 42  1  0
 10 43  1  6
 11 44  1  0
 11 45  1  0
 11 46  1  0
 13 47  1  0
 13 48  1  0
 14 49  1  1
 15 50  1  0
 15 51  1  0
 17 52  1  0
 21 53  1  0
 22 54  1  0
 23 55  1  0
 25 56  1  0
 26 57  1  0
 32 58  1  0
 33 59  1  0
 35 60  1  0
M  END
$$$$
