@<TRIPOS>MOLECULE
*****
 60 64 0 0 0
SMALL
GASTEIGER

@<TRIPOS>ATOM
      1 C          -4.3193   -4.0508    2.3783 C.3     1  UNL1       -0.0396
      2 C          -3.9019   -3.0887    1.3307 C.ar    1  UNL1       -0.0483
      3 C          -3.4684   -3.4537    0.0763 C.ar    1  UNL1       -0.0580
      4 C          -3.0808   -2.5553   -0.8927 C.ar    1  UNL1       -0.0473
      5 C          -3.1185   -1.2090   -0.6194 C.ar    1  UNL1        0.0640
      6 C          -2.7132   -0.1972   -1.5960 C.2     1  UNL1        0.2491
      7 O          -3.6191    0.2922   -2.3455 O.2     1  UNL1       -0.2699
      8 N          -1.4070    0.2706   -1.7675 N.am    1  UNL1       -0.2895
      9 C          -1.1337    1.3024   -2.7844 C.3     1  UNL1        0.0414
     10 C          -0.2518    0.6050   -3.8060 C.3     1  UNL1        0.0717
     11 C           0.4402    1.5533   -4.7362 C.3     1  UNL1       -0.0372
     12 O           0.7093   -0.1896   -3.1901 O.3     1  UNL1       -0.3734
     13 C           0.9694    0.1855   -1.8959 C.3     1  UNL1        0.0669
     14 C          -0.2504   -0.1668   -1.0464 C.3     1  UNL1        0.0538
     15 C          -0.0264    0.4390    0.2892 C.3     1  UNL1       -0.0041
     16 C           1.2187   -0.1578    0.8417 C.ar    1  UNL1       -0.0097
     17 C           2.4142    0.5271    0.8784 C.ar    1  UNL1       -0.0451
     18 C           3.5679   -0.0428    1.3987 C.ar    1  UNL1        0.0195
     19 C           4.8264    0.7202    1.4231 C.ar    1  UNL1        0.1597
     20 N           5.9480    0.1895    1.9273 N.ar    1  UNL1       -0.2357
     21 C           7.1191    0.8655    1.9635 C.ar    1  UNL1        0.0314
     22 C           7.1711    2.1496    1.4654 C.ar    1  UNL1       -0.0254
     23 C           6.0248    2.7068    0.9443 C.ar    1  UNL1        0.0314
     24 N           4.8978    1.9716    0.9431 N.ar    1  UNL1       -0.2357
     25 C           3.5483   -1.3280    1.8999 C.ar    1  UNL1       -0.0483
     26 C           2.3648   -2.0253    1.8711 C.ar    1  UNL1       -0.0255
     27 C           1.2405   -1.4372    1.3512 C.ar    1  UNL1        0.1267
     28 F           0.0601   -2.1328    1.3225 F       1  UNL1       -0.2052
     29 C          -3.5493   -0.8161    0.6302 C.ar    1  UNL1        0.0985
     30 N          -3.6269    0.5523    0.9913 N.ar    1  UNL1       -0.1496
     31 N          -3.9564    1.5752    0.2341 N.ar    1  UNL1       -0.1556
     32 C          -3.9124    2.7219    0.9421 C.ar    1  UNL1        0.0697
     33 C          -3.5318    2.3571    2.2024 C.ar    1  UNL1        0.0697
     34 N          -3.3666    1.0219    2.1932 N.ar    1  UNL1       -0.1556
     35 C          -3.9399   -1.7400    1.6044 C.ar    1  UNL1       -0.0309
     36 H          -3.9044   -5.0569    2.2444 H       1  UNL1        0.0278
     37 H          -5.4411   -4.0846    2.4161 H       1  UNL1        0.0278
     38 H          -4.0142   -3.6615    3.3944 H       1  UNL1        0.0278
     39 H          -3.4519   -4.5345   -0.1040 H       1  UNL1        0.0620
     40 H          -2.7488   -2.8984   -1.8618 H       1  UNL1        0.0626
     41 H          -2.0520    1.6192   -3.3017 H       1  UNL1        0.0490
     42 H          -0.5540    2.1375   -2.3472 H       1  UNL1        0.0490
     43 H          -0.9124   -0.0847   -4.4075 H       1  UNL1        0.0609
     44 H           0.6192    1.0607   -5.7357 H       1  UNL1        0.0255
     45 H           1.4627    1.8529   -4.3844 H       1  UNL1        0.0255
     46 H          -0.1379    2.4916   -4.8576 H       1  UNL1        0.0255
     47 H           1.2116    1.2625   -1.8468 H       1  UNL1        0.0578
     48 H           1.8642   -0.3594   -1.5305 H       1  UNL1        0.0578
     49 H          -0.2167   -1.2915   -0.9653 H       1  UNL1        0.0526
     50 H           0.1692    1.5442    0.1575 H       1  UNL1        0.0333
     51 H          -0.8634    0.3821    0.9966 H       1  UNL1        0.0333
     52 H           2.4586    1.5372    0.4918 H       1  UNL1        0.0628
     53 H           8.0152    0.3981    2.3836 H       1  UNL1        0.0831
     54 H           8.0855    2.7145    1.4788 H       1  UNL1        0.0648
     55 H           6.0240    3.7315    0.5357 H       1  UNL1        0.0831
     56 H           4.4670   -1.7507    2.3020 H       1  UNL1        0.0625
     57 H           2.3614   -3.0305    2.2659 H       1  UNL1        0.0646
     58 H          -4.1329    3.7217    0.5833 H       1  UNL1        0.0864
     59 H          -3.3770    2.9789    3.0779 H       1  UNL1        0.0864
     60 H          -4.2788   -1.4025    2.5918 H       1  UNL1        0.0642
@<TRIPOS>BOND
     1     1     2    1
     2     2     3   ar
     3     3     4   ar
     4     4     5   ar
     5     5     6    1
     6     6     7    2
     7     6     8   am
     8     8     9    1
     9     9    10    1
    10    10    11    1
    11    10    12    1
    12    12    13    1
    13    13    14    1
    14    14    15    1
    15    15    16    1
    16    16    17   ar
    17    17    18   ar
    18    18    19    1
    19    19    20   ar
    20    20    21   ar
    21    21    22   ar
    22    22    23   ar
    23    23    24   ar
    24    18    25   ar
    25    25    26   ar
    26    26    27   ar
    27    27    28    1
    28     5    29   ar
    29    29    30    1
    30    30    31   ar
    31    31    32   ar
    32    32    33   ar
    33    33    34   ar
    34    29    35   ar
    35    35     2   ar
    36    14     8    1
    37    27    16   ar
    38    34    30   ar
    39    24    19   ar
    40     1    36    1
    41     1    37    1
    42     1    38    1
    43     3    39    1
    44     4    40    1
    45     9    41    1
    46     9    42    1
    47    10    43    1
    48    11    44    1
    49    11    45    1
    50    11    46    1
    51    13    47    1
    52    13    48    1
    53    14    49    1
    54    15    50    1
    55    15    51    1
    56    17    52    1
    57    21    53    1
    58    22    54    1
    59    23    55    1
    60    25    56    1
    61    26    57    1
    62    32    58    1
    63    33    59    1
    64    35    60    1
