@<TRIPOS>MOLECULE
*****
 52 54 0 0 0
SMALL
GASTEIGER

@<TRIPOS>ATOM
      1 C           8.3426   -2.2308    2.4324 C.3     1  UNL1        0.0805
      2 O           7.6935   -0.9889    2.3676 O.3     1  UNL1       -0.4786
      3 C           6.5220   -0.7855    1.6493 C.ar    1  UNL1        0.2332
      4 C           5.9144    0.4503    1.6102 C.ar    1  UNL1        0.0899
      5 N           4.7672    0.6291    0.9008 N.ar    1  UNL1       -0.2435
      6 C           4.1890   -0.3634    0.2239 C.ar    1  UNL1        0.1439
      7 C           2.9597   -0.1741   -0.5368 C.2     1  UNL1        0.2681
      8 O           2.4493   -1.1359   -1.1597 O.2     1  UNL1       -0.2681
      9 N           2.2884    1.0714   -0.6152 N.am    1  UNL1       -0.2802
     10 C           1.0870    1.2590   -1.3580 C.ar    1  UNL1        0.0343
     11 C           1.1688    1.6351   -2.6828 C.ar    1  UNL1       -0.0377
     12 C           0.0299    1.8285   -3.4422 C.ar    1  UNL1       -0.0243
     13 C          -1.2190    1.6444   -2.8737 C.ar    1  UNL1        0.1312
     14 F          -2.2969    1.8451   -3.6642 F       1  UNL1       -0.2050
     15 C          -1.3305    1.2692   -1.5535 C.ar    1  UNL1        0.0448
     16 C          -2.6886    1.0695   -0.9265 C.3     1  UNL1        0.2263
     17 C          -3.3525    2.4315   -0.9590 C.3     1  UNL1        0.1433
     18 F          -4.6242    2.4144   -0.4104 F       1  UNL1       -0.2438
     19 C          -3.4152    0.0953   -1.7965 C.3     1  UNL1        0.1211
     20 S          -3.7695   -1.4281   -0.9651 S.O2    1  UNL1       -0.0100
     21 O          -2.5362   -2.2962   -0.9630 O.2     1  UNL1       -0.1731
     22 O          -4.9211   -2.1572   -1.5876 O.2     1  UNL1       -0.1731
     23 C          -4.1090   -1.0061    0.7249 C.3     1  UNL1        0.1831
     24 C          -5.4685   -0.3666    0.8949 C.3     1  UNL1       -0.0288
     25 C          -3.9899   -2.2876    1.5165 C.3     1  UNL1       -0.0288
     26 C          -2.9972   -0.1357    1.1812 C.2     1  UNL1        0.3068
     27 N          -2.5029   -0.2493    2.5441 N.pl3   1  UNL1       -0.2488
     28 N          -2.4833    0.6927    0.4046 N.2     1  UNL1       -0.0698
     29 C          -0.1614    1.0835   -0.8194 C.ar    1  UNL1       -0.0300
     30 C           4.7886   -1.6041    0.2563 C.ar    1  UNL1        0.0619
     31 N           5.9387   -1.7867    0.9664 N.ar    1  UNL1       -0.2178
     32 H           8.7802   -2.3127    3.4612 H       1  UNL1        0.0660
     33 H           7.6282   -3.0812    2.3185 H       1  UNL1        0.0660
     34 H           9.1492   -2.3460    1.6925 H       1  UNL1        0.0660
     35 H           6.3770    1.2569    2.1555 H       1  UNL1        0.0884
     36 H           2.7387    1.8710   -0.0801 H       1  UNL1        0.1552
     37 H           2.1589    1.7742   -3.1095 H       1  UNL1        0.0637
     38 H           0.1258    2.1228   -4.4769 H       1  UNL1        0.0647
     39 H          -2.7267    3.1886   -0.4008 H       1  UNL1        0.0666
     40 H          -3.4915    2.8193   -1.9902 H       1  UNL1        0.0666
     41 H          -2.8665   -0.1623   -2.7235 H       1  UNL1        0.0551
     42 H          -4.3862    0.5309   -2.1061 H       1  UNL1        0.0551
     43 H          -6.1385   -1.0048    1.4992 H       1  UNL1        0.0256
     44 H          -5.3186    0.5874    1.4681 H       1  UNL1        0.0256
     45 H          -5.9482   -0.0948   -0.0505 H       1  UNL1        0.0256
     46 H          -3.1134   -2.8387    1.1017 H       1  UNL1        0.0256
     47 H          -4.8603   -2.9540    1.3888 H       1  UNL1        0.0256
     48 H          -3.8060   -2.0722    2.5901 H       1  UNL1        0.0256
     49 H          -2.7738    0.4637    3.2205 H       1  UNL1        0.2881
     50 H          -1.8963   -1.0536    2.7622 H       1  UNL1        0.2881
     51 H          -0.2288    0.7911    0.2106 H       1  UNL1        0.0641
     52 H           4.3239   -2.4136   -0.2912 H       1  UNL1        0.0854
@<TRIPOS>BOND
     1     1     2    1
     2     2     3    1
     3     3     4   ar
     4     4     5   ar
     5     5     6   ar
     6     6     7    1
     7     7     8    2
     8     7     9   am
     9     9    10    1
    10    10    11   ar
    11    11    12   ar
    12    12    13   ar
    13    13    14    1
    14    13    15   ar
    15    15    16    1
    16    16    17    1
    17    17    18    1
    18    16    19    1
    19    19    20    1
    20    20    21    2
    21    20    22    2
    22    20    23    1
    23    23    24    1
    24    23    25    1
    25    23    26    1
    26    26    27    1
    27    26    28    2
    28    15    29   ar
    29     6    30   ar
    30    30    31   ar
    31    31     3   ar
    32    29    10   ar
    33    28    16    1
    34     1    32    1
    35     1    33    1
    36     1    34    1
    37     4    35    1
    38     9    36    1
    39    11    37    1
    40    12    38    1
    41    17    39    1
    42    17    40    1
    43    19    41    1
    44    19    42    1
    45    24    43    1
    46    24    44    1
    47    24    45    1
    48    25    46    1
    49    25    47    1
    50    25    48    1
    51    27    49    1
    52    27    50    1
    53    29    51    1
    54    30    52    1
