
     RDKit          3D

 52 54  0  0  0  0  0  0  0  0999 V2000
    8.3426   -2.2308    2.4324 C   0  0  0  0  0  0  0  0  0  0  0  0
    7.6935   -0.9889    2.3676 O   0  0  0  0  0  0  0  0  0  0  0  0
    6.5220   -0.7855    1.6493 C   0  0  0  0  0  0  0  0  0  0  0  0
    5.9144    0.4503    1.6102 C   0  0  0  0  0  0  0  0  0  0  0  0
    4.7672    0.6291    0.9008 N   0  0  0  0  0  0  0  0  0  0  0  0
    4.1890   -0.3634    0.2239 C   0  0  0  0  0  0  0  0  0  0  0  0
    2.9597   -0.1741   -0.5368 C   0  0  0  0  0  0  0  0  0  0  0  0
    2.4493   -1.1359   -1.1597 O   0  0  0  0  0  0  0  0  0  0  0  0
    2.2884    1.0714   -0.6152 N   0  0  0  0  0  0  0  0  0  0  0  0
    1.0870    1.2590   -1.3580 C   0  0  0  0  0  0  0  0  0  0  0  0
    1.1688    1.6351   -2.6828 C   0  0  0  0  0  0  0  0  0  0  0  0
    0.0299    1.8285   -3.4422 C   0  0  0  0  0  0  0  0  0  0  0  0
   -1.2190    1.6444   -2.8737 C   0  0  0  0  0  0  0  0  0  0  0  0
   -2.2969    1.8451   -3.6642 F   0  0  0  0  0  0  0  0  0  0  0  0
   -1.3305    1.2692   -1.5535 C   0  0  0  0  0  0  0  0  0  0  0  0
   -2.6886    1.0695   -0.9265 C   0  0  0  0  0  0  0  0  0  0  0  0
   -3.3525    2.4315   -0.9590 C   0  0  0  0  0  0  0  0  0  0  0  0
   -4.6242    2.4144   -0.4104 F   0  0  0  0  0  0  0  0  0  0  0  0
   -3.4152    0.0953   -1.7965 C   0  0  0  0  0  0  0  0  0  0  0  0
   -3.7695   -1.4281   -0.9651 S   0  0  0  0  0  6  0  0  0  0  0  0
   -2.5362   -2.2962   -0.9630 O   0  0  0  0  0  0  0  0  0  0  0  0
   -4.9211   -2.1572   -1.5876 O   0  0  0  0  0  0  0  0  0  0  0  0
   -4.1090   -1.0061    0.7249 C   0  0  0  0  0  0  0  0  0  0  0  0
   -5.4685   -0.3666    0.8949 C   0  0  0  0  0  0  0  0  0  0  0  0
   -3.9899   -2.2876    1.5165 C   0  0  0  0  0  0  0  0  0  0  0  0
   -2.9972   -0.1357    1.1812 C   0  0  0  0  0  0  0  0  0  0  0  0
   -2.5029   -0.2493    2.5441 N   0  0  0  0  0  0  0  0  0  0  0  0
   -2.4833    0.6927    0.4046 N   0  0  0  0  0  0  0  0  0  0  0  0
   -0.1614    1.0835   -0.8194 C   0  0  0  0  0  0  0  0  0  0  0  0
    4.7886   -1.6041    0.2563 C   0  0  0  0  0  0  0  0  0  0  0  0
    5.9387   -1.7867    0.9664 N   0  0  0  0  0  0  0  0  0  0  0  0
    8.7802   -2.3127    3.4612 H   0  0  0  0  0  0  0  0  0  0  0  0
    7.6282   -3.0812    2.3185 H   0  0  0  0  0  0  0  0  0  0  0  0
    9.1492   -2.3460    1.6925 H   0  0  0  0  0  0  0  0  0  0  0  0
    6.3770    1.2569    2.1555 H   0  0  0  0  0  0  0  0  0  0  0  0
    2.7387    1.8710   -0.0801 H   0  0  0  0  0  0  0  0  0  0  0  0
    2.1589    1.7742   -3.1095 H   0  0  0  0  0  0  0  0  0  0  0  0
    0.1258    2.1228   -4.4769 H   0  0  0  0  0  0  0  0  0  0  0  0
   -2.7267    3.1886   -0.4008 H   0  0  0  0  0  0  0  0  0  0  0  0
   -3.4915    2.8193   -1.9902 H   0  0  0  0  0  0  0  0  0  0  0  0
   -2.8665   -0.1623   -2.7235 H   0  0  0  0  0  0  0  0  0  0  0  0
   -4.3862    0.5309   -2.1061 H   0  0  0  0  0  0  0  0  0  0  0  0
   -6.1385   -1.0048    1.4992 H   0  0  0  0  0  0  0  0  0  0  0  0
   -5.3186    0.5874    1.4681 H   0  0  0  0  0  0  0  0  0  0  0  0
   -5.9482   -0.0948   -0.0505 H   0  0  0  0  0  0  0  0  0  0  0  0
   -3.1134   -2.8387    1.1017 H   0  0  0  0  0  0  0  0  0  0  0  0
   -4.8603   -2.9540    1.3888 H   0  0  0  0  0  0  0  0  0  0  0  0
   -3.8060   -2.0722    2.5901 H   0  0  0  0  0  0  0  0  0  0  0  0
   -2.7738    0.4637    3.2205 H   0  0  0  0  0  0  0  0  0  0  0  0
   -1.8963   -1.0536    2.7622 H   0  0  0  0  0  0  0  0  0  0  0  0
   -0.2288    0.7911    0.2106 H   0  0  0  0  0  0  0  0  0  0  0  0
    4.3239   -2.4136   -0.2912 H   0  0  0  0  0  0  0  0  0  0  0  0
  1  2  1  0
  2  3  1  0
  3  4  2  0
  4  5  1  0
  5  6  2  0
  6  7  1  0
  7  8  2  0
  7  9  1  0
  9 10  1  0
 10 11  2  0
 11 12  1  0
 12 13  2  0
 13 14  1  0
 13 15  1  0
 15 16  1  0
 16 17  1  0
 17 18  1  0
 16 19  1  0
 19 20  1  0
 20 21  2  0
 20 22  2  0
 20 23  1  0
 23 24  1  0
 23 25  1  0
 23 26  1  0
 26 27  1  0
 26 28  2  0
 15 29  2  0
  6 30  1  0
 30 31  2  0
 31  3  1  0
 29 10  1  0
 28 16  1  0
  1 32  1  0
  1 33  1  0
  1 34  1  0
  4 35  1  0
  9 36  1  0
 11 37  1  0
 12 38  1  0
 17 39  1  0
 17 40  1  0
 19 41  1  0
 19 42  1  0
 24 43  1  0
 24 44  1  0
 24 45  1  0
 25 46  1  0
 25 47  1  0
 25 48  1  0
 27 49  1  0
 27 50  1  0
 29 51  1  0
 30 52  1  0
M  END
$$$$
