@<TRIPOS>MOLECULE
*****
 36 38 0 0 0
SMALL
GASTEIGER

@<TRIPOS>ATOM
      1 O           0.0618   -0.2537    2.7210 O.2     1  UNL1       -0.2872
      2 C           0.0346   -0.0768    1.4779 C.2     1  UNL1        0.1878
      3 C          -1.2804    0.0452    0.8057 C.2     1  UNL1        0.0153
      4 C          -2.3680   -0.2913    1.4376 C.2     1  UNL1       -0.0283
      5 C          -3.6841   -0.2079    0.8565 C.ar    1  UNL1        0.0643
      6 C          -4.0883   -0.7456   -0.3335 C.ar    1  UNL1       -0.0363
      7 C          -5.3843   -0.5609   -0.7706 C.ar    1  UNL1       -0.0583
      8 C          -6.2578    0.1629   -0.0016 C.ar    1  UNL1       -0.0436
      9 C          -5.8533    0.7106    1.2074 C.ar    1  UNL1        0.0282
     10 N          -4.5920    0.4987    1.5745 N.ar    1  UNL1       -0.2556
     11 C          -1.2474    0.5995   -0.5509 C.3     1  UNL1        0.0252
     12 N          -0.2476   -0.1464   -1.2924 N.3     1  UNL1       -0.3078
     13 C           1.1003    0.1194   -0.8296 C.3     1  UNL1        0.0252
     14 C           1.2159    0.0170    0.6445 C.2     1  UNL1        0.0153
     15 C           2.3924   -0.0070    1.1992 C.2     1  UNL1       -0.0283
     16 C           3.6704    0.0771    0.5159 C.ar    1  UNL1        0.0643
     17 C           4.7525   -0.7159    0.9272 C.ar    1  UNL1       -0.0363
     18 C           5.9824   -0.6428    0.3070 C.ar    1  UNL1       -0.0583
     19 C           6.1326    0.2338   -0.7381 C.ar    1  UNL1       -0.0436
     20 C           5.0753    1.0254   -1.1592 C.ar    1  UNL1        0.0282
     21 N           3.9056    0.9063   -0.5141 N.ar    1  UNL1       -0.2556
     22 H          -2.2526   -0.6616    2.4888 H       1  UNL1        0.0643
     23 H          -3.3917   -1.3361   -0.9282 H       1  UNL1        0.0639
     24 H          -5.6983   -0.9965   -1.7278 H       1  UNL1        0.0619
     25 H          -7.2921    0.3087   -0.3473 H       1  UNL1        0.0633
     26 H          -6.5604    1.2824    1.8077 H       1  UNL1        0.0830
     27 H          -0.8954    1.6700   -0.5542 H       1  UNL1        0.0475
     28 H          -2.1790    0.5816   -1.0946 H       1  UNL1        0.0475
     29 H          -0.4712   -1.1536   -1.3863 H       1  UNL1        0.1226
     30 H           1.5594    1.0188   -1.2658 H       1  UNL1        0.0475
     31 H           1.7066   -0.7458   -1.2438 H       1  UNL1        0.0475
     32 H           2.4288   -0.1012    2.2930 H       1  UNL1        0.0643
     33 H           4.5725   -1.3864    1.7546 H       1  UNL1        0.0639
     34 H           6.8269   -1.2428    0.6104 H       1  UNL1        0.0619
     35 H           7.0914    0.3023   -1.2302 H       1  UNL1        0.0633
     36 H           5.2346    1.7122   -1.9973 H       1  UNL1        0.0830
@<TRIPOS>BOND
     1     1     2    2
     2     2     3    1
     3     3     4    2
     4     4     5    1
     5     5     6   ar
     6     6     7   ar
     7     7     8   ar
     8     8     9   ar
     9     9    10   ar
    10     3    11    1
    11    11    12    1
    12    12    13    1
    13    13    14    1
    14    14    15    2
    15    15    16    1
    16    16    17   ar
    17    17    18   ar
    18    18    19   ar
    19    19    20   ar
    20    20    21   ar
    21    14     2    1
    22    21    16   ar
    23    10     5   ar
    24     4    22    1
    25     6    23    1
    26     7    24    1
    27     8    25    1
    28     9    26    1
    29    11    27    1
    30    11    28    1
    31    12    29    1
    32    13    30    1
    33    13    31    1
    34    15    32    1
    35    17    33    1
    36    18    34    1
    37    19    35    1
    38    20    36    1
