
     RDKit          3D

 38 41  0  0  0  0  0  0  0  0999 V2000
   -2.4355    0.9428   -2.6351 O   0  0  0  0  0  0  0  0  0  0  0  0
   -2.5311    0.4096   -1.5135 C   0  0  0  0  0  0  0  0  0  0  0  0
   -3.8203    0.3330   -0.8658 C   0  0  0  0  0  0  0  0  0  0  0  0
   -4.5319   -0.8631   -0.8430 C   0  0  0  0  0  0  0  0  0  0  0  0
   -5.7658   -0.9784   -0.2418 C   0  0  0  0  0  0  0  0  0  0  0  0
   -6.3266    0.1173    0.3598 C   0  0  0  0  0  0  0  0  0  0  0  0
   -5.6513    1.3183    0.3571 C   0  0  0  0  0  0  0  0  0  0  0  0
   -6.1969    2.4155    0.9540 F   0  0  0  0  0  0  0  0  0  0  0  0
   -4.4192    1.4173   -0.2477 C   0  0  0  0  0  0  0  0  0  0  0  0
   -1.3822   -0.1262   -0.8630 N   0  0  0  0  0  0  0  0  0  0  0  0
   -1.5055   -0.7301    0.4319 C   0  0  0  0  0  0  0  0  0  0  0  0
   -0.4754   -0.2185    1.4053 C   0  0  0  0  0  0  0  0  0  0  0  0
    0.8666   -0.1819    0.7368 C   0  0  0  0  0  0  0  0  0  0  0  0
    2.0824   -0.2160    1.2895 O   0  0  0  0  0  0  0  0  0  0  0  0
    2.9950   -0.1661    0.3645 C   0  0  0  0  0  0  0  0  0  0  0  0
    4.4578   -0.1797    0.5072 C   0  0  0  0  0  0  0  0  0  0  0  0
    5.2870   -0.1167   -0.5934 C   0  0  0  0  0  0  0  0  0  0  0  0
    6.6702   -0.1289   -0.4893 C   0  0  0  0  0  0  0  0  0  0  0  0
    7.2350   -0.2079    0.7648 C   0  0  0  0  0  0  0  0  0  0  0  0
    8.5812   -0.2264    0.8849 F   0  0  0  0  0  0  0  0  0  0  0  0
    6.3846   -0.2705    1.8457 C   0  0  0  0  0  0  0  0  0  0  0  0
    5.0449   -0.2552    1.7134 N   0  0  0  0  0  0  0  0  0  0  0  0
    2.3572   -0.0979   -0.8160 N   0  0  0  0  0  0  0  0  0  0  0  0
    0.9981   -0.1066   -0.6108 C   0  0  0  0  0  0  0  0  0  0  0  0
   -0.1355   -0.0551   -1.5324 C   0  0  0  0  0  0  0  0  0  0  0  0
   -4.1141   -1.7439   -1.3116 H   0  0  0  0  0  0  0  0  0  0  0  0
   -6.3200   -1.9095   -0.2275 H   0  0  0  0  0  0  0  0  0  0  0  0
   -7.2933    0.0617    0.8393 H   0  0  0  0  0  0  0  0  0  0  0  0
   -3.8805    2.3498   -0.2596 H   0  0  0  0  0  0  0  0  0  0  0  0
   -1.3408   -1.8207    0.3236 H   0  0  0  0  0  0  0  0  0  0  0  0
   -2.5363   -0.5552    0.8226 H   0  0  0  0  0  0  0  0  0  0  0  0
   -0.3928   -0.8491    2.3074 H   0  0  0  0  0  0  0  0  0  0  0  0
   -0.7640    0.7889    1.7249 H   0  0  0  0  0  0  0  0  0  0  0  0
    4.8236   -0.0555   -1.5601 H   0  0  0  0  0  0  0  0  0  0  0  0
    7.2936   -0.0751   -1.3897 H   0  0  0  0  0  0  0  0  0  0  0  0
    6.8322   -0.3330    2.8268 H   0  0  0  0  0  0  0  0  0  0  0  0
   -0.0479    0.8808   -2.1547 H   0  0  0  0  0  0  0  0  0  0  0  0
   -0.0422   -0.8902   -2.3044 H   0  0  0  0  0  0  0  0  0  0  0  0
  1  2  2  0
  2  3  1  0
  3  4  2  0
  4  5  1  0
  5  6  2  0
  6  7  1  0
  7  8  1  0
  7  9  2  0
  2 10  1  0
 10 11  1  0
 11 12  1  0
 12 13  1  0
 13 14  1  0
 14 15  1  0
 15 16  1  0
 16 17  2  0
 17 18  1  0
 18 19  2  0
 19 20  1  0
 19 21  1  0
 21 22  2  0
 15 23  2  0
 23 24  1  0
 24 25  1  0
  9  3  1  0
 25 10  1  0
 24 13  2  0
 22 16  1  0
  4 26  1  0
  5 27  1  0
  6 28  1  0
  9 29  1  0
 11 30  1  0
 11 31  1  0
 12 32  1  0
 12 33  1  0
 17 34  1  0
 18 35  1  0
 21 36  1  0
 25 37  1  0
 25 38  1  0
M  END
$$$$
