@<TRIPOS>MOLECULE
*****
 38 41 0 0 0
SMALL
GASTEIGER

@<TRIPOS>ATOM
      1 O          -2.4355    0.9428   -2.6351 O.2     1  UNL1       -0.2700
      2 C          -2.5311    0.4096   -1.5135 C.2     1  UNL1        0.2470
      3 C          -3.8203    0.3330   -0.8658 C.ar    1  UNL1        0.0396
      4 C          -4.5319   -0.8631   -0.8430 C.ar    1  UNL1       -0.0495
      5 C          -5.7658   -0.9784   -0.2418 C.ar    1  UNL1       -0.0583
      6 C          -6.3266    0.1173    0.3598 C.ar    1  UNL1       -0.0264
      7 C          -5.6513    1.3183    0.3571 C.ar    1  UNL1        0.1241
      8 F          -6.1969    2.4155    0.9540 F       1  UNL1       -0.2055
      9 C          -4.4192    1.4173   -0.2477 C.ar    1  UNL1       -0.0143
     10 N          -1.3822   -0.1262   -0.8630 N.am    1  UNL1       -0.2912
     11 C          -1.5055   -0.7301    0.4319 C.3     1  UNL1        0.0223
     12 C          -0.4754   -0.2185    1.4053 C.3     1  UNL1        0.0233
     13 C           0.8666   -0.1819    0.7368 C.ar    1  UNL1        0.1319
     14 O           2.0824   -0.2160    1.2895 O.2     1  UNL1       -0.4387
     15 C           2.9950   -0.1661    0.3645 C.ar    1  UNL1        0.2465
     16 C           4.4578   -0.1797    0.5072 C.ar    1  UNL1        0.1257
     17 C           5.2870   -0.1167   -0.5934 C.ar    1  UNL1       -0.0283
     18 C           6.6702   -0.1289   -0.4893 C.ar    1  UNL1       -0.0228
     19 C           7.2350   -0.2079    0.7648 C.ar    1  UNL1        0.1414
     20 F           8.5812   -0.2264    0.8849 F       1  UNL1       -0.2039
     21 C           6.3846   -0.2705    1.8457 C.ar    1  UNL1        0.0636
     22 N           5.0449   -0.2552    1.7134 N.ar    1  UNL1       -0.2474
     23 N           2.3572   -0.0979   -0.8160 N.ar    1  UNL1       -0.2108
     24 C           0.9981   -0.1066   -0.6108 C.ar    1  UNL1        0.1003
     25 C          -0.1355   -0.0551   -1.5324 C.3     1  UNL1        0.0605
     26 H          -4.1141   -1.7439   -1.3116 H       1  UNL1        0.0625
     27 H          -6.3200   -1.9095   -0.2275 H       1  UNL1        0.0619
     28 H          -7.2933    0.0617    0.8393 H       1  UNL1        0.0646
     29 H          -3.8805    2.3498   -0.2596 H       1  UNL1        0.0654
     30 H          -1.3408   -1.8207    0.3236 H       1  UNL1        0.0469
     31 H          -2.5363   -0.5552    0.8226 H       1  UNL1        0.0469
     32 H          -0.3928   -0.8491    2.3074 H       1  UNL1        0.0359
     33 H          -0.7640    0.7889    1.7249 H       1  UNL1        0.0359
     34 H           4.8236   -0.0555   -1.5601 H       1  UNL1        0.0641
     35 H           7.2936   -0.0751   -1.3897 H       1  UNL1        0.0647
     36 H           6.8322   -0.3330    2.8268 H       1  UNL1        0.0859
     37 H          -0.0479    0.8808   -2.1547 H       1  UNL1        0.0530
     38 H          -0.0422   -0.8902   -2.3044 H       1  UNL1        0.0530
@<TRIPOS>BOND
     1     1     2    2
     2     2     3    1
     3     3     4   ar
     4     4     5   ar
     5     5     6   ar
     6     6     7   ar
     7     7     8    1
     8     7     9   ar
     9     2    10   am
    10    10    11    1
    11    11    12    1
    12    12    13    1
    13    13    14   ar
    14    14    15   ar
    15    15    16    1
    16    16    17   ar
    17    17    18   ar
    18    18    19   ar
    19    19    20    1
    20    19    21   ar
    21    21    22   ar
    22    15    23   ar
    23    23    24   ar
    24    24    25    1
    25     9     3   ar
    26    25    10    1
    27    24    13   ar
    28    22    16   ar
    29     4    26    1
    30     5    27    1
    31     6    28    1
    32     9    29    1
    33    11    30    1
    34    11    31    1
    35    12    32    1
    36    12    33    1
    37    17    34    1
    38    18    35    1
    39    21    36    1
    40    25    37    1
    41    25    38    1
