@<TRIPOS>MOLECULE
*****
 55 57 0 0 0
SMALL
GASTEIGER

@<TRIPOS>ATOM
      1 C          -5.7556    3.5931    1.4334 C.3     1  UNL1       -0.0395
      2 C          -4.7254    2.6246    0.8835 C.ar    1  UNL1       -0.0475
      3 C          -3.4156    2.7575    1.1630 C.ar    1  UNL1       -0.0580
      4 C          -2.4241    1.9901    0.6007 C.ar    1  UNL1       -0.0538
      5 C          -2.8276    0.9677   -0.3471 C.ar    1  UNL1       -0.0176
      6 C          -1.6070    0.2818   -0.9039 C.ar    1  UNL1       -0.0170
      7 C          -0.4553    1.0743   -1.1858 C.ar    1  UNL1       -0.0505
      8 C           0.7933    0.4595   -0.9181 C.ar    1  UNL1       -0.0187
      9 C           0.9510   -0.8122   -0.4536 C.ar    1  UNL1        0.1314
     10 O           2.1355   -1.5668   -0.1168 O.3     1  UNL1       -0.4900
     11 C           3.2132   -0.8444    0.0436 C.3     1  UNL1        0.1023
     12 C           4.4020   -0.1070    0.2266 C.3     1  UNL1        0.0334
     13 N           4.0812    1.3673    0.0709 N.3     1  UNL1       -0.2923
     14 C           3.2539    1.6047    1.3340 C.3     1  UNL1       -0.0121
     15 C           5.3257    2.0833    0.4128 C.3     1  UNL1        0.0966
     16 C           6.3361    1.8430   -0.6056 C.2     1  UNL1        0.3189
     17 O           7.5547    2.3091   -0.3291 O.2     1  UNL1       -0.2496
     18 O           6.2827    1.2116   -1.8074 O.3     1  UNL1       -0.4797
     19 C          -0.1992   -1.5268   -0.2544 C.ar    1  UNL1        0.0649
     20 C          -0.2732   -2.8423    0.3899 C.2     1  UNL1        0.2032
     21 O          -0.6855   -2.8547    1.6197 O.2     1  UNL1       -0.2860
     22 C           0.0971   -4.0739   -0.3521 C.ar    1  UNL1        0.0595
     23 C          -0.7913   -5.2190   -0.3783 C.ar    1  UNL1       -0.0438
     24 C          -0.3824   -6.2466   -1.0502 C.ar    1  UNL1       -0.0540
     25 C           0.8171   -6.3366   -1.7216 C.ar    1  UNL1       -0.0236
     26 S           1.4836   -4.6051   -1.3355 S.2     1  UNL1       -0.0934
     27 C          -1.4613   -0.9814   -0.4711 C.ar    1  UNL1       -0.0396
     28 C          -4.0840    0.8588   -0.5798 C.ar    1  UNL1       -0.0509
     29 C          -5.1407    1.5831   -0.0511 C.ar    1  UNL1       -0.0470
     30 C          -6.5531    1.4047   -0.2763 C.3     1  UNL1       -0.0394
     31 H          -6.0185    3.3539    2.4503 H       1  UNL1        0.0278
     32 H          -6.5567    3.7308    0.6840 H       1  UNL1        0.0278
     33 H          -5.1673    4.5758    1.5370 H       1  UNL1        0.0278
     34 H          -3.1355    3.4536    1.9632 H       1  UNL1        0.0620
     35 H          -1.3540    2.0220    0.9043 H       1  UNL1        0.0624
     36 H          -0.5407    2.0127   -1.6363 H       1  UNL1        0.0625
     37 H           1.6704    1.0343   -1.4048 H       1  UNL1        0.0654
     38 H           3.5069   -1.5747    1.2557 H       1  UNL1        0.0709
     39 H           3.9443   -1.9603   -0.4269 H       1  UNL1        0.0709
     40 H           4.9522   -0.1747    1.1697 H       1  UNL1        0.0460
     41 H           5.1125   -0.2599   -0.6732 H       1  UNL1        0.0460
     42 H           2.1674    1.4959    1.0866 H       1  UNL1        0.0391
     43 H           3.4297    2.6966    1.6205 H       1  UNL1        0.0391
     44 H           3.5475    0.9267    2.0999 H       1  UNL1        0.0391
     45 H           4.9780    3.1982    0.5288 H       1  UNL1        0.0541
     46 H           5.6232    1.7339    1.3973 H       1  UNL1        0.0541
     47 H           6.9812    0.5118   -1.9704 H       1  UNL1        0.2951
     48 H          -1.7027   -5.0773    0.2662 H       1  UNL1        0.0630
     49 H          -1.0460   -7.1445   -1.2500 H       1  UNL1        0.0623
     50 H           1.3241   -7.0345   -2.1558 H       1  UNL1        0.0693
     51 H          -2.3182   -1.5230   -0.1399 H       1  UNL1        0.0632
     52 H          -4.3949    0.0989   -1.3350 H       1  UNL1        0.0626
     53 H          -6.7772    0.4238   -0.8397 H       1  UNL1        0.0278
     54 H          -7.0396    2.2104   -0.8469 H       1  UNL1        0.0278
     55 H          -7.1319    1.2725    0.6749 H       1  UNL1        0.0278
@<TRIPOS>BOND
     1     1     2    1
     2     2     3   ar
     3     3     4   ar
     4     4     5   ar
     5     5     6    1
     6     6     7   ar
     7     7     8   ar
     8     8     9   ar
     9     9    10    1
    10    10    11    1
    11    11    12    1
    12    12    13    1
    13    13    14    1
    14    13    15    1
    15    15    16    1
    16    16    17    2
    17    16    18    1
    18     9    19   ar
    19    19    20    1
    20    20    21    2
    21    20    22    1
    22    22    23   ar
    23    23    24   ar
    24    24    25   ar
    25    25    26   ar
    26    19    27   ar
    27     5    28   ar
    28    28    29   ar
    29    29    30    1
    30    29     2   ar
    31    27     6   ar
    32    26    22   ar
    33     1    31    1
    34     1    32    1
    35     1    33    1
    36     3    34    1
    37     4    35    1
    38     7    36    1
    39     8    37    1
    40    11    38    1
    41    11    39    1
    42    12    40    1
    43    12    41    1
    44    14    42    1
    45    14    43    1
    46    14    44    1
    47    15    45    1
    48    15    46    1
    49    18    47    1
    50    23    48    1
    51    24    49    1
    52    25    50    1
    53    27    51    1
    54    28    52    1
    55    30    53    1
    56    30    54    1
    57    30    55    1
