@<TRIPOS>MOLECULE
*****
 48 50 0 0 0
SMALL
GASTEIGER

@<TRIPOS>ATOM
      1 N          -6.7285    1.8098   -1.0212 N.1     1  UNL1       -0.1966
      2 C          -5.6752    1.6438   -0.3085 C.1     1  UNL1        0.0625
      3 C          -4.4396    1.4244    0.5198 C.3     1  UNL1        0.0356
      4 C          -3.2740    1.3630   -0.4421 C.3     1  UNL1       -0.0291
      5 C          -1.9472    1.1611    0.1948 C.3     1  UNL1        0.0125
      6 C          -1.7827   -0.0961    0.9123 C.ar    1  UNL1       -0.0397
      7 C          -1.2476   -1.2540    0.3478 C.ar    1  UNL1       -0.0580
      8 C          -1.1552   -2.4069    1.1414 C.ar    1  UNL1       -0.0615
      9 C          -1.5552   -2.4812    2.4399 C.ar    1  UNL1       -0.0617
     10 C          -2.1027   -1.3046    3.0244 C.ar    1  UNL1       -0.0615
     11 C          -2.1727   -0.2050    2.2128 C.ar    1  UNL1       -0.0580
     12 C          -1.5621    2.2957    1.1010 C.3     1  UNL1       -0.0405
     13 C          -0.2056    2.0905    1.7012 C.3     1  UNL1       -0.0362
     14 C           0.7416    1.2326    0.9618 C.3     1  UNL1        0.0162
     15 N           0.3882    0.9120   -0.3958 N.am    1  UNL1       -0.2845
     16 C           1.3084    0.2141   -1.2219 C.2     1  UNL1        0.3065
     17 O           1.0209   -0.0084   -2.4468 O.2     1  UNL1       -0.2523
     18 N           2.5429   -0.2438   -0.7202 N.am    1  UNL1       -0.2693
     19 C           3.5535   -0.9157   -1.4038 C.ar    1  UNL1        0.0349
     20 C           4.6586   -1.3812   -0.6129 C.ar    1  UNL1       -0.0391
     21 C           5.6824   -2.0166   -1.2835 C.ar    1  UNL1       -0.0416
     22 C           5.6883   -2.2146   -2.6332 C.ar    1  UNL1        0.0411
     23 CL          7.0341   -2.9757   -3.4896 Cl      1  UNL1       -0.0835
     24 C           4.6426   -1.7838   -3.4044 C.ar    1  UNL1       -0.0416
     25 C           3.6163   -1.1471   -2.7457 C.ar    1  UNL1       -0.0391
     26 C          -0.9198    1.2106   -0.9474 C.3     1  UNL1        0.0258
     27 H          -4.4750    1.9346    1.3902 H       1  UNL1        0.0418
     28 H          -4.6488    0.2906    0.7768 H       1  UNL1        0.0418
     29 H          -3.2610    2.2459   -1.0660 H       1  UNL1        0.0284
     30 H          -3.4380    0.4738   -1.1625 H       1  UNL1        0.0284
     31 H          -0.8961   -1.3303   -0.6397 H       1  UNL1        0.0620
     32 H          -0.7214   -3.2991    0.6935 H       1  UNL1        0.0618
     33 H          -1.4718   -3.3722    3.0301 H       1  UNL1        0.0618
     34 H          -2.3879   -1.4158    4.0307 H       1  UNL1        0.0618
     35 H          -2.6027    0.6756    2.7298 H       1  UNL1        0.0620
     36 H          -2.2771    2.4623    1.9353 H       1  UNL1        0.0275
     37 H          -1.5478    3.2750    0.5556 H       1  UNL1        0.0275
     38 H           0.2515    3.1001    1.9797 H       1  UNL1        0.0281
     39 H          -0.3609    1.6211    2.7247 H       1  UNL1        0.0281
     40 H           0.9281    0.2641    1.4691 H       1  UNL1        0.0465
     41 H           1.7543    1.7365    0.9548 H       1  UNL1        0.0465
     42 H           2.6549   -0.0331    0.3310 H       1  UNL1        0.1564
     43 H           4.6401   -1.2184    0.4327 H       1  UNL1        0.0636
     44 H           6.5288   -2.4531   -0.6885 H       1  UNL1        0.0633
     45 H           4.5979   -1.9235   -4.5003 H       1  UNL1        0.0633
     46 H           2.8158   -0.7872   -3.3822 H       1  UNL1        0.0636
     47 H          -0.9698    2.2666   -1.2927 H       1  UNL1        0.0474
     48 H          -1.2228    0.5635   -1.7820 H       1  UNL1        0.0474
@<TRIPOS>BOND
     1     1     2    3
     2     2     3    1
     3     3     4    1
     4     4     5    1
     5     5     6    1
     6     6     7   ar
     7     7     8   ar
     8     8     9   ar
     9     9    10   ar
    10    10    11   ar
    11     5    12    1
    12    12    13    1
    13    13    14    1
    14    14    15    1
    15    15    16   am
    16    16    17    2
    17    16    18   am
    18    18    19    1
    19    19    20   ar
    20    20    21   ar
    21    21    22   ar
    22    22    23    1
    23    22    24   ar
    24    24    25   ar
    25    15    26    1
    26    26     5    1
    27    11     6   ar
    28    25    19   ar
    29     3    27    1
    30     3    28    1
    31     4    29    1
    32     4    30    1
    33     7    31    1
    34     8    32    1
    35     9    33    1
    36    10    34    1
    37    11    35    1
    38    12    36    1
    39    12    37    1
    40    13    38    1
    41    13    39    1
    42    14    40    1
    43    14    41    1
    44    18    42    1
    45    20    43    1
    46    21    44    1
    47    24    45    1
    48    25    46    1
    49    26    47    1
    50    26    48    1
