
     RDKit          3D

 48 50  0  0  0  0  0  0  0  0999 V2000
   -6.7285    1.8098   -1.0212 N   0  0  0  0  0  0  0  0  0  0  0  0
   -5.6752    1.6438   -0.3085 C   0  0  0  0  0  0  0  0  0  0  0  0
   -4.4396    1.4244    0.5198 C   0  0  0  0  0  0  0  0  0  0  0  0
   -3.2740    1.3630   -0.4421 C   0  0  0  0  0  0  0  0  0  0  0  0
   -1.9472    1.1611    0.1948 C   0  0  0  0  0  0  0  0  0  0  0  0
   -1.7827   -0.0961    0.9123 C   0  0  0  0  0  0  0  0  0  0  0  0
   -1.2476   -1.2540    0.3478 C   0  0  0  0  0  0  0  0  0  0  0  0
   -1.1552   -2.4069    1.1414 C   0  0  0  0  0  0  0  0  0  0  0  0
   -1.5552   -2.4812    2.4399 C   0  0  0  0  0  0  0  0  0  0  0  0
   -2.1027   -1.3046    3.0244 C   0  0  0  0  0  0  0  0  0  0  0  0
   -2.1727   -0.2050    2.2128 C   0  0  0  0  0  0  0  0  0  0  0  0
   -1.5621    2.2957    1.1010 C   0  0  0  0  0  0  0  0  0  0  0  0
   -0.2056    2.0905    1.7012 C   0  0  0  0  0  0  0  0  0  0  0  0
    0.7416    1.2326    0.9618 C   0  0  0  0  0  0  0  0  0  0  0  0
    0.3882    0.9120   -0.3958 N   0  0  0  0  0  0  0  0  0  0  0  0
    1.3084    0.2141   -1.2219 C   0  0  0  0  0  0  0  0  0  0  0  0
    1.0209   -0.0084   -2.4468 O   0  0  0  0  0  0  0  0  0  0  0  0
    2.5429   -0.2438   -0.7202 N   0  0  0  0  0  0  0  0  0  0  0  0
    3.5535   -0.9157   -1.4038 C   0  0  0  0  0  0  0  0  0  0  0  0
    4.6586   -1.3812   -0.6129 C   0  0  0  0  0  0  0  0  0  0  0  0
    5.6824   -2.0166   -1.2835 C   0  0  0  0  0  0  0  0  0  0  0  0
    5.6883   -2.2146   -2.6332 C   0  0  0  0  0  0  0  0  0  0  0  0
    7.0341   -2.9757   -3.4896 Cl  0  0  0  0  0  0  0  0  0  0  0  0
    4.6426   -1.7838   -3.4044 C   0  0  0  0  0  0  0  0  0  0  0  0
    3.6163   -1.1471   -2.7457 C   0  0  0  0  0  0  0  0  0  0  0  0
   -0.9198    1.2106   -0.9474 C   0  0  0  0  0  0  0  0  0  0  0  0
   -4.4750    1.9346    1.3902 H   0  0  0  0  0  0  0  0  0  0  0  0
   -4.6488    0.2906    0.7768 H   0  0  0  0  0  0  0  0  0  0  0  0
   -3.2610    2.2459   -1.0660 H   0  0  0  0  0  0  0  0  0  0  0  0
   -3.4380    0.4738   -1.1625 H   0  0  0  0  0  0  0  0  0  0  0  0
   -0.8961   -1.3303   -0.6397 H   0  0  0  0  0  0  0  0  0  0  0  0
   -0.7214   -3.2991    0.6935 H   0  0  0  0  0  0  0  0  0  0  0  0
   -1.4718   -3.3722    3.0301 H   0  0  0  0  0  0  0  0  0  0  0  0
   -2.3879   -1.4158    4.0307 H   0  0  0  0  0  0  0  0  0  0  0  0
   -2.6027    0.6756    2.7298 H   0  0  0  0  0  0  0  0  0  0  0  0
   -2.2771    2.4623    1.9353 H   0  0  0  0  0  0  0  0  0  0  0  0
   -1.5478    3.2750    0.5556 H   0  0  0  0  0  0  0  0  0  0  0  0
    0.2515    3.1001    1.9797 H   0  0  0  0  0  0  0  0  0  0  0  0
   -0.3609    1.6211    2.7247 H   0  0  0  0  0  0  0  0  0  0  0  0
    0.9281    0.2641    1.4691 H   0  0  0  0  0  0  0  0  0  0  0  0
    1.7543    1.7365    0.9548 H   0  0  0  0  0  0  0  0  0  0  0  0
    2.6549   -0.0331    0.3310 H   0  0  0  0  0  0  0  0  0  0  0  0
    4.6401   -1.2184    0.4327 H   0  0  0  0  0  0  0  0  0  0  0  0
    6.5288   -2.4531   -0.6885 H   0  0  0  0  0  0  0  0  0  0  0  0
    4.5979   -1.9235   -4.5003 H   0  0  0  0  0  0  0  0  0  0  0  0
    2.8158   -0.7872   -3.3822 H   0  0  0  0  0  0  0  0  0  0  0  0
   -0.9698    2.2666   -1.2927 H   0  0  0  0  0  0  0  0  0  0  0  0
   -1.2228    0.5635   -1.7820 H   0  0  0  0  0  0  0  0  0  0  0  0
  1  2  3  0
  2  3  1  0
  3  4  1  0
  4  5  1  0
  5  6  1  0
  6  7  2  0
  7  8  1  0
  8  9  2  0
  9 10  1  0
 10 11  2  0
  5 12  1  0
 12 13  1  0
 13 14  1  0
 14 15  1  0
 15 16  1  0
 16 17  2  0
 16 18  1  0
 18 19  1  0
 19 20  2  0
 20 21  1  0
 21 22  2  0
 22 23  1  0
 22 24  1  0
 24 25  2  0
 15 26  1  0
 26  5  1  0
 11  6  1  0
 25 19  1  0
  3 27  1  0
  3 28  1  0
  4 29  1  0
  4 30  1  0
  7 31  1  0
  8 32  1  0
  9 33  1  0
 10 34  1  0
 11 35  1  0
 12 36  1  0
 12 37  1  0
 13 38  1  0
 13 39  1  0
 14 40  1  0
 14 41  1  0
 18 42  1  0
 20 43  1  0
 21 44  1  0
 24 45  1  0
 25 46  1  0
 26 47  1  0
 26 48  1  0
M  END
$$$$
