@<TRIPOS>MOLECULE
*****
 72 77 0 0 0
SMALL
GASTEIGER

@<TRIPOS>ATOM
      1 C           0.6944   -1.2299    2.0660 C.3     1  UNL1       -0.0376
      2 C           1.3951   -0.5419    0.9508 C.ar    1  UNL1       -0.0223
      3 C           0.9426   -0.9492   -0.3156 C.ar    1  UNL1        0.0975
      4 N          -0.0149   -1.8726   -0.5062 N.ar    1  UNL1       -0.2112
      5 C          -0.3909   -2.2148   -1.7649 C.ar    1  UNL1        0.2398
      6 N          -1.4084   -3.2107   -1.5098 N.pl3   1  UNL1       -0.2824
      7 C          -2.7097   -2.6991   -1.3607 C.ar    1  UNL1        0.0338
      8 C          -3.6385   -3.5261   -0.7252 C.ar    1  UNL1       -0.0370
      9 C          -4.9387   -3.0399   -0.5637 C.ar    1  UNL1       -0.0182
     10 C          -5.2705   -1.7914   -1.0222 C.ar    1  UNL1        0.1207
     11 O          -6.5870   -1.3744   -0.8180 O.3     1  UNL1       -0.4907
     12 C          -7.4635   -2.2589   -0.1426 C.3     1  UNL1        0.1022
     13 C          -8.8347   -1.6345   -0.0047 C.3     1  UNL1        0.0331
     14 N          -8.7673   -0.3835    0.7219 N.3     1  UNL1       -0.2991
     15 C          -8.3945   -0.5521    2.1217 C.3     1  UNL1       -0.0010
     16 C          -8.6143    0.8793    2.6538 C.3     1  UNL1       -0.0390
     17 C          -9.7212    1.4236    1.7675 C.3     1  UNL1       -0.0390
     18 C         -10.0406    0.3172    0.7710 C.3     1  UNL1       -0.0010
     19 C          -4.3773   -0.9381   -1.6612 C.ar    1  UNL1       -0.0182
     20 C          -3.1097   -1.4572   -1.7969 C.ar    1  UNL1       -0.0370
     21 N           0.1975   -1.6268   -2.8150 N.ar    1  UNL1       -0.1123
     22 N           1.1559   -0.7022   -2.6423 N.ar    1  UNL1       -0.1444
     23 C           1.5352   -0.3575   -1.4122 C.ar    1  UNL1        0.1125
     24 C           2.5262    0.5889   -1.3146 C.ar    1  UNL1       -0.0247
     25 C           2.9756    0.9933   -0.0833 C.ar    1  UNL1       -0.0139
     26 C           2.4068    0.4259    1.0562 C.ar    1  UNL1       -0.0489
     27 C           3.9941    1.9166    0.3888 C.ar    1  UNL1        0.0040
     28 C           5.2444    1.6977   -0.1972 C.ar    1  UNL1       -0.0101
     29 C           6.2734    2.5168    0.2542 C.ar    1  UNL1        0.1326
     30 O           7.6217    2.5169   -0.1567 O.3     1  UNL1       -0.4223
     31 C           8.3931    1.3952   -0.2027 C.2     1  UNL1        0.3444
     32 O           7.7963    0.3317    0.1673 O.2     1  UNL1       -0.2445
     33 C           9.7834    1.3992   -0.6376 C.ar    1  UNL1        0.0594
     34 C          10.4167    2.5596   -1.0282 C.ar    1  UNL1       -0.0478
     35 C          11.7298    2.5867   -1.4562 C.ar    1  UNL1       -0.0610
     36 C          12.4690    1.4007   -1.5041 C.ar    1  UNL1       -0.0617
     37 C          11.8619    0.1936   -1.1139 C.ar    1  UNL1       -0.0610
     38 C          10.5485    0.2620   -0.7006 C.ar    1  UNL1       -0.0478
     39 C           6.1051    3.4887    1.2127 C.ar    1  UNL1       -0.0178
     40 C           4.8357    3.6788    1.7737 C.ar    1  UNL1       -0.0393
     41 C           3.7957    2.8808    1.3462 C.ar    1  UNL1        0.0489
     42 CL          2.1869    3.0740    2.0143 Cl      1  UNL1       -0.0829
     43 H          -0.3931   -1.3006    1.8646 H       1  UNL1        0.0278
     44 H           1.0882   -2.2471    2.2345 H       1  UNL1        0.0278
     45 H           0.7953   -0.6766    3.0386 H       1  UNL1        0.0278
     46 H          -1.2028   -4.2261   -1.4405 H       1  UNL1        0.1551
     47 H          -3.3285   -4.4988   -0.3872 H       1  UNL1        0.0637
     48 H          -5.6100   -3.7199   -0.0616 H       1  UNL1        0.0655
     49 H          -7.0545   -2.5877    0.8471 H       1  UNL1        0.0709
     50 H          -7.5813   -3.1770   -0.7520 H       1  UNL1        0.0709
     51 H          -9.4698   -2.3538    0.5720 H       1  UNL1        0.0460
     52 H          -9.2609   -1.5290   -1.0080 H       1  UNL1        0.0460
     53 H          -9.1126   -1.1935    2.6471 H       1  UNL1        0.0427
     54 H          -7.3354   -0.7824    2.2685 H       1  UNL1        0.0427
     55 H          -7.6881    1.4778    2.5466 H       1  UNL1        0.0278
     56 H          -8.8812    0.8702    3.7345 H       1  UNL1        0.0278
     57 H          -9.4438    2.3738    1.2916 H       1  UNL1        0.0278
     58 H         -10.5891    1.5843    2.4549 H       1  UNL1        0.0278
     59 H         -10.7849   -0.3528    1.2806 H       1  UNL1        0.0427
     60 H         -10.4237    0.6674   -0.1744 H       1  UNL1        0.0427
     61 H          -4.6876    0.0337   -2.0080 H       1  UNL1        0.0655
     62 H          -2.3705   -0.8391   -2.2834 H       1  UNL1        0.0637
     63 H           3.0511    1.1094   -2.0950 H       1  UNL1        0.0646
     64 H           2.5821    0.5726    2.1206 H       1  UNL1        0.0627
     65 H           5.5446    0.9974   -0.9416 H       1  UNL1        0.0661
     66 H           9.9249    3.5113   -1.0227 H       1  UNL1        0.0626
     67 H          12.1994    3.5215   -1.7545 H       1  UNL1        0.0618
     68 H          13.5011    1.4004   -1.8385 H       1  UNL1        0.0618
     69 H          12.4391   -0.7235   -1.1482 H       1  UNL1        0.0618
     70 H          10.0713   -0.6588   -0.3947 H       1  UNL1        0.0626
     71 H           6.8297    4.1678    1.6291 H       1  UNL1        0.0655
     72 H           4.5876    4.4126    2.5283 H       1  UNL1        0.0633
@<TRIPOS>BOND
     1     1     2    1
     2     2     3   ar
     3     3     4   ar
     4     4     5   ar
     5     5     6    1
     6     6     7    1
     7     7     8   ar
     8     8     9   ar
     9     9    10   ar
    10    10    11    1
    11    11    12    1
    12    12    13    1
    13    13    14    1
    14    14    15    1
    15    15    16    1
    16    16    17    1
    17    17    18    1
    18    10    19   ar
    19    19    20   ar
    20     5    21   ar
    21    21    22   ar
    22    22    23   ar
    23    23    24   ar
    24    24    25   ar
    25    25    26   ar
    26    25    27    1
    27    27    28   ar
    28    28    29   ar
    29    29    30    1
    30    30    31    1
    31    31    32    2
    32    31    33    1
    33    33    34   ar
    34    34    35   ar
    35    35    36   ar
    36    36    37   ar
    37    37    38   ar
    38    29    39   ar
    39    39    40   ar
    40    40    41   ar
    41    41    42    1
    42    26     2   ar
    43    41    27   ar
    44    23     3   ar
    45    38    33   ar
    46    20     7   ar
    47    18    14    1
    48     1    43    1
    49     1    44    1
    50     1    45    1
    51     6    46    1
    52     8    47    1
    53     9    48    1
    54    12    49    1
    55    12    50    1
    56    13    51    1
    57    13    52    1
    58    15    53    1
    59    15    54    1
    60    16    55    1
    61    16    56    1
    62    17    57    1
    63    17    58    1
    64    18    59    1
    65    18    60    1
    66    19    61    1
    67    20    62    1
    68    24    63    1
    69    26    64    1
    70    28    65    1
    71    34    66    1
    72    35    67    1
    73    36    68    1
    74    37    69    1
    75    38    70    1
    76    39    71    1
    77    40    72    1
