@<TRIPOS>MOLECULE
*****
 36 38 0 0 0
SMALL
GASTEIGER

@<TRIPOS>ATOM
      1 C          -1.3129   -2.6853    1.0972 C.3     1  UNL1       -0.0062
      2 C          -2.0349   -1.4550    0.6179 C.ar    1  UNL1        0.1079
      3 N          -3.0993   -0.9477    1.2222 N.ar    1  UNL1       -0.2326
      4 C          -3.5188    0.1482    0.5602 C.ar    1  UNL1        0.0893
      5 C          -4.5580    0.9898    0.7865 C.ar    1  UNL1       -0.0342
      6 C          -4.7857    2.0440   -0.0543 C.ar    1  UNL1       -0.0596
      7 C          -3.9204    2.2107   -1.1312 C.ar    1  UNL1       -0.0597
      8 C          -2.8674    1.3446   -1.3462 C.ar    1  UNL1       -0.0360
      9 C          -2.6265    0.2784   -0.5046 C.ar    1  UNL1        0.0691
     10 N          -1.7266   -0.7055   -0.4564 N.ar    1  UNL1       -0.3232
     11 C          -0.6152   -0.9554   -1.3040 C.3     1  UNL1        0.0527
     12 C           0.6860   -0.4340   -0.8468 C.ar    1  UNL1        0.0075
     13 C           1.5879   -1.3378   -0.2857 C.ar    1  UNL1       -0.0534
     14 C           2.8300   -0.9402    0.1754 C.ar    1  UNL1       -0.0491
     15 C           3.2344    0.3755    0.1005 C.ar    1  UNL1        0.0414
     16 C           4.5514    0.8237    0.5837 C.2     1  UNL1        0.2666
     17 O           4.8355    2.0404    0.4779 O.2     1  UNL1       -0.2681
     18 N           5.5159   -0.0264    1.1585 N.am    1  UNL1       -0.1935
     19 O           6.7279    0.4466    1.5917 O.3     1  UNL1       -0.2949
     20 C           2.3500    1.2768   -0.4528 C.ar    1  UNL1       -0.0139
     21 C           1.0927    0.8607   -0.9171 C.ar    1  UNL1        0.1290
     22 F           0.2759    1.7932   -1.4533 F       1  UNL1       -0.2051
     23 H          -0.8982   -3.2523    0.2413 H       1  UNL1        0.0307
     24 H          -2.0267   -3.3788    1.6051 H       1  UNL1        0.0307
     25 H          -0.5254   -2.3743    1.8160 H       1  UNL1        0.0307
     26 H          -5.2229    0.8491    1.6263 H       1  UNL1        0.0639
     27 H          -5.6113    2.7302    0.1077 H       1  UNL1        0.0618
     28 H          -4.0697    3.0359   -1.8205 H       1  UNL1        0.0618
     29 H          -2.2127    1.4817   -2.1966 H       1  UNL1        0.0639
     30 H          -0.8331   -0.5878   -2.3552 H       1  UNL1        0.0543
     31 H          -0.5495   -2.0772   -1.4642 H       1  UNL1        0.0543
     32 H           1.2877   -2.3649   -0.2204 H       1  UNL1        0.0622
     33 H           3.5247   -1.6603    0.6126 H       1  UNL1        0.0625
     34 H           5.3215   -1.0435    1.2655 H       1  UNL1        0.1825
     35 H           6.5427    1.1760    2.2550 H       1  UNL1        0.2414
     36 H           2.6507    2.3210   -0.5209 H       1  UNL1        0.0654
@<TRIPOS>BOND
     1     1     2    1
     2     2     3   ar
     3     3     4   ar
     4     4     5   ar
     5     5     6   ar
     6     6     7   ar
     7     7     8   ar
     8     8     9   ar
     9     9    10   ar
    10    10    11    1
    11    11    12    1
    12    12    13   ar
    13    13    14   ar
    14    14    15   ar
    15    15    16    1
    16    16    17    2
    17    16    18   am
    18    18    19    1
    19    15    20   ar
    20    20    21   ar
    21    21    22    1
    22    10     2   ar
    23    21    12   ar
    24     9     4   ar
    25     1    23    1
    26     1    24    1
    27     1    25    1
    28     5    26    1
    29     6    27    1
    30     7    28    1
    31     8    29    1
    32    11    30    1
    33    11    31    1
    34    13    32    1
    35    14    33    1
    36    18    34    1
    37    19    35    1
    38    20    36    1
