@<TRIPOS>MOLECULE
*****
 55 57 0 0 0
SMALL
GASTEIGER

@<TRIPOS>ATOM
      1 C           5.3774   -0.3297    0.9295 C.3     1  UNL1       -0.0127
      2 N           5.7611   -1.1628   -0.2230 N.3     1  UNL1       -0.3047
      3 C           7.1362   -1.5606    0.0015 C.3     1  UNL1       -0.0127
      4 C           5.7065   -0.3586   -1.3926 C.3     1  UNL1        0.0168
      5 C           4.4631    0.0935   -1.9450 C.2     1  UNL1       -0.0695
      6 C           3.1632    0.1002   -1.9570 C.2     1  UNL1       -0.0554
      7 C           2.4896   -0.7127   -0.9995 C.ar    1  UNL1        0.0040
      8 C           2.7483   -1.8613   -0.3026 C.ar    1  UNL1       -0.0174
      9 C           2.0581   -2.4267    0.7313 C.ar    1  UNL1        0.1241
     10 F           2.5135   -3.5788    1.2688 F       1  UNL1       -0.2055
     11 C           0.9346   -1.7600    1.1464 C.ar    1  UNL1       -0.0246
     12 C           0.6181   -0.5976    0.4831 C.ar    1  UNL1       -0.0318
     13 C           1.3374   -0.0307   -0.5774 C.ar    1  UNL1        0.1158
     14 S           0.7100    1.4787   -1.2587 S.O2    1  UNL1        0.0729
     15 O           0.3883    1.2777   -2.7385 O.2     1  UNL1       -0.1500
     16 O           1.7174    2.5819   -1.1101 O.2     1  UNL1       -0.1500
     17 N          -0.7269    1.9166   -0.4464 N.pl3   1  UNL1       -0.2154
     18 C          -1.9276    1.1489   -0.4199 C.ar    1  UNL1        0.0623
     19 C          -2.1310    0.0720   -1.2914 C.ar    1  UNL1       -0.0383
     20 C          -3.2723   -0.7012   -1.3211 C.ar    1  UNL1       -0.0565
     21 C          -4.2928   -0.4090   -0.4403 C.ar    1  UNL1       -0.0433
     22 C          -5.5648   -1.1354   -0.3462 C.3     1  UNL1       -0.0274
     23 C          -6.7564   -0.2074   -0.2943 C.3     1  UNL1       -0.0488
     24 C          -6.4668    1.0677    0.4422 C.3     1  UNL1       -0.0487
     25 C          -5.2617    0.8990    1.3442 C.3     1  UNL1       -0.0266
     26 C          -4.1137    0.6472    0.4266 C.ar    1  UNL1       -0.0284
     27 C          -2.9703    1.4173    0.4522 C.ar    1  UNL1        0.0845
     28 C          -2.8415    2.5176    1.3912 C.2     1  UNL1        0.3389
     29 O          -2.2699    2.1017    2.6063 O.3     1  UNL1       -0.4771
     30 O          -3.1362    3.7367    1.3249 O.2     1  UNL1       -0.2451
     31 H           4.8072   -0.9362    1.6563 H       1  UNL1        0.0391
     32 H           4.7897    0.5328    0.5654 H       1  UNL1        0.0391
     33 H           6.2882    0.0386    1.4417 H       1  UNL1        0.0391
     34 H           7.2809   -2.5652   -0.4826 H       1  UNL1        0.0391
     35 H           7.2868   -1.7688    1.0934 H       1  UNL1        0.0391
     36 H           7.8680   -0.8511   -0.3992 H       1  UNL1        0.0391
     37 H           6.3892   -0.8105   -2.2041 H       1  UNL1        0.0470
     38 H           6.3129    0.5735   -1.1202 H       1  UNL1        0.0470
     39 H           4.7929    0.7683   -2.7788 H       1  UNL1        0.0585
     40 H           2.6107    0.7051   -2.6915 H       1  UNL1        0.0621
     41 H           3.6029   -2.3897   -0.6856 H       1  UNL1        0.0653
     42 H           0.3534   -2.1618    1.9591 H       1  UNL1        0.0647
     43 H          -0.2792   -0.1174    0.8795 H       1  UNL1        0.0638
     44 H          -0.7763    2.8293    0.0982 H       1  UNL1        0.1737
     45 H          -1.3414   -0.1766   -1.9942 H       1  UNL1        0.0637
     46 H          -3.3993   -1.5202   -2.0005 H       1  UNL1        0.0621
     47 H          -5.5323   -1.7089    0.6180 H       1  UNL1        0.0313
     48 H          -5.6442   -1.8667   -1.1783 H       1  UNL1        0.0313
     49 H          -7.0142    0.0280   -1.3615 H       1  UNL1        0.0268
     50 H          -7.6328   -0.7191    0.1607 H       1  UNL1        0.0268
     51 H          -7.3731    1.3532    1.0085 H       1  UNL1        0.0268
     52 H          -6.1824    1.8484   -0.3139 H       1  UNL1        0.0268
     53 H          -5.4148    0.0619    2.0607 H       1  UNL1        0.0313
     54 H          -5.1525    1.8609    1.8836 H       1  UNL1        0.0313
     55 H          -2.0311    2.7679    3.3392 H       1  UNL1        0.2954
@<TRIPOS>BOND
     1     1     2    1
     2     2     3    1
     3     2     4    1
     4     4     5    1
     5     5     6    2
     6     6     7    1
     7     7     8   ar
     8     8     9   ar
     9     9    10    1
    10     9    11   ar
    11    11    12   ar
    12    12    13   ar
    13    13    14    1
    14    14    15    2
    15    14    16    2
    16    14    17    1
    17    17    18    1
    18    18    19   ar
    19    19    20   ar
    20    20    21   ar
    21    21    22    1
    22    22    23    1
    23    23    24    1
    24    24    25    1
    25    25    26    1
    26    26    27   ar
    27    27    28    1
    28    28    29    1
    29    28    30    2
    30    13     7   ar
    31    27    18   ar
    32    26    21   ar
    33     1    31    1
    34     1    32    1
    35     1    33    1
    36     3    34    1
    37     3    35    1
    38     3    36    1
    39     4    37    1
    40     4    38    1
    41     5    39    1
    42     6    40    1
    43     8    41    1
    44    11    42    1
    45    12    43    1
    46    17    44    1
    47    19    45    1
    48    20    46    1
    49    22    47    1
    50    22    48    1
    51    23    49    1
    52    23    50    1
    53    24    51    1
    54    24    52    1
    55    25    53    1
    56    25    54    1
    57    29    55    1
