@<TRIPOS>MOLECULE
*****
 48 50 0 0 0
SMALL
GASTEIGER

@<TRIPOS>ATOM
      1 N           4.1009    2.7604    0.1336 N.pl3   1  UNL1       -0.3565
      2 C           5.3210    2.0466    0.2989 C.ar    1  UNL1        0.0461
      3 C           6.4574    2.7072    0.7844 C.ar    1  UNL1       -0.0392
      4 C           7.6081    1.9966    0.9308 C.ar    1  UNL1       -0.0599
      5 C           7.6882    0.6561    0.6178 C.ar    1  UNL1       -0.0599
      6 C           6.5415    0.0322    0.1386 C.ar    1  UNL1       -0.0387
      7 C           5.3599    0.7117   -0.0242 C.ar    1  UNL1        0.0545
      8 N           4.1951    0.0694   -0.5136 N.am    1  UNL1       -0.2800
      9 C           3.2796   -0.5511    0.3705 C.2     1  UNL1        0.2483
     10 O           3.5569   -0.4994    1.5952 O.2     1  UNL1       -0.2699
     11 C           2.0587   -1.2338   -0.0373 C.ar    1  UNL1        0.0370
     12 C           1.2371   -1.8248    0.9155 C.ar    1  UNL1       -0.0493
     13 C           0.0725   -2.4813    0.5769 C.ar    1  UNL1       -0.0564
     14 C          -0.3010   -2.5610   -0.7443 C.ar    1  UNL1       -0.0302
     15 C          -1.5534   -3.2482   -1.1595 C.3     1  UNL1        0.0400
     16 N          -2.5999   -2.2679   -1.2728 N.am    1  UNL1       -0.2770
     17 C          -3.2735   -1.7307   -0.1592 C.2     1  UNL1        0.4008
     18 O          -3.0388   -2.0450    1.0257 O.2     1  UNL1       -0.2265
     19 O          -4.2770   -0.7810   -0.3532 O.3     1  UNL1       -0.4456
     20 C          -4.9670   -0.2285    0.7662 C.3     1  UNL1        0.1205
     21 C          -5.9551    0.7280    0.2594 C.ar    1  UNL1        0.0078
     22 C          -5.6658    2.0559    0.0702 C.ar    1  UNL1       -0.0525
     23 C          -6.6268    2.9284   -0.4079 C.ar    1  UNL1       -0.0432
     24 C          -7.8866    2.4645   -0.6981 C.ar    1  UNL1        0.0276
     25 N          -8.1629    1.1720   -0.5124 N.ar    1  UNL1       -0.2629
     26 C          -7.2268    0.3107   -0.0442 C.ar    1  UNL1        0.0339
     27 C           0.5082   -1.9781   -1.6920 C.ar    1  UNL1       -0.0564
     28 C           1.6589   -1.3303   -1.3531 C.ar    1  UNL1       -0.0493
     29 H           4.1254    3.7795   -0.0119 H       1  UNL1        0.1424
     30 H           3.1930    2.2410    0.1619 H       1  UNL1        0.1424
     31 H           6.4145    3.7583    1.0353 H       1  UNL1        0.0636
     32 H           8.5018    2.5147    1.3122 H       1  UNL1        0.0618
     33 H           8.6160    0.1453    0.7513 H       1  UNL1        0.0618
     34 H           6.6083   -1.0184   -0.1054 H       1  UNL1        0.0637
     35 H           4.0075    0.0504   -1.5231 H       1  UNL1        0.1552
     36 H           1.5353   -1.7600    1.9647 H       1  UNL1        0.0625
     37 H          -0.5351   -2.9404    1.3709 H       1  UNL1        0.0621
     38 H          -1.3820   -3.8017   -2.1008 H       1  UNL1        0.0513
     39 H          -1.8162   -3.9934   -0.3817 H       1  UNL1        0.0513
     40 H          -2.8395   -1.9674   -2.2651 H       1  UNL1        0.1523
     41 H          -4.2536    0.2477    1.4790 H       1  UNL1        0.0750
     42 H          -5.5372   -1.0389    1.3065 H       1  UNL1        0.0750
     43 H          -4.6731    2.4025    0.3031 H       1  UNL1        0.0622
     44 H          -6.3925    3.9688   -0.5537 H       1  UNL1        0.0633
     45 H          -8.6569    3.1609   -1.0806 H       1  UNL1        0.0829
     46 H          -7.5386   -0.7193    0.0751 H       1  UNL1        0.0833
     47 H           0.2086   -2.0436   -2.7407 H       1  UNL1        0.0621
     48 H           2.3049   -0.8651   -2.1096 H       1  UNL1        0.0625
@<TRIPOS>BOND
     1     1     2    1
     2     2     3   ar
     3     3     4   ar
     4     4     5   ar
     5     5     6   ar
     6     6     7   ar
     7     7     8    1
     8     8     9   am
     9     9    10    2
    10     9    11    1
    11    11    12   ar
    12    12    13   ar
    13    13    14   ar
    14    14    15    1
    15    15    16    1
    16    16    17   am
    17    17    18    2
    18    17    19    1
    19    19    20    1
    20    20    21    1
    21    21    22   ar
    22    22    23   ar
    23    23    24   ar
    24    24    25   ar
    25    25    26   ar
    26    14    27   ar
    27    27    28   ar
    28     7     2   ar
    29    28    11   ar
    30    26    21   ar
    31     1    29    1
    32     1    30    1
    33     3    31    1
    34     4    32    1
    35     5    33    1
    36     6    34    1
    37     8    35    1
    38    12    36    1
    39    13    37    1
    40    15    38    1
    41    15    39    1
    42    16    40    1
    43    20    41    1
    44    20    42    1
    45    22    43    1
    46    23    44    1
    47    24    45    1
    48    26    46    1
    49    27    47    1
    50    28    48    1
