
     RDKit          3D

 48 50  0  0  0  0  0  0  0  0999 V2000
    4.1009    2.7604    0.1336 N   0  0  0  0  0  0  0  0  0  0  0  0
    5.3210    2.0466    0.2989 C   0  0  0  0  0  0  0  0  0  0  0  0
    6.4574    2.7072    0.7844 C   0  0  0  0  0  0  0  0  0  0  0  0
    7.6081    1.9966    0.9308 C   0  0  0  0  0  0  0  0  0  0  0  0
    7.6882    0.6561    0.6178 C   0  0  0  0  0  0  0  0  0  0  0  0
    6.5415    0.0322    0.1386 C   0  0  0  0  0  0  0  0  0  0  0  0
    5.3599    0.7117   -0.0242 C   0  0  0  0  0  0  0  0  0  0  0  0
    4.1951    0.0694   -0.5136 N   0  0  0  0  0  0  0  0  0  0  0  0
    3.2796   -0.5511    0.3705 C   0  0  0  0  0  0  0  0  0  0  0  0
    3.5569   -0.4994    1.5952 O   0  0  0  0  0  0  0  0  0  0  0  0
    2.0587   -1.2338   -0.0373 C   0  0  0  0  0  0  0  0  0  0  0  0
    1.2371   -1.8248    0.9155 C   0  0  0  0  0  0  0  0  0  0  0  0
    0.0725   -2.4813    0.5769 C   0  0  0  0  0  0  0  0  0  0  0  0
   -0.3010   -2.5610   -0.7443 C   0  0  0  0  0  0  0  0  0  0  0  0
   -1.5534   -3.2482   -1.1595 C   0  0  0  0  0  0  0  0  0  0  0  0
   -2.5999   -2.2679   -1.2728 N   0  0  0  0  0  0  0  0  0  0  0  0
   -3.2735   -1.7307   -0.1592 C   0  0  0  0  0  0  0  0  0  0  0  0
   -3.0388   -2.0450    1.0257 O   0  0  0  0  0  0  0  0  0  0  0  0
   -4.2770   -0.7810   -0.3532 O   0  0  0  0  0  0  0  0  0  0  0  0
   -4.9670   -0.2285    0.7662 C   0  0  0  0  0  0  0  0  0  0  0  0
   -5.9551    0.7280    0.2594 C   0  0  0  0  0  0  0  0  0  0  0  0
   -5.6658    2.0559    0.0702 C   0  0  0  0  0  0  0  0  0  0  0  0
   -6.6268    2.9284   -0.4079 C   0  0  0  0  0  0  0  0  0  0  0  0
   -7.8866    2.4645   -0.6981 C   0  0  0  0  0  0  0  0  0  0  0  0
   -8.1629    1.1720   -0.5124 N   0  0  0  0  0  0  0  0  0  0  0  0
   -7.2268    0.3107   -0.0442 C   0  0  0  0  0  0  0  0  0  0  0  0
    0.5082   -1.9781   -1.6920 C   0  0  0  0  0  0  0  0  0  0  0  0
    1.6589   -1.3303   -1.3531 C   0  0  0  0  0  0  0  0  0  0  0  0
    4.1254    3.7795   -0.0119 H   0  0  0  0  0  0  0  0  0  0  0  0
    3.1930    2.2410    0.1619 H   0  0  0  0  0  0  0  0  0  0  0  0
    6.4145    3.7583    1.0353 H   0  0  0  0  0  0  0  0  0  0  0  0
    8.5018    2.5147    1.3122 H   0  0  0  0  0  0  0  0  0  0  0  0
    8.6160    0.1453    0.7513 H   0  0  0  0  0  0  0  0  0  0  0  0
    6.6083   -1.0184   -0.1054 H   0  0  0  0  0  0  0  0  0  0  0  0
    4.0075    0.0504   -1.5231 H   0  0  0  0  0  0  0  0  0  0  0  0
    1.5353   -1.7600    1.9647 H   0  0  0  0  0  0  0  0  0  0  0  0
   -0.5351   -2.9404    1.3709 H   0  0  0  0  0  0  0  0  0  0  0  0
   -1.3820   -3.8017   -2.1008 H   0  0  0  0  0  0  0  0  0  0  0  0
   -1.8162   -3.9934   -0.3817 H   0  0  0  0  0  0  0  0  0  0  0  0
   -2.8395   -1.9674   -2.2651 H   0  0  0  0  0  0  0  0  0  0  0  0
   -4.2536    0.2477    1.4790 H   0  0  0  0  0  0  0  0  0  0  0  0
   -5.5372   -1.0389    1.3065 H   0  0  0  0  0  0  0  0  0  0  0  0
   -4.6731    2.4025    0.3031 H   0  0  0  0  0  0  0  0  0  0  0  0
   -6.3925    3.9688   -0.5537 H   0  0  0  0  0  0  0  0  0  0  0  0
   -8.6569    3.1609   -1.0806 H   0  0  0  0  0  0  0  0  0  0  0  0
   -7.5386   -0.7193    0.0751 H   0  0  0  0  0  0  0  0  0  0  0  0
    0.2086   -2.0436   -2.7407 H   0  0  0  0  0  0  0  0  0  0  0  0
    2.3049   -0.8651   -2.1096 H   0  0  0  0  0  0  0  0  0  0  0  0
  1  2  1  0
  2  3  2  0
  3  4  1  0
  4  5  2  0
  5  6  1  0
  6  7  2  0
  7  8  1  0
  8  9  1  0
  9 10  2  0
  9 11  1  0
 11 12  2  0
 12 13  1  0
 13 14  2  0
 14 15  1  0
 15 16  1  0
 16 17  1  0
 17 18  2  0
 17 19  1  0
 19 20  1  0
 20 21  1  0
 21 22  2  0
 22 23  1  0
 23 24  2  0
 24 25  1  0
 25 26  2  0
 14 27  1  0
 27 28  2  0
  7  2  1  0
 28 11  1  0
 26 21  1  0
  1 29  1  0
  1 30  1  0
  3 31  1  0
  4 32  1  0
  5 33  1  0
  6 34  1  0
  8 35  1  0
 12 36  1  0
 13 37  1  0
 15 38  1  0
 15 39  1  0
 16 40  1  0
 20 41  1  0
 20 42  1  0
 22 43  1  0
 23 44  1  0
 24 45  1  0
 26 46  1  0
 27 47  1  0
 28 48  1  0
M  END
$$$$
