@<TRIPOS>MOLECULE
*****
 39 41 0 0 0
SMALL
GASTEIGER

@<TRIPOS>ATOM
      1 C          -1.5355   -0.9070    1.2180 C.3     1  UNL1       -0.0345
      2 C          -2.2045   -0.6923   -0.0983 C.ar    1  UNL1        0.0134
      3 C          -3.5951   -0.5738   -0.3105 C.ar    1  UNL1        0.1270
      4 O          -4.2200   -0.6836    0.8715 O.3     1  UNL1       -0.4827
      5 C          -5.5142   -0.6448    1.3175 C.3     1  UNL1        0.1842
      6 C          -6.2832    0.6211    1.1324 C.3     1  UNL1        0.4236
      7 F          -5.6163    1.6508    1.8055 F       1  UNL1       -0.1671
      8 F          -6.5594    0.9342   -0.1627 F       1  UNL1       -0.1671
      9 F          -7.5311    0.5262    1.7842 F       1  UNL1       -0.1671
     10 C          -3.9214   -0.3869   -1.6216 C.ar    1  UNL1       -0.0015
     11 C          -3.0669   -0.3101   -2.6726 C.ar    1  UNL1        0.0314
     12 N          -1.7651   -0.4310   -2.3930 N.ar    1  UNL1       -0.2585
     13 C          -1.2739   -0.6210   -1.1457 C.ar    1  UNL1        0.0603
     14 C           0.1825   -0.7321   -0.9778 C.3     1  UNL1        0.0734
     15 S           0.8324    0.8166   -0.3286 S.O     1  UNL1        0.0954
     16 O           0.5637    1.9026   -1.3620 O.2     1  UNL1       -0.2488
     17 C           2.5880    0.7209   -0.1136 C.ar    1  UNL1        0.1981
     18 N           3.5256    1.0331   -1.0238 N.ar    1  UNL1       -0.2200
     19 C           4.7555    0.8414   -0.5175 C.ar    1  UNL1        0.0900
     20 C           5.9855    1.0425   -1.1207 C.ar    1  UNL1       -0.0342
     21 C           7.1175    0.7649   -0.3667 C.ar    1  UNL1       -0.0596
     22 C           6.9629    0.3070    0.9329 C.ar    1  UNL1       -0.0597
     23 C           5.6984    0.1207    1.4954 C.ar    1  UNL1       -0.0362
     24 C           4.5590    0.3882    0.7702 C.ar    1  UNL1        0.0669
     25 N           3.2399    0.3219    0.9959 N.ar    1  UNL1       -0.3310
     26 H          -0.6722   -0.2741    1.3998 H       1  UNL1        0.0279
     27 H          -2.3059   -0.5912    1.9831 H       1  UNL1        0.0279
     28 H          -1.3960   -1.9916    1.3719 H       1  UNL1        0.0279
     29 H          -6.1238   -1.4936    0.8790 H       1  UNL1        0.0788
     30 H          -5.5566   -0.8794    2.4316 H       1  UNL1        0.0788
     31 H          -4.9680   -0.3112   -1.7806 H       1  UNL1        0.0669
     32 H          -3.4833   -0.1583   -3.6563 H       1  UNL1        0.0831
     33 H           0.4849   -1.5970   -0.3534 H       1  UNL1        0.0470
     34 H           0.6528   -0.9009   -1.9614 H       1  UNL1        0.0470
     35 H           6.0314    1.4051   -2.1480 H       1  UNL1        0.0639
     36 H           8.0827    0.9211   -0.8360 H       1  UNL1        0.0618
     37 H           7.8802    0.1022    1.4880 H       1  UNL1        0.0618
     38 H           5.6206   -0.2397    2.5169 H       1  UNL1        0.0639
     39 H           2.8289   -0.0008    1.9213 H       1  UNL1        0.1679
@<TRIPOS>BOND
     1     1     2    1
     2     2     3   ar
     3     3     4    1
     4     4     5    1
     5     5     6    1
     6     6     7    1
     7     6     8    1
     8     6     9    1
     9     3    10   ar
    10    10    11   ar
    11    11    12   ar
    12    12    13   ar
    13    13    14    1
    14    14    15    1
    15    15    16    2
    16    15    17    1
    17    17    18   ar
    18    18    19   ar
    19    19    20   ar
    20    20    21   ar
    21    21    22   ar
    22    22    23   ar
    23    23    24   ar
    24    24    25   ar
    25    13     2   ar
    26    25    17   ar
    27    24    19   ar
    28     1    26    1
    29     1    27    1
    30     1    28    1
    31     5    29    1
    32     5    30    1
    33    10    31    1
    34    11    32    1
    35    14    33    1
    36    14    34    1
    37    20    35    1
    38    21    36    1
    39    22    37    1
    40    23    38    1
    41    25    39    1
