@<TRIPOS>MOLECULE
*****
 69 74 0 0 0
SMALL
GASTEIGER

@<TRIPOS>ATOM
      1 C          -4.5549    3.3536   -1.1156 C.3     1  UNL1       -0.0380
      2 C          -5.5470    2.7168   -0.2276 C.ar    1  UNL1       -0.0279
      3 C          -6.3299    3.3997    0.6813 C.ar    1  UNL1       -0.0557
      4 C          -7.2219    2.7050    1.4628 C.ar    1  UNL1       -0.0433
      5 C          -7.3430    1.3234    1.3461 C.ar    1  UNL1        0.0279
      6 N          -6.5652    0.6963    0.4513 N.ar    1  UNL1       -0.2583
      7 C          -5.6815    1.3377   -0.3304 C.ar    1  UNL1        0.0581
      8 C          -4.8770    0.5775   -1.2766 C.3     1  UNL1        0.0415
      9 N          -3.5126    0.3757   -0.8815 N.3     1  UNL1       -0.2965
     10 C          -2.8498   -0.3779   -1.9290 C.3     1  UNL1        0.0017
     11 C          -2.2756   -1.6802   -1.4528 C.3     1  UNL1       -0.0095
     12 C          -1.3013   -1.4342   -0.3580 C.3     1  UNL1        0.1240
     13 C          -1.9085   -0.4727    0.6404 C.3     1  UNL1       -0.0095
     14 C          -3.3894   -0.3792    0.3384 C.3     1  UNL1        0.0017
     15 C          -0.0297   -0.9329   -0.9253 C.2     1  UNL1        0.2516
     16 O           0.2252   -0.3252   -1.9926 O.2     1  UNL1       -0.2724
     17 N           0.9679   -1.2958    0.0508 N.am    1  UNL1       -0.1920
     18 C           2.2204   -0.6438    0.1619 C.ar    1  UNL1        0.0455
     19 C           2.4049    0.4504    0.9830 C.ar    1  UNL1       -0.0392
     20 C           3.6474    1.0799    1.0781 C.ar    1  UNL1       -0.0523
     21 C           4.7291    0.6287    0.3553 C.ar    1  UNL1       -0.0178
     22 C           6.0250    1.2913    0.4603 C.ar    1  UNL1       -0.0178
     23 C           6.3754    1.8713    1.6626 C.ar    1  UNL1       -0.0533
     24 C           7.5906    2.4994    1.7818 C.ar    1  UNL1       -0.0472
     25 C           8.4324    2.5275    0.6720 C.ar    1  UNL1        0.0589
     26 C           9.7113    3.1821    0.7796 C.2     1  UNL1        0.3368
     27 O          10.1169    3.7380    1.8380 O.2     1  UNL1       -0.2451
     28 O          10.5814    3.2355   -0.3003 O.3     1  UNL1       -0.4771
     29 C           8.0690    1.9446   -0.5211 C.ar    1  UNL1       -0.0472
     30 C           6.8446    1.3125   -0.6386 C.ar    1  UNL1       -0.0533
     31 C           4.5344   -0.4733   -0.4687 C.ar    1  UNL1       -0.0523
     32 C           3.3005   -1.0967   -0.5618 C.ar    1  UNL1       -0.0392
     33 C           0.4296   -2.3828    0.8178 C.2     1  UNL1        0.3219
     34 O           1.0419   -2.9555    1.7701 O.2     1  UNL1       -0.2512
     35 N          -0.8611   -2.6507    0.2983 N.am    1  UNL1       -0.2229
     36 C          -1.5405   -3.8832    0.4247 C.ar    1  UNL1        0.1478
     37 C          -1.3631   -4.8386   -0.5467 C.ar    1  UNL1        0.0679
     38 N          -1.9890   -6.0489   -0.4859 N.ar    1  UNL1       -0.2583
     39 C          -2.8035   -6.3203    0.5508 C.ar    1  UNL1        0.0458
     40 C          -2.9900   -5.3658    1.5353 C.ar    1  UNL1        0.0478
     41 N          -2.3545   -4.1688    1.4505 N.ar    1  UNL1       -0.2368
     42 H          -3.5064    3.1641   -0.7705 H       1  UNL1        0.0278
     43 H          -4.6954    3.1182   -2.1895 H       1  UNL1        0.0278
     44 H          -4.6910    4.4613   -1.0325 H       1  UNL1        0.0278
     45 H          -6.2228    4.4725    0.7575 H       1  UNL1        0.0621
     46 H          -7.8622    3.2067    2.1970 H       1  UNL1        0.0633
     47 H          -8.0539    0.8037    1.9738 H       1  UNL1        0.0829
     48 H          -5.3430   -0.4139   -1.4433 H       1  UNL1        0.0491
     49 H          -4.9527    1.0958   -2.2716 H       1  UNL1        0.0491
     50 H          -3.5252   -0.5296   -2.8008 H       1  UNL1        0.0427
     51 H          -2.0007    0.2638   -2.2642 H       1  UNL1        0.0427
     52 H          -3.0523   -2.4316   -1.2040 H       1  UNL1        0.0303
     53 H          -1.7340   -2.1141   -2.3431 H       1  UNL1        0.0303
     54 H          -1.4829    0.5397    0.3964 H       1  UNL1        0.0303
     55 H          -1.6889   -0.7376    1.6762 H       1  UNL1        0.0303
     56 H          -3.8902   -1.3580    0.3187 H       1  UNL1        0.0427
     57 H          -3.8467    0.2105    1.1798 H       1  UNL1        0.0427
     58 H           1.5609    0.8072    1.5501 H       1  UNL1        0.0636
     59 H           3.7838    1.9453    1.7293 H       1  UNL1        0.0624
     60 H           5.6752    1.8161    2.4929 H       1  UNL1        0.0624
     61 H           7.8835    2.9594    2.7150 H       1  UNL1        0.0626
     62 H          11.4450    3.7404   -0.3165 H       1  UNL1        0.2954
     63 H           8.7279    1.9670   -1.3856 H       1  UNL1        0.0626
     64 H           6.5466    0.8548   -1.5556 H       1  UNL1        0.0624
     65 H           5.3980   -0.8221   -1.0364 H       1  UNL1        0.0624
     66 H           3.2164   -1.9545   -1.2259 H       1  UNL1        0.0636
     67 H          -0.7171   -4.6869   -1.4180 H       1  UNL1        0.0865
     68 H          -3.2821   -7.2909    0.5650 H       1  UNL1        0.0845
     69 H          -3.6484   -5.6077    2.3551 H       1  UNL1        0.0846
@<TRIPOS>BOND
     1     1     2    1
     2     2     3   ar
     3     3     4   ar
     4     4     5   ar
     5     5     6   ar
     6     6     7   ar
     7     7     8    1
     8     8     9    1
     9     9    10    1
    10    10    11    1
    11    11    12    1
    12    12    13    1
    13    13    14    1
    14    12    15    1
    15    15    16    2
    16    15    17   am
    17    17    18    1
    18    18    19   ar
    19    19    20   ar
    20    20    21   ar
    21    21    22    1
    22    22    23   ar
    23    23    24   ar
    24    24    25   ar
    25    25    26    1
    26    26    27    2
    27    26    28    1
    28    25    29   ar
    29    29    30   ar
    30    21    31   ar
    31    31    32   ar
    32    17    33   am
    33    33    34    2
    34    33    35   am
    35    35    36    1
    36    36    37   ar
    37    37    38   ar
    38    38    39   ar
    39    39    40   ar
    40    40    41   ar
    41     7     2   ar
    42    14     9    1
    43    32    18   ar
    44    41    36   ar
    45    35    12    1
    46    30    22   ar
    47     1    42    1
    48     1    43    1
    49     1    44    1
    50     3    45    1
    51     4    46    1
    52     5    47    1
    53     8    48    1
    54     8    49    1
    55    10    50    1
    56    10    51    1
    57    11    52    1
    58    11    53    1
    59    13    54    1
    60    13    55    1
    61    14    56    1
    62    14    57    1
    63    19    58    1
    64    20    59    1
    65    23    60    1
    66    24    61    1
    67    28    62    1
    68    29    63    1
    69    30    64    1
    70    31    65    1
    71    32    66    1
    72    37    67    1
    73    39    68    1
    74    40    69    1
