
     RDKit          3D

 69 74  0  0  0  0  0  0  0  0999 V2000
   -4.5549    3.3536   -1.1156 C   0  0  0  0  0  0  0  0  0  0  0  0
   -5.5470    2.7168   -0.2276 C   0  0  0  0  0  0  0  0  0  0  0  0
   -6.3299    3.3997    0.6813 C   0  0  0  0  0  0  0  0  0  0  0  0
   -7.2219    2.7050    1.4628 C   0  0  0  0  0  0  0  0  0  0  0  0
   -7.3430    1.3234    1.3461 C   0  0  0  0  0  0  0  0  0  0  0  0
   -6.5652    0.6963    0.4513 N   0  0  0  0  0  0  0  0  0  0  0  0
   -5.6815    1.3377   -0.3304 C   0  0  0  0  0  0  0  0  0  0  0  0
   -4.8770    0.5775   -1.2766 C   0  0  0  0  0  0  0  0  0  0  0  0
   -3.5126    0.3757   -0.8815 N   0  0  0  0  0  0  0  0  0  0  0  0
   -2.8498   -0.3779   -1.9290 C   0  0  0  0  0  0  0  0  0  0  0  0
   -2.2756   -1.6802   -1.4528 C   0  0  0  0  0  0  0  0  0  0  0  0
   -1.3013   -1.4342   -0.3580 C   0  0  0  0  0  0  0  0  0  0  0  0
   -1.9085   -0.4727    0.6404 C   0  0  0  0  0  0  0  0  0  0  0  0
   -3.3894   -0.3792    0.3384 C   0  0  0  0  0  0  0  0  0  0  0  0
   -0.0297   -0.9329   -0.9253 C   0  0  0  0  0  0  0  0  0  0  0  0
    0.2252   -0.3252   -1.9926 O   0  0  0  0  0  0  0  0  0  0  0  0
    0.9679   -1.2958    0.0508 N   0  0  0  0  0  0  0  0  0  0  0  0
    2.2204   -0.6438    0.1619 C   0  0  0  0  0  0  0  0  0  0  0  0
    2.4049    0.4504    0.9830 C   0  0  0  0  0  0  0  0  0  0  0  0
    3.6474    1.0799    1.0781 C   0  0  0  0  0  0  0  0  0  0  0  0
    4.7291    0.6287    0.3553 C   0  0  0  0  0  0  0  0  0  0  0  0
    6.0250    1.2913    0.4603 C   0  0  0  0  0  0  0  0  0  0  0  0
    6.3754    1.8713    1.6626 C   0  0  0  0  0  0  0  0  0  0  0  0
    7.5906    2.4994    1.7818 C   0  0  0  0  0  0  0  0  0  0  0  0
    8.4324    2.5275    0.6720 C   0  0  0  0  0  0  0  0  0  0  0  0
    9.7113    3.1821    0.7796 C   0  0  0  0  0  0  0  0  0  0  0  0
   10.1169    3.7380    1.8380 O   0  0  0  0  0  0  0  0  0  0  0  0
   10.5814    3.2355   -0.3003 O   0  0  0  0  0  0  0  0  0  0  0  0
    8.0690    1.9446   -0.5211 C   0  0  0  0  0  0  0  0  0  0  0  0
    6.8446    1.3125   -0.6386 C   0  0  0  0  0  0  0  0  0  0  0  0
    4.5344   -0.4733   -0.4687 C   0  0  0  0  0  0  0  0  0  0  0  0
    3.3005   -1.0967   -0.5618 C   0  0  0  0  0  0  0  0  0  0  0  0
    0.4296   -2.3828    0.8178 C   0  0  0  0  0  0  0  0  0  0  0  0
    1.0419   -2.9555    1.7701 O   0  0  0  0  0  0  0  0  0  0  0  0
   -0.8611   -2.6507    0.2983 N   0  0  0  0  0  0  0  0  0  0  0  0
   -1.5405   -3.8832    0.4247 C   0  0  0  0  0  0  0  0  0  0  0  0
   -1.3631   -4.8386   -0.5467 C   0  0  0  0  0  0  0  0  0  0  0  0
   -1.9890   -6.0489   -0.4859 N   0  0  0  0  0  0  0  0  0  0  0  0
   -2.8035   -6.3203    0.5508 C   0  0  0  0  0  0  0  0  0  0  0  0
   -2.9900   -5.3658    1.5353 C   0  0  0  0  0  0  0  0  0  0  0  0
   -2.3545   -4.1688    1.4505 N   0  0  0  0  0  0  0  0  0  0  0  0
   -3.5064    3.1641   -0.7705 H   0  0  0  0  0  0  0  0  0  0  0  0
   -4.6954    3.1182   -2.1895 H   0  0  0  0  0  0  0  0  0  0  0  0
   -4.6910    4.4613   -1.0325 H   0  0  0  0  0  0  0  0  0  0  0  0
   -6.2228    4.4725    0.7575 H   0  0  0  0  0  0  0  0  0  0  0  0
   -7.8622    3.2067    2.1970 H   0  0  0  0  0  0  0  0  0  0  0  0
   -8.0539    0.8037    1.9738 H   0  0  0  0  0  0  0  0  0  0  0  0
   -5.3430   -0.4139   -1.4433 H   0  0  0  0  0  0  0  0  0  0  0  0
   -4.9527    1.0958   -2.2716 H   0  0  0  0  0  0  0  0  0  0  0  0
   -3.5252   -0.5296   -2.8008 H   0  0  0  0  0  0  0  0  0  0  0  0
   -2.0007    0.2638   -2.2642 H   0  0  0  0  0  0  0  0  0  0  0  0
   -3.0523   -2.4316   -1.2040 H   0  0  0  0  0  0  0  0  0  0  0  0
   -1.7340   -2.1141   -2.3431 H   0  0  0  0  0  0  0  0  0  0  0  0
   -1.4829    0.5397    0.3964 H   0  0  0  0  0  0  0  0  0  0  0  0
   -1.6889   -0.7376    1.6762 H   0  0  0  0  0  0  0  0  0  0  0  0
   -3.8902   -1.3580    0.3187 H   0  0  0  0  0  0  0  0  0  0  0  0
   -3.8467    0.2105    1.1798 H   0  0  0  0  0  0  0  0  0  0  0  0
    1.5609    0.8072    1.5501 H   0  0  0  0  0  0  0  0  0  0  0  0
    3.7838    1.9453    1.7293 H   0  0  0  0  0  0  0  0  0  0  0  0
    5.6752    1.8161    2.4929 H   0  0  0  0  0  0  0  0  0  0  0  0
    7.8835    2.9594    2.7150 H   0  0  0  0  0  0  0  0  0  0  0  0
   11.4450    3.7404   -0.3165 H   0  0  0  0  0  0  0  0  0  0  0  0
    8.7279    1.9670   -1.3856 H   0  0  0  0  0  0  0  0  0  0  0  0
    6.5466    0.8548   -1.5556 H   0  0  0  0  0  0  0  0  0  0  0  0
    5.3980   -0.8221   -1.0364 H   0  0  0  0  0  0  0  0  0  0  0  0
    3.2164   -1.9545   -1.2259 H   0  0  0  0  0  0  0  0  0  0  0  0
   -0.7171   -4.6869   -1.4180 H   0  0  0  0  0  0  0  0  0  0  0  0
   -3.2821   -7.2909    0.5650 H   0  0  0  0  0  0  0  0  0  0  0  0
   -3.6484   -5.6077    2.3551 H   0  0  0  0  0  0  0  0  0  0  0  0
  1  2  1  0
  2  3  2  0
  3  4  1  0
  4  5  2  0
  5  6  1  0
  6  7  2  0
  7  8  1  0
  8  9  1  0
  9 10  1  0
 10 11  1  0
 11 12  1  0
 12 13  1  0
 13 14  1  0
 12 15  1  0
 15 16  2  0
 15 17  1  0
 17 18  1  0
 18 19  2  0
 19 20  1  0
 20 21  2  0
 21 22  1  0
 22 23  2  0
 23 24  1  0
 24 25  2  0
 25 26  1  0
 26 27  2  0
 26 28  1  0
 25 29  1  0
 29 30  2  0
 21 31  1  0
 31 32  2  0
 17 33  1  0
 33 34  2  0
 33 35  1  0
 35 36  1  0
 36 37  2  0
 37 38  1  0
 38 39  2  0
 39 40  1  0
 40 41  2  0
  7  2  1  0
 14  9  1  0
 32 18  1  0
 41 36  1  0
 35 12  1  0
 30 22  1  0
  1 42  1  0
  1 43  1  0
  1 44  1  0
  3 45  1  0
  4 46  1  0
  5 47  1  0
  8 48  1  0
  8 49  1  0
 10 50  1  0
 10 51  1  0
 11 52  1  0
 11 53  1  0
 13 54  1  0
 13 55  1  0
 14 56  1  0
 14 57  1  0
 19 58  1  0
 20 59  1  0
 23 60  1  0
 24 61  1  0
 28 62  1  0
 29 63  1  0
 30 64  1  0
 31 65  1  0
 32 66  1  0
 37 67  1  0
 39 68  1  0
 40 69  1  0
M  END
$$$$
