@<TRIPOS>MOLECULE
*****
 63 64 0 0 0
SMALL
GASTEIGER

@<TRIPOS>ATOM
      1 C           0.4991    2.1699    0.9360 C.3     1  UNL1        0.0365
      2 O           0.1826    1.2362    1.8843 O.3     1  UNL1       -0.3826
      3 C          -1.1616    0.9493    1.9974 C.3     1  UNL1        0.0518
      4 C          -1.6912    0.4179    0.7126 C.3     1  UNL1        0.0023
      5 C          -3.1863    0.0811    0.8135 C.3     1  UNL1       -0.0307
      6 C          -3.6776   -0.1763   -0.5689 C.3     1  UNL1        0.0108
      7 N          -5.0871   -0.4278   -0.6539 N.3     1  UNL1       -0.3000
      8 C          -5.4501   -0.6607   -2.0363 C.3     1  UNL1       -0.0122
      9 C          -5.9203    0.5713   -0.0750 C.3     1  UNL1        0.0048
     10 C          -5.7878    1.9364   -0.6651 C.3     1  UNL1       -0.0497
     11 C          -7.3704    0.1185   -0.2841 C.3     1  UNL1       -0.0497
     12 C          -2.9361   -1.3572   -1.1421 C.3     1  UNL1       -0.0356
     13 C          -1.9071   -1.9102   -0.1795 C.3     1  UNL1       -0.0328
     14 C          -0.9802   -0.7832    0.1989 C.3     1  UNL1        0.0282
     15 N           0.0805   -1.2294    1.0822 N.am    1  UNL1       -0.3108
     16 C           1.4403   -1.2776    0.7467 C.2     1  UNL1        0.2304
     17 O           1.7951   -0.9141   -0.3948 O.2     1  UNL1       -0.2741
     18 C           2.4320   -1.7524    1.7343 C.3     1  UNL1        0.0884
     19 N           3.7797   -1.7370    1.2227 N.am    1  UNL1       -0.3028
     20 C           4.3959   -0.5362    0.7784 C.2     1  UNL1        0.2445
     21 O           3.7015    0.5122    0.8556 O.2     1  UNL1       -0.2702
     22 C           5.7532   -0.4721    0.2547 C.ar    1  UNL1        0.0372
     23 C           6.5691   -1.5639    0.1385 C.ar    1  UNL1       -0.0496
     24 C           7.8651   -1.4641   -0.3682 C.ar    1  UNL1       -0.0605
     25 C           8.3142   -0.2227   -0.7557 C.ar    1  UNL1       -0.0501
     26 C           7.5221    0.9113   -0.6559 C.ar    1  UNL1        0.0555
     27 C           8.0731    2.2051   -1.0910 C.3     1  UNL1        0.4174
     28 F           8.1207    2.3725   -2.4421 F       1  UNL1       -0.1659
     29 F           7.2428    3.1937   -0.5550 F       1  UNL1       -0.1659
     30 F           9.3200    2.4210   -0.5123 F       1  UNL1       -0.1659
     31 C           6.2591    0.7412   -0.1493 C.ar    1  UNL1       -0.0380
     32 H           1.6218    2.3113    0.9695 H       1  UNL1        0.0523
     33 H          -0.0009    3.1195    1.1794 H       1  UNL1        0.0523
     34 H           0.2683    1.8793   -0.1115 H       1  UNL1        0.0523
     35 H          -1.6823    1.9217    2.1951 H       1  UNL1        0.0563
     36 H          -1.2843    0.2549    2.8537 H       1  UNL1        0.0563
     37 H          -1.6265    1.2590   -0.0402 H       1  UNL1        0.0341
     38 H          -3.2913   -0.7885    1.4856 H       1  UNL1        0.0284
     39 H          -3.7176    0.9103    1.3266 H       1  UNL1        0.0284
     40 H          -3.4897    0.7540   -1.1766 H       1  UNL1        0.0463
     41 H          -4.6453   -0.3024   -2.7422 H       1  UNL1        0.0391
     42 H          -6.3766   -0.1505   -2.3316 H       1  UNL1        0.0391
     43 H          -5.5702   -1.7607   -2.2353 H       1  UNL1        0.0391
     44 H          -5.7882    0.5775    1.0466 H       1  UNL1        0.0457
     45 H          -6.7616    2.3140   -1.0954 H       1  UNL1        0.0245
     46 H          -5.5637    2.6765    0.1584 H       1  UNL1        0.0245
     47 H          -5.0633    2.0103   -1.4960 H       1  UNL1        0.0245
     48 H          -7.8240    0.7101   -1.1325 H       1  UNL1        0.0245
     49 H          -7.9732    0.2214    0.6239 H       1  UNL1        0.0245
     50 H          -7.4217   -0.9382   -0.6113 H       1  UNL1        0.0245
     51 H          -2.4837   -1.1275   -2.1321 H       1  UNL1        0.0281
     52 H          -3.6861   -2.1777   -1.3115 H       1  UNL1        0.0281
     53 H          -2.4001   -2.4020    0.6772 H       1  UNL1        0.0284
     54 H          -1.2972   -2.6430   -0.7640 H       1  UNL1        0.0284
     55 H          -0.4511   -0.5039   -0.7600 H       1  UNL1        0.0502
     56 H          -0.2068   -1.5352    2.0384 H       1  UNL1        0.1490
     57 H           2.3470   -1.1617    2.6898 H       1  UNL1        0.0558
     58 H           2.1596   -2.7889    2.0131 H       1  UNL1        0.0558
     59 H           4.3400   -2.6138    1.1660 H       1  UNL1        0.1495
     60 H           6.2322   -2.5413    0.4374 H       1  UNL1        0.0625
     61 H           8.4979   -2.3394   -0.4533 H       1  UNL1        0.0618
     62 H           9.3061   -0.1389   -1.1448 H       1  UNL1        0.0623
     63 H           5.6423    1.6411   -0.0745 H       1  UNL1        0.0631
@<TRIPOS>BOND
     1     1     2    1
     2     2     3    1
     3     3     4    1
     4     4     5    1
     5     5     6    1
     6     6     7    1
     7     7     8    1
     8     7     9    1
     9     9    10    1
    10     9    11    1
    11     6    12    1
    12    12    13    1
    13    13    14    1
    14    14    15    1
    15    15    16   am
    16    16    17    2
    17    16    18    1
    18    18    19    1
    19    19    20   am
    20    20    21    2
    21    20    22    1
    22    22    23   ar
    23    23    24   ar
    24    24    25   ar
    25    25    26   ar
    26    26    27    1
    27    27    28    1
    28    27    29    1
    29    27    30    1
    30    26    31   ar
    31    14     4    1
    32    31    22   ar
    33     1    32    1
    34     1    33    1
    35     1    34    1
    36     3    35    1
    37     3    36    1
    38     4    37    1
    39     5    38    1
    40     5    39    1
    41     6    40    1
    42     8    41    1
    43     8    42    1
    44     8    43    1
    45     9    44    1
    46    10    45    1
    47    10    46    1
    48    10    47    1
    49    11    48    1
    50    11    49    1
    51    11    50    1
    52    12    51    1
    53    12    52    1
    54    13    53    1
    55    13    54    1
    56    14    55    1
    57    15    56    1
    58    18    57    1
    59    18    58    1
    60    19    59    1
    61    23    60    1
    62    24    61    1
    63    25    62    1
    64    31    63    1
