@<TRIPOS>MOLECULE
*****
 41 43 0 0 0
SMALL
GASTEIGER

@<TRIPOS>ATOM
      1 C           6.5507   -1.3250    0.2499 C.3     1  UNL1        0.0032
      2 N           5.5668   -0.8593   -0.7110 N.am    1  UNL1       -0.2839
      3 C           4.3189   -0.3730   -0.2256 C.2     1  UNL1        0.4053
      4 O           4.1197   -0.3663    1.0089 O.2     1  UNL1       -0.2260
      5 O           3.3274    0.0876   -1.0518 O.3     1  UNL1       -0.4115
      6 C           2.1002    0.5692   -0.6306 C.ar    1  UNL1        0.1336
      7 C           1.9110    1.9009   -0.3461 C.ar    1  UNL1       -0.0174
      8 C           0.6583    2.3042    0.0683 C.ar    1  UNL1       -0.0369
      9 C          -0.3963    1.4228    0.2041 C.ar    1  UNL1        0.0347
     10 C          -0.1708    0.1069   -0.0875 C.ar    1  UNL1       -0.0139
     11 C           1.0760   -0.3487   -0.5095 C.ar    1  UNL1       -0.0136
     12 C          -1.4143   -0.6554    0.1215 C.3     1  UNL1        0.0279
     13 C          -1.1343   -1.9650    0.8033 C.3     1  UNL1       -0.0525
     14 C          -2.1231   -0.7920   -1.1870 C.3     1  UNL1       -0.0277
     15 C          -3.3188    0.1314   -1.0005 C.3     1  UNL1        0.0012
     16 N          -3.5657    0.1359    0.4296 N.3     1  UNL1       -0.2867
     17 C          -4.1683   -1.1402    0.7593 C.3     1  UNL1       -0.0111
     18 C          -2.2337    0.2810    0.9740 C.3     1  UNL1        0.0860
     19 N          -1.7491    1.5825    0.6031 N.pl3   1  UNL1       -0.3162
     20 C          -2.4546    2.8563    0.6117 C.3     1  UNL1        0.0022
     21 H           6.0353   -1.8674    1.0722 H       1  UNL1        0.0427
     22 H           7.0690   -0.4377    0.6523 H       1  UNL1        0.0427
     23 H           7.2412   -2.0177   -0.2657 H       1  UNL1        0.0427
     24 H           5.7354   -0.8654   -1.7480 H       1  UNL1        0.1517
     25 H           2.7309    2.6296   -0.4441 H       1  UNL1        0.0655
     26 H           0.4911    3.3508    0.2970 H       1  UNL1        0.0637
     27 H           1.2272   -1.4126   -0.7368 H       1  UNL1        0.0658
     28 H          -1.6631   -2.0644    1.7783 H       1  UNL1        0.0239
     29 H          -1.3314   -2.7857    0.1122 H       1  UNL1        0.0239
     30 H          -0.0426   -2.0152    1.0627 H       1  UNL1        0.0239
     31 H          -1.5539   -0.4405   -2.0583 H       1  UNL1        0.0287
     32 H          -2.4491   -1.8320   -1.3905 H       1  UNL1        0.0287
     33 H          -4.2227   -0.2888   -1.4912 H       1  UNL1        0.0427
     34 H          -3.0713    1.1264   -1.3823 H       1  UNL1        0.0427
     35 H          -3.5801   -1.9773    0.3333 H       1  UNL1        0.0391
     36 H          -5.1532   -1.1627    0.2407 H       1  UNL1        0.0391
     37 H          -4.3630   -1.2636    1.8387 H       1  UNL1        0.0391
     38 H          -2.1650    0.0876    2.0444 H       1  UNL1        0.0680
     39 H          -2.6092    3.2661   -0.3991 H       1  UNL1        0.0428
     40 H          -1.8246    3.6146    1.1526 H       1  UNL1        0.0428
     41 H          -3.4008    2.8021    1.1796 H       1  UNL1        0.0428
@<TRIPOS>BOND
     1     1     2    1
     2     2     3   am
     3     3     4    2
     4     3     5    1
     5     5     6    1
     6     6     7   ar
     7     7     8   ar
     8     8     9   ar
     9     9    10   ar
    10    10    11   ar
    11    10    12    1
    12    12    13    1
    13    12    14    1
    14    14    15    1
    15    15    16    1
    16    16    17    1
    17    16    18    1
    18    18    19    1
    19    19    20    1
    20    11     6   ar
    21    18    12    1
    22    19     9    1
    23     1    21    1
    24     1    22    1
    25     1    23    1
    26     2    24    1
    27     7    25    1
    28     8    26    1
    29    11    27    1
    30    13    28    1
    31    13    29    1
    32    13    30    1
    33    14    31    1
    34    14    32    1
    35    15    33    1
    36    15    34    1
    37    17    35    1
    38    17    36    1
    39    17    37    1
    40    18    38    1
    41    20    39    1
    42    20    40    1
    43    20    41    1
