@<TRIPOS>MOLECULE
*****
 44 47 0 0 0
SMALL
GASTEIGER

@<TRIPOS>ATOM
      1 C          -2.8840    3.2334    1.7592 C.3     1  UNL1        0.0573
      2 N          -2.3398    2.1019    1.0179 N.am    1  UNL1       -0.1614
      3 C          -2.1472    0.7673    1.4589 C.2     1  UNL1        0.3303
      4 O          -2.4252    0.3373    2.6020 O.2     1  UNL1       -0.2520
      5 C          -1.5719    0.0430    0.3136 C.3     1  UNL1        0.2647
      6 C          -2.4459   -1.0460   -0.2076 C.ar    1  UNL1        0.0135
      7 C          -3.4821   -1.6025    0.4906 C.ar    1  UNL1       -0.0359
      8 C          -4.2350   -2.6171   -0.0895 C.ar    1  UNL1        0.0280
      9 N          -3.9203   -3.0260   -1.3314 N.ar    1  UNL1       -0.2632
     10 C          -2.9104   -2.5022   -2.0447 C.ar    1  UNL1        0.0280
     11 C          -2.1643   -1.4992   -1.4744 C.ar    1  UNL1       -0.0359
     12 C          -0.2809   -0.5337    0.7380 C.ar    1  UNL1        0.0112
     13 C          -0.2926   -1.4616    1.7587 C.ar    1  UNL1       -0.0540
     14 C           0.9171   -1.9951    2.1485 C.ar    1  UNL1       -0.0608
     15 C           2.0876   -1.6061    1.5322 C.ar    1  UNL1       -0.0540
     16 C           2.1155   -0.6792    0.5104 C.ar    1  UNL1       -0.0174
     17 C           3.3742   -0.2939   -0.1170 C.ar    1  UNL1       -0.0152
     18 C           4.5704   -0.2676    0.5706 C.ar    1  UNL1       -0.0539
     19 C           5.7575    0.1108   -0.0561 C.ar    1  UNL1       -0.0585
     20 C           5.7654    0.4716   -1.3916 C.ar    1  UNL1       -0.0264
     21 C           4.5800    0.4468   -2.0779 C.ar    1  UNL1        0.1240
     22 F           4.5413    0.7925   -3.3865 F       1  UNL1       -0.2055
     23 C           3.3884    0.0667   -1.4482 C.ar    1  UNL1       -0.0187
     24 C           0.8927   -0.1487    0.1256 C.ar    1  UNL1       -0.0463
     25 N          -1.4662    1.0185   -0.7258 N.2     1  UNL1       -0.0891
     26 C          -1.8955    2.1671   -0.3312 C.2     1  UNL1        0.3731
     27 N          -1.9321    3.3715   -1.1315 N.pl3   1  UNL1       -0.2512
     28 H          -2.4862    4.1953    1.4009 H       1  UNL1        0.0602
     29 H          -2.5025    3.1060    2.8106 H       1  UNL1        0.0602
     30 H          -3.9836    3.2386    1.7742 H       1  UNL1        0.0602
     31 H          -3.7048   -1.2480    1.4855 H       1  UNL1        0.0637
     32 H          -5.0617   -3.0513    0.4848 H       1  UNL1        0.0829
     33 H          -2.6825   -2.8659   -3.0636 H       1  UNL1        0.0829
     34 H          -1.3318   -1.0594   -2.0469 H       1  UNL1        0.0637
     35 H          -1.2358   -1.7570    2.2358 H       1  UNL1        0.0622
     36 H           0.8913   -2.7305    2.9610 H       1  UNL1        0.0618
     37 H           3.0289   -2.0318    1.8472 H       1  UNL1        0.0624
     38 H           4.5823   -0.5487    1.6209 H       1  UNL1        0.0624
     39 H           6.7085    0.1407    0.4570 H       1  UNL1        0.0619
     40 H           6.6762    0.7711   -1.9049 H       1  UNL1        0.0646
     41 H           2.4473    0.0450   -1.9850 H       1  UNL1        0.0652
     42 H           0.9306    0.5792   -0.6797 H       1  UNL1        0.0628
     43 H          -1.2097    4.0921   -0.9298 H       1  UNL1        0.2412
     44 H          -2.6633    3.4749   -1.8661 H       1  UNL1        0.2412
@<TRIPOS>BOND
     1     1     2    1
     2     2     3   am
     3     3     4    2
     4     3     5    1
     5     5     6    1
     6     6     7   ar
     7     7     8   ar
     8     8     9   ar
     9     9    10   ar
    10    10    11   ar
    11     5    12    1
    12    12    13   ar
    13    13    14   ar
    14    14    15   ar
    15    15    16   ar
    16    16    17    1
    17    17    18   ar
    18    18    19   ar
    19    19    20   ar
    20    20    21   ar
    21    21    22    1
    22    21    23   ar
    23    16    24   ar
    24     5    25    1
    25    25    26    2
    26    26    27    1
    27    26     2    1
    28    11     6   ar
    29    24    12   ar
    30    23    17   ar
    31     1    28    1
    32     1    29    1
    33     1    30    1
    34     7    31    1
    35     8    32    1
    36    10    33    1
    37    11    34    1
    38    13    35    1
    39    14    36    1
    40    15    37    1
    41    18    38    1
    42    19    39    1
    43    20    40    1
    44    23    41    1
    45    24    42    1
    46    27    43    1
    47    27    44    1
