@<TRIPOS>MOLECULE
*****
 17 17 0 0 0
SMALL
GASTEIGER

@<TRIPOS>ATOM
      1 N           2.9027   -0.1190    0.5777 N.3     1  UNL1       -0.2033
      2 S           1.8509    0.2603   -0.7454 S.O2    1  UNL1        0.0614
      3 O           2.1120    1.6924   -1.1180 O.2     1  UNL1       -0.1531
      4 O           2.2057   -0.6823   -1.8769 O.2     1  UNL1       -0.1531
      5 C           0.1677    0.0841   -0.3060 C.ar    1  UNL1        0.1749
      6 C          -0.4927   -1.1173   -0.4722 C.ar    1  UNL1        0.1525
      7 F           0.1456   -2.1959   -0.9814 F       1  UNL1       -0.2033
      8 C          -1.8374   -1.2120   -0.1074 C.ar    1  UNL1       -0.0243
      9 C          -2.4588   -0.0789    0.4132 C.ar    1  UNL1       -0.0562
     10 C          -1.8170    1.1338    0.5882 C.ar    1  UNL1       -0.0243
     11 C          -0.4717    1.1917    0.2122 C.ar    1  UNL1        0.1525
     12 F           0.2064    2.3762    0.3681 F       1  UNL1       -0.2033
     13 H           3.3212   -1.0608    0.5118 H       1  UNL1        0.1442
     14 H           2.3837    0.0298    1.4700 H       1  UNL1        0.1442
     15 H          -2.3834   -2.1378   -0.2246 H       1  UNL1        0.0647
     16 H          -3.5085   -0.1617    0.6953 H       1  UNL1        0.0619
     17 H          -2.3266    1.9975    0.9954 H       1  UNL1        0.0647
@<TRIPOS>BOND
     1     1     2    1
     2     2     3    2
     3     2     4    2
     4     2     5    1
     5     5     6   ar
     6     6     7    1
     7     6     8   ar
     8     8     9   ar
     9     9    10   ar
    10    10    11   ar
    11    11    12    1
    12    11     5   ar
    13     1    13    1
    14     1    14    1
    15     8    15    1
    16     9    16    1
    17    10    17    1
