
     RDKit          3D

 17 17  0  0  0  0  0  0  0  0999 V2000
    2.9027   -0.1190    0.5777 N   0  0  0  0  0  0  0  0  0  0  0  0
    1.8509    0.2603   -0.7454 S   0  0  0  0  0  0  0  0  0  0  0  0
    2.1120    1.6924   -1.1180 O   0  0  0  0  0  0  0  0  0  0  0  0
    2.2057   -0.6823   -1.8769 O   0  0  0  0  0  0  0  0  0  0  0  0
    0.1677    0.0841   -0.3060 C   0  0  0  0  0  0  0  0  0  0  0  0
   -0.4927   -1.1173   -0.4722 C   0  0  0  0  0  0  0  0  0  0  0  0
    0.1456   -2.1959   -0.9814 F   0  0  0  0  0  0  0  0  0  0  0  0
   -1.8374   -1.2120   -0.1074 C   0  0  0  0  0  0  0  0  0  0  0  0
   -2.4588   -0.0789    0.4132 C   0  0  0  0  0  0  0  0  0  0  0  0
   -1.8170    1.1338    0.5882 C   0  0  0  0  0  0  0  0  0  0  0  0
   -0.4717    1.1917    0.2122 C   0  0  0  0  0  0  0  0  0  0  0  0
    0.2064    2.3762    0.3681 F   0  0  0  0  0  0  0  0  0  0  0  0
    3.3212   -1.0608    0.5118 H   0  0  0  0  0  0  0  0  0  0  0  0
    2.3837    0.0298    1.4700 H   0  0  0  0  0  0  0  0  0  0  0  0
   -2.3834   -2.1378   -0.2246 H   0  0  0  0  0  0  0  0  0  0  0  0
   -3.5085   -0.1617    0.6953 H   0  0  0  0  0  0  0  0  0  0  0  0
   -2.3266    1.9975    0.9954 H   0  0  0  0  0  0  0  0  0  0  0  0
  1  2  1  0
  2  3  2  0
  2  4  2  0
  2  5  1  0
  5  6  2  0
  6  7  1  0
  6  8  1  0
  8  9  2  0
  9 10  1  0
 10 11  2  0
 11 12  1  0
 11  5  1  0
  1 13  1  0
  1 14  1  0
  8 15  1  0
  9 16  1  0
 10 17  1  0
M  END
$$$$
