@<TRIPOS>MOLECULE
*****
 16 15 0 0 0
SMALL
GASTEIGER

@<TRIPOS>ATOM
      1 N          -0.3368   -1.4636   -0.8644 N.3     1  ASP1       -0.3180
      2 CA         -0.3444   -0.4660    0.1632 C.3     1  ASP1        0.1133
      3 CB          0.3460    0.7925   -0.2783 C.3     1  ASP1        0.0702
      4 CG          1.7576    0.4383   -0.6133 C.2     1  ASP1        0.3067
      5 OD1         2.8253    0.7262    0.2426 O.3     1  ASP1       -0.4806
      6 OD2         2.0745   -0.1375   -1.6788 O.2     1  ASP1       -0.2509
      7 C          -1.7288   -0.0736    0.5660 C.2     1  ASP1        0.3223
      8 O          -1.7092    0.9038    1.5723 O.3     1  ASP1       -0.4795
      9 OXT        -2.8603   -0.4369    0.1911 O.2     1  ASP1       -0.2492
     10 H1         -0.8061   -2.3281   -0.5353 H       1  ASP1        0.1190
     11 H2         -0.5925   -1.1316   -1.7991 H       1  ASP1        0.1190
     12 HA          0.1594   -0.8496    1.0570 H       1  ASP1        0.0579
     13 HB1         0.3531    1.4975    0.5772 H       1  ASP1        0.0398
     14 HB2        -0.1558    1.3004   -1.1171 H       1  ASP1        0.0398
     15 HD1         3.5405    0.0468    0.4136 H       1  ASP1        0.2951
     16 H          -2.5224    1.1815    2.1034 H       1  ASP1        0.2951
@<TRIPOS>BOND
     1     1     2    1
     2     2     3    1
     3     3     4    1
     4     4     5    1
     5     4     6    2
     6     2     7    1
     7     7     8    1
     8     7     9    2
     9     1    10    1
    10     1    11    1
    11     2    12    1
    12     3    13    1
    13     3    14    1
    14     5    15    1
    15     8    16    1
