
     RDKit          3D

120127  0  0  0  0  0  0  0  0999 V2000
   -8.3229    3.7923   -1.2152 C   0  0  0  0  0  0  0  0  0  0  0  0
   -9.0335    2.5166   -0.8582 C   0  0  0  0  0  0  0  0  0  0  0  0
  -10.1633    2.5723   -0.1608 C   0  0  0  0  0  0  0  0  0  0  0  0
  -10.4652    1.3373    0.6525 C   0  0  0  0  0  0  0  0  0  0  0  0
  -11.2488    0.4195   -0.2222 C   0  0  0  0  0  0  0  0  0  0  0  0
  -10.5777   -0.8860   -0.4693 C   0  0  0  0  0  0  0  0  0  0  0  0
  -11.3528   -1.9511   -0.7172 N   0  0  0  0  0  0  0  0  0  0  0  0
  -10.8242   -3.1816   -0.9428 C   0  0  0  0  0  0  0  0  0  0  0  0
  -11.5798   -4.1456   -1.1694 O   0  0  0  0  0  0  0  0  0  0  0  0
   -9.4615   -3.3599   -0.9206 C   0  0  0  0  0  0  0  0  0  0  0  0
   -8.6546   -2.2554   -0.6637 C   0  0  0  0  0  0  0  0  0  0  0  0
   -9.2207   -1.0332   -0.4418 C   0  0  0  0  0  0  0  0  0  0  0  0
   -8.4231    0.1920   -0.1613 C   0  0  1  0  0  0  0  0  0  0  0  0
   -8.4980    1.2073   -1.2694 C   0  0  0  0  0  0  0  0  0  0  0  0
   -9.1073    0.8088    1.0682 C   0  0  2  0  0  0  0  0  0  0  0  0
   -9.2069   -0.2519    2.1146 C   0  0  0  0  0  0  0  0  0  0  0  0
   -7.8317   -0.7358    2.4767 C   0  0  0  0  0  0  0  0  0  0  0  0
   -6.7542   -0.1002    1.6459 C   0  0  0  0  0  0  0  0  0  0  0  0
   -7.0742   -0.1245    0.2244 N   0  0  0  0  0  0  0  0  0  0  0  0
   -6.0578   -0.4453   -0.7056 C   0  0  0  0  0  0  0  0  0  0  0  0
   -6.2487   -0.4917   -1.9372 O   0  0  0  0  0  0  0  0  0  0  0  0
   -4.6579   -0.7524   -0.2161 C   0  0  0  0  0  0  0  0  0  0  0  0
   -3.7902   -0.9353   -1.4194 C   0  0  0  0  0  0  0  0  0  0  0  0
   -2.4418   -1.1809   -1.2615 N   0  0  0  0  0  0  0  0  0  0  0  0
   -1.7960   -1.3696   -2.5427 C   0  0  0  0  0  0  0  0  0  0  0  0
   -1.8752   -1.8113   -0.1706 C   0  0  0  0  0  0  0  0  0  0  0  0
   -1.8941   -1.0610    1.0912 C   0  0  0  0  0  0  0  0  0  0  0  0
   -1.3518    0.2898    1.1788 C   0  0  0  0  0  0  0  0  0  0  0  0
    0.0854    0.5907    0.9481 C   0  0  0  0  0  0  0  0  0  0  0  0
    0.5941    0.3291   -0.3939 C   0  0  0  0  0  0  0  0  0  0  0  0
    1.9888    0.6447   -0.7504 C   0  0  0  0  0  0  0  0  0  0  0  0
    3.0802   -0.0155   -0.0547 N   0  0  0  0  0  0  0  0  0  0  0  0
    3.0841    0.6285    1.2823 C   0  0  0  0  0  0  0  0  0  0  0  0
    4.2869    0.3398   -0.7492 C   0  0  0  0  0  0  0  0  0  0  0  0
    5.4909   -0.5256   -0.6368 C   0  0  0  0  0  0  0  0  0  0  0  0
    6.0258   -0.8206    0.6848 C   0  0  0  0  0  0  0  0  0  0  0  0
    5.0938   -1.2892    1.4911 O   0  0  0  0  0  0  0  0  0  0  0  0
    7.3219   -0.6909    1.2090 N   0  0  0  0  0  0  0  0  0  0  0  0
    7.3920   -1.0022    2.6705 C   0  0  0  0  0  0  0  0  0  0  0  0
    7.3834    0.4034    3.3070 C   0  0  0  0  0  0  0  0  0  0  0  0
    7.7278    1.4724    2.2438 C   0  0  0  0  0  0  0  0  0  0  0  0
    8.9184    0.9613    1.5318 C   0  0  2  0  0  0  0  0  0  0  0  0
    9.7336    1.8566    0.6979 C   0  0  0  0  0  0  0  0  0  0  0  0
   10.7498    0.9205    0.0361 C   0  0  0  0  0  0  0  0  0  0  0  0
   10.9220   -0.3291    0.4497 C   0  0  0  0  0  0  0  0  0  0  0  0
   12.3119   -0.8651    0.3756 C   0  0  0  0  0  0  0  0  0  0  0  0
    9.7758   -1.1928    0.9811 C   0  0  0  0  0  0  0  0  0  0  0  0
    8.5584   -0.2863    0.6717 C   0  0  1  0  0  0  0  0  0  0  0  0
    8.6719   -0.0530   -0.7641 C   0  0  0  0  0  0  0  0  0  0  0  0
    8.6941   -1.1218   -1.6325 C   0  0  0  0  0  0  0  0  0  0  0  0
    8.8149   -0.9401   -2.9911 C   0  0  0  0  0  0  0  0  0  0  0  0
    8.9179    0.3088   -3.5399 C   0  0  0  0  0  0  0  0  0  0  0  0
    9.0253    0.4418   -4.7835 O   0  0  0  0  0  0  0  0  0  0  0  0
    8.8984    1.3835   -2.6833 N   0  0  0  0  0  0  0  0  0  0  0  0
    8.7823    1.1928   -1.3688 C   0  0  0  0  0  0  0  0  0  0  0  0
    8.8571    2.3949   -0.4596 C   0  0  0  0  0  0  0  0  0  0  0  0
   -8.9830    4.4792   -1.7888 H   0  0  0  0  0  0  0  0  0  0  0  0
   -8.0359    4.2898   -0.2529 H   0  0  0  0  0  0  0  0  0  0  0  0
   -7.4257    3.5527   -1.8133 H   0  0  0  0  0  0  0  0  0  0  0  0
  -10.8267    3.4177   -0.1566 H   0  0  0  0  0  0  0  0  0  0  0  0
  -11.0047    1.6246    1.5705 H   0  0  0  0  0  0  0  0  0  0  0  0
  -12.2092    0.1898    0.3167 H   0  0  0  0  0  0  0  0  0  0  0  0
  -11.4938    0.8538   -1.2147 H   0  0  0  0  0  0  0  0  0  0  0  0
  -12.3961   -1.8804   -0.7472 H   0  0  0  0  0  0  0  0  0  0  0  0
   -9.0789   -4.3442   -1.1042 H   0  0  0  0  0  0  0  0  0  0  0  0
   -7.5878   -2.4346   -0.6469 H   0  0  0  0  0  0  0  0  0  0  0  0
   -7.5401    1.3611   -1.7884 H   0  0  0  0  0  0  0  0  0  0  0  0
   -9.2254    0.7887   -2.0215 H   0  0  0  0  0  0  0  0  0  0  0  0
   -8.5347    1.6540    1.4766 H   0  0  0  0  0  0  0  0  0  0  0  0
   -9.6992    0.2204    3.0081 H   0  0  0  0  0  0  0  0  0  0  0  0
   -9.8169   -1.1172    1.8590 H   0  0  0  0  0  0  0  0  0  0  0  0
   -7.6123   -0.4878    3.5336 H   0  0  0  0  0  0  0  0  0  0  0  0
   -7.7525   -1.8478    2.3918 H   0  0  0  0  0  0  0  0  0  0  0  0
   -6.5726    0.9446    1.9545 H   0  0  0  0  0  0  0  0  0  0  0  0
   -5.8167   -0.6729    1.8097 H   0  0  0  0  0  0  0  0  0  0  0  0
   -4.3794    0.1122    0.3897 H   0  0  0  0  0  0  0  0  0  0  0  0
   -4.7057   -1.6659    0.4186 H   0  0  0  0  0  0  0  0  0  0  0  0
   -4.2838   -1.8056   -1.9914 H   0  0  0  0  0  0  0  0  0  0  0  0
   -3.9719   -0.0797   -2.1474 H   0  0  0  0  0  0  0  0  0  0  0  0
   -2.5687   -1.8411   -3.2048 H   0  0  0  0  0  0  0  0  0  0  0  0
   -1.4391   -0.4022   -2.9609 H   0  0  0  0  0  0  0  0  0  0  0  0
   -0.9430   -2.0497   -2.4617 H   0  0  0  0  0  0  0  0  0  0  0  0
   -2.5593   -2.7604    0.0553 H   0  0  0  0  0  0  0  0  0  0  0  0
   -0.9204   -2.3528   -0.3680 H   0  0  0  0  0  0  0  0  0  0  0  0
   -1.1850   -1.6803    1.8173 H   0  0  0  0  0  0  0  0  0  0  0  0
   -2.8855   -1.1788    1.6187 H   0  0  0  0  0  0  0  0  0  0  0  0
   -1.6533    0.6793    2.2327 H   0  0  0  0  0  0  0  0  0  0  0  0
   -1.9978    1.0136    0.5493 H   0  0  0  0  0  0  0  0  0  0  0  0
    0.1925    1.6988    1.1804 H   0  0  0  0  0  0  0  0  0  0  0  0
    0.6742    0.0160    1.7340 H   0  0  0  0  0  0  0  0  0  0  0  0
   -0.0430    0.9823   -1.1033 H   0  0  0  0  0  0  0  0  0  0  0  0
    0.3332   -0.6980   -0.7798 H   0  0  0  0  0  0  0  0  0  0  0  0
    2.1298    1.7605   -0.7076 H   0  0  0  0  0  0  0  0  0  0  0  0
    2.1146    0.4095   -1.8445 H   0  0  0  0  0  0  0  0  0  0  0  0
    2.9082   -0.0435    2.1057 H   0  0  0  0  0  0  0  0  0  0  0  0
    2.4186    1.5288    1.2977 H   0  0  0  0  0  0  0  0  0  0  0  0
    4.1170    1.0823    1.4256 H   0  0  0  0  0  0  0  0  0  0  0  0
    4.6020    1.3934   -0.4312 H   0  0  0  0  0  0  0  0  0  0  0  0
    4.0023    0.4991   -1.8260 H   0  0  0  0  0  0  0  0  0  0  0  0
    6.2716   -0.1777   -1.3632 H   0  0  0  0  0  0  0  0  0  0  0  0
    5.1766   -1.5247   -1.1064 H   0  0  0  0  0  0  0  0  0  0  0  0
    8.3275   -1.4902    2.9159 H   0  0  0  0  0  0  0  0  0  0  0  0
    6.5086   -1.5523    3.0048 H   0  0  0  0  0  0  0  0  0  0  0  0
    6.4282    0.6249    3.8010 H   0  0  0  0  0  0  0  0  0  0  0  0
    8.1723    0.3996    4.0828 H   0  0  0  0  0  0  0  0  0  0  0  0
    7.9806    2.3816    2.7929 H   0  0  0  0  0  0  0  0  0  0  0  0
    6.8520    1.6781    1.6131 H   0  0  0  0  0  0  0  0  0  0  0  0
    9.6121    0.5852    2.3581 H   0  0  0  0  0  0  0  0  0  0  0  0
   10.2336    2.6969    1.1974 H   0  0  0  0  0  0  0  0  0  0  0  0
   11.3029    1.3642   -0.7841 H   0  0  0  0  0  0  0  0  0  0  0  0
   12.8485   -0.4587   -0.5252 H   0  0  0  0  0  0  0  0  0  0  0  0
   12.3555   -1.9615    0.4498 H   0  0  0  0  0  0  0  0  0  0  0  0
   12.8829   -0.4496    1.2594 H   0  0  0  0  0  0  0  0  0  0  0  0
    9.9802   -1.2936    2.0450 H   0  0  0  0  0  0  0  0  0  0  0  0
    9.7240   -2.1560    0.5022 H   0  0  0  0  0  0  0  0  0  0  0  0
    8.6179   -2.1229   -1.2579 H   0  0  0  0  0  0  0  0  0  0  0  0
    8.8265   -1.8315   -3.6394 H   0  0  0  0  0  0  0  0  0  0  0  0
    8.9785    2.3132   -3.1365 H   0  0  0  0  0  0  0  0  0  0  0  0
    7.8858    2.7402   -0.1207 H   0  0  0  0  0  0  0  0  0  0  0  0
    9.4168    3.2259   -0.8951 H   0  0  0  0  0  0  0  0  0  0  0  0
  1  2  1  0
  2  3  2  0
  3  4  1  0
  4  5  1  0
  5  6  1  0
  6  7  1  0
  7  8  1  0
  8  9  2  0
  8 10  1  0
 10 11  2  0
 11 12  1  0
 12 13  1  0
 13 14  1  0
 13 15  1  0
 15 16  1  0
 16 17  1  0
 17 18  1  0
 18 19  1  0
 19 20  1  0
 20 21  2  0
 20 22  1  0
 22 23  1  0
 23 24  1  0
 24 25  1  0
 24 26  1  0
 26 27  1  0
 27 28  1  0
 28 29  1  0
 29 30  1  0
 30 31  1  0
 31 32  1  0
 32 33  1  0
 32 34  1  0
 34 35  1  0
 35 36  1  0
 36 37  2  0
 36 38  1  0
 38 39  1  0
 39 40  1  0
 40 41  1  0
 41 42  1  0
 42 43  1  0
 43 44  1  0
 44 45  2  0
 45 46  1  0
 45 47  1  0
 47 48  1  0
 48 49  1  0
 49 50  1  0
 50 51  2  0
 51 52  1  0
 52 53  2  0
 52 54  1  0
 54 55  1  0
 55 56  1  0
 14  2  1  0
 48 38  1  6
 55 49  2  0
 15  4  1  0
 48 42  1  0
 12  6  2  0
 13 19  1  1
 56 43  1  0
  1 57  1  0
  1 58  1  0
  1 59  1  0
  3 60  1  0
  4 61  1  0
  5 62  1  0
  5 63  1  0
  7 64  1  0
 10 65  1  0
 11 66  1  0
 14 67  1  0
 14 68  1  0
 15 69  1  1
 16 70  1  0
 16 71  1  0
 17 72  1  0
 17 73  1  0
 18 74  1  0
 18 75  1  0
 22 76  1  0
 22 77  1  0
 23 78  1  0
 23 79  1  0
 25 80  1  0
 25 81  1  0
 25 82  1  0
 26 83  1  0
 26 84  1  0
 27 85  1  0
 27 86  1  0
 28 87  1  0
 28 88  1  0
 29 89  1  0
 29 90  1  0
 30 91  1  0
 30 92  1  0
 31 93  1  0
 31 94  1  0
 33 95  1  0
 33 96  1  0
 33 97  1  0
 34 98  1  0
 34 99  1  0
 35100  1  0
 35101  1  0
 39102  1  0
 39103  1  0
 40104  1  0
 40105  1  0
 41106  1  0
 41107  1  0
 42108  1  1
 43109  1  0
 44110  1  0
 46111  1  0
 46112  1  0
 46113  1  0
 47114  1  0
 47115  1  0
 50116  1  0
 51117  1  0
 54118  1  0
 56119  1  0
 56120  1  0
M  END
$$$$
