@<TRIPOS>MOLECULE
*****
 120 127 0 0 0
SMALL
GASTEIGER

@<TRIPOS>ATOM
      1 C          -8.3229    3.7923   -1.2152 C.3     1  UNL1       -0.0437
      2 C          -9.0335    2.5166   -0.8582 C.2     1  UNL1       -0.0739
      3 C         -10.1633    2.5723   -0.1608 C.2     1  UNL1       -0.0812
      4 C         -10.4652    1.3373    0.6525 C.3     1  UNL1       -0.0122
      5 C         -11.2488    0.4195   -0.2222 C.3     1  UNL1       -0.0055
      6 C         -10.5777   -0.8860   -0.4693 C.ar    1  UNL1        0.0248
      7 N         -11.3528   -1.9511   -0.7172 N.ar    1  UNL1       -0.3259
      8 C         -10.8242   -3.1816   -0.9428 C.ar    1  UNL1        0.2489
      9 O         -11.5798   -4.1456   -1.1694 O.2     1  UNL1       -0.2679
     10 C          -9.4615   -3.3599   -0.9206 C.ar    1  UNL1        0.0031
     11 C          -8.6546   -2.2554   -0.6637 C.ar    1  UNL1       -0.0498
     12 C          -9.2207   -1.0332   -0.4418 C.ar    1  UNL1       -0.0039
     13 C          -8.4231    0.1920   -0.1613 C.3     1  UNL1        0.0710
     14 C          -8.4980    1.2073   -1.2694 C.3     1  UNL1       -0.0059
     15 C          -9.1073    0.8088    1.0682 C.3     1  UNL1       -0.0083
     16 C          -9.2069   -0.2519    2.1146 C.3     1  UNL1       -0.0460
     17 C          -7.8317   -0.7358    2.4767 C.3     1  UNL1       -0.0368
     18 C          -6.7542   -0.1002    1.6459 C.3     1  UNL1        0.0156
     19 N          -7.0742   -0.1245    0.2244 N.am    1  UNL1       -0.2910
     20 C          -6.0578   -0.4453   -0.7056 C.2     1  UNL1        0.2175
     21 O          -6.2487   -0.4917   -1.9372 O.2     1  UNL1       -0.2755
     22 C          -4.6579   -0.7524   -0.2161 C.3     1  UNL1        0.0369
     23 C          -3.7902   -0.9353   -1.4194 C.3     1  UNL1        0.0069
     24 N          -2.4418   -1.1809   -1.2615 N.3     1  UNL1       -0.3049
     25 C          -1.7960   -1.3696   -2.5427 C.3     1  UNL1       -0.0127
     26 C          -1.8752   -1.8113   -0.1706 C.3     1  UNL1       -0.0014
     27 C          -1.8941   -1.0610    1.0912 C.3     1  UNL1       -0.0402
     28 C          -1.3518    0.2898    1.1788 C.3     1  UNL1       -0.0519
     29 C           0.0854    0.5907    0.9481 C.3     1  UNL1       -0.0519
     30 C           0.5941    0.3291   -0.3939 C.3     1  UNL1       -0.0402
     31 C           1.9888    0.6447   -0.7504 C.3     1  UNL1       -0.0014
     32 N           3.0802   -0.0155   -0.0547 N.3     1  UNL1       -0.3049
     33 C           3.0841    0.6285    1.2823 C.3     1  UNL1       -0.0127
     34 C           4.2869    0.3398   -0.7492 C.3     1  UNL1        0.0069
     35 C           5.4909   -0.5256   -0.6368 C.3     1  UNL1        0.0369
     36 C           6.0258   -0.8206    0.6848 C.2     1  UNL1        0.2175
     37 O           5.0938   -1.2892    1.4911 O.2     1  UNL1       -0.2755
     38 N           7.3219   -0.6909    1.2090 N.am    1  UNL1       -0.2910
     39 C           7.3920   -1.0022    2.6705 C.3     1  UNL1        0.0156
     40 C           7.3834    0.4034    3.3070 C.3     1  UNL1       -0.0368
     41 C           7.7278    1.4724    2.2438 C.3     1  UNL1       -0.0460
     42 C           8.9184    0.9613    1.5318 C.3     1  UNL1       -0.0083
     43 C           9.7336    1.8566    0.6979 C.3     1  UNL1       -0.0122
     44 C          10.7498    0.9205    0.0361 C.2     1  UNL1       -0.0812
     45 C          10.9220   -0.3291    0.4497 C.2     1  UNL1       -0.0739
     46 C          12.3119   -0.8651    0.3756 C.3     1  UNL1       -0.0437
     47 C           9.7758   -1.1928    0.9811 C.3     1  UNL1       -0.0059
     48 C           8.5584   -0.2863    0.6717 C.3     1  UNL1        0.0710
     49 C           8.6719   -0.0530   -0.7641 C.ar    1  UNL1       -0.0039
     50 C           8.6941   -1.1218   -1.6325 C.ar    1  UNL1       -0.0498
     51 C           8.8149   -0.9401   -2.9911 C.ar    1  UNL1        0.0031
     52 C           8.9179    0.3088   -3.5399 C.ar    1  UNL1        0.2489
     53 O           9.0253    0.4418   -4.7835 O.2     1  UNL1       -0.2679
     54 N           8.8984    1.3835   -2.6833 N.ar    1  UNL1       -0.3259
     55 C           8.7823    1.1928   -1.3688 C.ar    1  UNL1        0.0248
     56 C           8.8571    2.3949   -0.4596 C.3     1  UNL1       -0.0055
     57 H          -8.9830    4.4792   -1.7888 H       1  UNL1        0.0274
     58 H          -8.0359    4.2898   -0.2529 H       1  UNL1        0.0274
     59 H          -7.4257    3.5527   -1.8133 H       1  UNL1        0.0274
     60 H         -10.8267    3.4177   -0.1566 H       1  UNL1        0.0575
     61 H         -11.0047    1.6246    1.5705 H       1  UNL1        0.0350
     62 H         -12.2092    0.1898    0.3167 H       1  UNL1        0.0333
     63 H         -11.4938    0.8538   -1.2147 H       1  UNL1        0.0333
     64 H         -12.3961   -1.8804   -0.7472 H       1  UNL1        0.1686
     65 H          -9.0789   -4.3442   -1.1042 H       1  UNL1        0.0672
     66 H          -7.5878   -2.4346   -0.6469 H       1  UNL1        0.0623
     67 H          -7.5401    1.3611   -1.7884 H       1  UNL1        0.0334
     68 H          -9.2254    0.7887   -2.0215 H       1  UNL1        0.0334
     69 H          -8.5347    1.6540    1.4766 H       1  UNL1        0.0331
     70 H          -9.6992    0.2204    3.0081 H       1  UNL1        0.0269
     71 H          -9.8169   -1.1172    1.8590 H       1  UNL1        0.0269
     72 H          -7.6123   -0.4878    3.5336 H       1  UNL1        0.0280
     73 H          -7.7525   -1.8478    2.3918 H       1  UNL1        0.0280
     74 H          -6.5726    0.9446    1.9545 H       1  UNL1        0.0465
     75 H          -5.8167   -0.6729    1.8097 H       1  UNL1        0.0465
     76 H          -4.3794    0.1122    0.3897 H       1  UNL1        0.0371
     77 H          -4.7057   -1.6659    0.4186 H       1  UNL1        0.0371
     78 H          -4.2838   -1.8056   -1.9914 H       1  UNL1        0.0431
     79 H          -3.9719   -0.0797   -2.1474 H       1  UNL1        0.0431
     80 H          -2.5687   -1.8411   -3.2048 H       1  UNL1        0.0391
     81 H          -1.4391   -0.4022   -2.9609 H       1  UNL1        0.0391
     82 H          -0.9430   -2.0497   -2.4617 H       1  UNL1        0.0391
     83 H          -2.5593   -2.7604    0.0553 H       1  UNL1        0.0426
     84 H          -0.9204   -2.3528   -0.3680 H       1  UNL1        0.0426
     85 H          -1.1850   -1.6803    1.8173 H       1  UNL1        0.0278
     86 H          -2.8855   -1.1788    1.6187 H       1  UNL1        0.0278
     87 H          -1.6533    0.6793    2.2327 H       1  UNL1        0.0266
     88 H          -1.9978    1.0136    0.5493 H       1  UNL1        0.0266
     89 H           0.1925    1.6988    1.1804 H       1  UNL1        0.0266
     90 H           0.6742    0.0160    1.7340 H       1  UNL1        0.0266
     91 H          -0.0430    0.9823   -1.1033 H       1  UNL1        0.0278
     92 H           0.3332   -0.6980   -0.7798 H       1  UNL1        0.0278
     93 H           2.1298    1.7605   -0.7076 H       1  UNL1        0.0426
     94 H           2.1146    0.4095   -1.8445 H       1  UNL1        0.0426
     95 H           2.9082   -0.0435    2.1057 H       1  UNL1        0.0391
     96 H           2.4186    1.5288    1.2977 H       1  UNL1        0.0391
     97 H           4.1170    1.0823    1.4256 H       1  UNL1        0.0391
     98 H           4.6020    1.3934   -0.4312 H       1  UNL1        0.0431
     99 H           4.0023    0.4991   -1.8260 H       1  UNL1        0.0431
    100 H           6.2716   -0.1777   -1.3632 H       1  UNL1        0.0371
    101 H           5.1766   -1.5247   -1.1064 H       1  UNL1        0.0371
    102 H           8.3275   -1.4902    2.9159 H       1  UNL1        0.0465
    103 H           6.5086   -1.5523    3.0048 H       1  UNL1        0.0465
    104 H           6.4282    0.6249    3.8010 H       1  UNL1        0.0280
    105 H           8.1723    0.3996    4.0828 H       1  UNL1        0.0280
    106 H           7.9806    2.3816    2.7929 H       1  UNL1        0.0269
    107 H           6.8520    1.6781    1.6131 H       1  UNL1        0.0269
    108 H           9.6121    0.5852    2.3581 H       1  UNL1        0.0331
    109 H          10.2336    2.6969    1.1974 H       1  UNL1        0.0350
    110 H          11.3029    1.3642   -0.7841 H       1  UNL1        0.0575
    111 H          12.8485   -0.4587   -0.5252 H       1  UNL1        0.0274
    112 H          12.3555   -1.9615    0.4498 H       1  UNL1        0.0274
    113 H          12.8829   -0.4496    1.2594 H       1  UNL1        0.0274
    114 H           9.9802   -1.2936    2.0450 H       1  UNL1        0.0334
    115 H           9.7240   -2.1560    0.5022 H       1  UNL1        0.0334
    116 H           8.6179   -2.1229   -1.2579 H       1  UNL1        0.0623
    117 H           8.8265   -1.8315   -3.6394 H       1  UNL1        0.0672
    118 H           8.9785    2.3132   -3.1365 H       1  UNL1        0.1686
    119 H           7.8858    2.7402   -0.1207 H       1  UNL1        0.0333
    120 H           9.4168    3.2259   -0.8951 H       1  UNL1        0.0333
@<TRIPOS>BOND
     1     1     2    1
     2     2     3    2
     3     3     4    1
     4     4     5    1
     5     5     6    1
     6     6     7   ar
     7     7     8   ar
     8     8     9    2
     9     8    10   ar
    10    10    11   ar
    11    11    12   ar
    12    12    13    1
    13    13    14    1
    14    13    15    1
    15    15    16    1
    16    16    17    1
    17    17    18    1
    18    18    19    1
    19    19    20   am
    20    20    21    2
    21    20    22    1
    22    22    23    1
    23    23    24    1
    24    24    25    1
    25    24    26    1
    26    26    27    1
    27    27    28    1
    28    28    29    1
    29    29    30    1
    30    30    31    1
    31    31    32    1
    32    32    33    1
    33    32    34    1
    34    34    35    1
    35    35    36    1
    36    36    37    2
    37    36    38   am
    38    38    39    1
    39    39    40    1
    40    40    41    1
    41    41    42    1
    42    42    43    1
    43    43    44    1
    44    44    45    2
    45    45    46    1
    46    45    47    1
    47    47    48    1
    48    48    49    1
    49    49    50   ar
    50    50    51   ar
    51    51    52   ar
    52    52    53    2
    53    52    54   ar
    54    54    55   ar
    55    55    56    1
    56    14     2    1
    57    48    38    1
    58    55    49   ar
    59    15     4    1
    60    48    42    1
    61    12     6   ar
    62    13    19    1
    63    56    43    1
    64     1    57    1
    65     1    58    1
    66     1    59    1
    67     3    60    1
    68     4    61    1
    69     5    62    1
    70     5    63    1
    71     7    64    1
    72    10    65    1
    73    11    66    1
    74    14    67    1
    75    14    68    1
    76    15    69    1
    77    16    70    1
    78    16    71    1
    79    17    72    1
    80    17    73    1
    81    18    74    1
    82    18    75    1
    83    22    76    1
    84    22    77    1
    85    23    78    1
    86    23    79    1
    87    25    80    1
    88    25    81    1
    89    25    82    1
    90    26    83    1
    91    26    84    1
    92    27    85    1
    93    27    86    1
    94    28    87    1
    95    28    88    1
    96    29    89    1
    97    29    90    1
    98    30    91    1
    99    30    92    1
   100    31    93    1
   101    31    94    1
   102    33    95    1
   103    33    96    1
   104    33    97    1
   105    34    98    1
   106    34    99    1
   107    35   100    1
   108    35   101    1
   109    39   102    1
   110    39   103    1
   111    40   104    1
   112    40   105    1
   113    41   106    1
   114    41   107    1
   115    42   108    1
   116    43   109    1
   117    44   110    1
   118    46   111    1
   119    46   112    1
   120    46   113    1
   121    47   114    1
   122    47   115    1
   123    50   116    1
   124    51   117    1
   125    54   118    1
   126    56   119    1
   127    56   120    1
