@<TRIPOS>MOLECULE
*****
 68 71 0 0 0
SMALL
GASTEIGER

@<TRIPOS>ATOM
      1 C           5.1089   -2.9604    2.0324 C.3     1  UNL1       -0.0151
      2 N           5.6266   -2.4310    0.7890 N.3     1  UNL1       -0.3089
      3 C           4.5655   -2.0965   -0.1391 C.3     1  UNL1        0.0817
      4 C           3.7539   -3.3399   -0.4567 C.3     1  UNL1       -0.0412
      5 C           3.7160   -0.9904    0.3666 C.2     1  UNL1        0.2304
      6 O           3.9508   -0.4646    1.4582 O.2     1  UNL1       -0.2741
      7 N           2.6404   -0.5569   -0.4249 N.am    1  UNL1       -0.3011
      8 C           1.7345    0.5100   -0.0524 C.3     1  UNL1        0.1187
      9 C           0.3788   -0.0701   -0.0775 C.2     1  UNL1        0.2423
     10 O           0.3555   -1.2517    0.3924 O.2     1  UNL1       -0.2731
     11 N          -0.9288    0.3410   -0.4913 N.am    1  UNL1       -0.2637
     12 C          -1.9593   -0.5942   -0.5134 C.3     1  UNL1        0.0458
     13 C          -2.8543   -0.8767    0.5920 C.ar    1  UNL1       -0.0191
     14 C          -2.9976   -0.1906    1.7545 C.ar    1  UNL1       -0.0452
     15 C          -2.1815    1.0012    2.0157 C.3     1  UNL1       -0.0394
     16 C          -3.9337   -0.6371    2.6852 C.ar    1  UNL1       -0.0579
     17 C          -4.7156   -1.7354    2.4824 C.ar    1  UNL1       -0.0538
     18 C          -4.5727   -2.4355    1.3024 C.ar    1  UNL1       -0.0176
     19 C          -5.3770   -3.5717    1.0924 C.ar    1  UNL1       -0.0540
     20 C          -5.2490   -4.2872   -0.0762 C.ar    1  UNL1       -0.0612
     21 C          -4.3485   -3.9089   -1.0395 C.ar    1  UNL1       -0.0612
     22 C          -3.5724   -2.7714   -0.7820 C.ar    1  UNL1       -0.0537
     23 C          -3.6660   -2.0231    0.3737 C.ar    1  UNL1       -0.0129
     24 C          -1.2193    1.6712   -0.9183 C.ar    1  UNL1        0.0582
     25 C          -2.5616    1.8867   -1.2135 C.ar    1  UNL1       -0.0372
     26 C          -2.9646    3.1349   -1.6492 C.ar    1  UNL1       -0.0425
     27 C          -2.1016    4.1968   -1.8117 C.ar    1  UNL1        0.0536
     28 C          -2.5073    5.4941   -2.2615 C.1     1  UNL1        0.0992
     29 N          -2.8370    6.5311   -2.6296 N.1     1  UNL1       -0.1909
     30 C          -0.7728    4.0090   -1.5274 C.ar    1  UNL1       -0.0211
     31 C          -0.3507    2.7699   -1.0899 C.ar    1  UNL1        0.0593
     32 N           1.0818    2.7272   -0.8156 N.am    1  UNL1       -0.2648
     33 C           1.5470    3.8626   -0.1659 C.2     1  UNL1        0.2170
     34 C           2.9707    4.2097    0.1432 C.3     1  UNL1        0.0127
     35 O           0.7347    4.7677    0.2520 O.2     1  UNL1       -0.2755
     36 C           1.8963    1.5848   -1.1354 C.3     1  UNL1        0.0552
     37 C           3.2950    1.7887   -1.5268 C.3     1  UNL1       -0.0438
     38 H           4.0811   -2.6629    2.2511 H       1  UNL1        0.0388
     39 H           5.1668   -4.0744    1.9905 H       1  UNL1        0.0388
     40 H           5.7595   -2.6023    2.8495 H       1  UNL1        0.0388
     41 H           6.2624   -3.1092    0.3154 H       1  UNL1        0.1223
     42 H           5.0122   -1.7468   -1.0855 H       1  UNL1        0.0553
     43 H           3.0991   -3.1767   -1.3311 H       1  UNL1        0.0249
     44 H           4.4846   -4.1384   -0.7087 H       1  UNL1        0.0249
     45 H           3.1963   -3.7044    0.4290 H       1  UNL1        0.0249
     46 H           2.4632   -1.0290   -1.3596 H       1  UNL1        0.1496
     47 H           2.0461    0.8993    0.9257 H       1  UNL1        0.0614
     48 H          -1.4103   -1.6184   -0.6116 H       1  UNL1        0.0518
     49 H          -2.4884   -0.6431   -1.5296 H       1  UNL1        0.0518
     50 H          -2.3401    1.2117    3.1397 H       1  UNL1        0.0278
     51 H          -1.1111    0.9048    1.9618 H       1  UNL1        0.0278
     52 H          -2.6125    1.9530    1.5962 H       1  UNL1        0.0278
     53 H          -4.0270   -0.0688    3.6046 H       1  UNL1        0.0620
     54 H          -5.4458   -2.0892    3.2000 H       1  UNL1        0.0624
     55 H          -6.0796   -3.8522    1.8641 H       1  UNL1        0.0624
     56 H          -5.8781   -5.1531   -0.2102 H       1  UNL1        0.0618
     57 H          -4.2187   -4.4466   -1.9727 H       1  UNL1        0.0618
     58 H          -2.8690   -2.4950   -1.5525 H       1  UNL1        0.0624
     59 H          -3.2211    1.0681   -1.0755 H       1  UNL1        0.0637
     60 H          -3.9989    3.2658   -1.8663 H       1  UNL1        0.0631
     61 H          -0.0065    4.7760   -1.6492 H       1  UNL1        0.0650
     62 H           3.5273    3.3156    0.4450 H       1  UNL1        0.0323
     63 H           2.9964    4.8620    1.0866 H       1  UNL1        0.0323
     64 H           3.4537    4.7768   -0.6632 H       1  UNL1        0.0323
     65 H           1.4065    1.0517   -2.0353 H       1  UNL1        0.0525
     66 H           3.5323    1.0531   -2.3839 H       1  UNL1        0.0248
     67 H           3.9707    1.3859   -0.7122 H       1  UNL1        0.0248
     68 H           3.5634    2.7931   -1.8465 H       1  UNL1        0.0248
@<TRIPOS>BOND
     1     1     2    1
     2     2     3    1
     3     3     4    1
     4     3     5    1
     5     5     6    2
     6     5     7   am
     7     7     8    1
     8     8     9    1
     9     9    10    2
    10     9    11   am
    11    11    12    1
    12    12    13    1
    13    13    14   ar
    14    14    15    1
    15    14    16   ar
    16    16    17   ar
    17    17    18   ar
    18    18    19   ar
    19    19    20   ar
    20    20    21   ar
    21    21    22   ar
    22    22    23   ar
    23    11    24    1
    24    24    25   ar
    25    25    26   ar
    26    26    27   ar
    27    27    28    1
    28    28    29    3
    29    27    30   ar
    30    30    31   ar
    31    31    32    1
    32    32    33   am
    33    33    34    1
    34    33    35    2
    35    32    36    1
    36    36    37    1
    37    36     8    1
    38    23    13   ar
    39    31    24   ar
    40    23    18   ar
    41     1    38    1
    42     1    39    1
    43     1    40    1
    44     2    41    1
    45     3    42    1
    46     4    43    1
    47     4    44    1
    48     4    45    1
    49     7    46    1
    50     8    47    1
    51    12    48    1
    52    12    49    1
    53    15    50    1
    54    15    51    1
    55    15    52    1
    56    16    53    1
    57    17    54    1
    58    19    55    1
    59    20    56    1
    60    21    57    1
    61    22    58    1
    62    25    59    1
    63    26    60    1
    64    30    61    1
    65    34    62    1
    66    34    63    1
    67    34    64    1
    68    36    65    1
    69    37    66    1
    70    37    67    1
    71    37    68    1
