
     RDKit          3D

 68 71  0  0  0  0  0  0  0  0999 V2000
    5.1089   -2.9604    2.0324 C   0  0  0  0  0  0  0  0  0  0  0  0
    5.6266   -2.4310    0.7890 N   0  0  0  0  0  0  0  0  0  0  0  0
    4.5655   -2.0965   -0.1391 C   0  0  1  0  0  0  0  0  0  0  0  0
    3.7539   -3.3399   -0.4567 C   0  0  0  0  0  0  0  0  0  0  0  0
    3.7160   -0.9904    0.3666 C   0  0  0  0  0  0  0  0  0  0  0  0
    3.9508   -0.4646    1.4582 O   0  0  0  0  0  0  0  0  0  0  0  0
    2.6404   -0.5569   -0.4249 N   0  0  0  0  0  0  0  0  0  0  0  0
    1.7345    0.5100   -0.0524 C   0  0  2  0  0  0  0  0  0  0  0  0
    0.3788   -0.0701   -0.0775 C   0  0  0  0  0  0  0  0  0  0  0  0
    0.3555   -1.2517    0.3924 O   0  0  0  0  0  0  0  0  0  0  0  0
   -0.9288    0.3410   -0.4913 N   0  0  0  0  0  0  0  0  0  0  0  0
   -1.9593   -0.5942   -0.5134 C   0  0  0  0  0  0  0  0  0  0  0  0
   -2.8543   -0.8767    0.5920 C   0  0  0  0  0  0  0  0  0  0  0  0
   -2.9976   -0.1906    1.7545 C   0  0  0  0  0  0  0  0  0  0  0  0
   -2.1815    1.0012    2.0157 C   0  0  0  0  0  0  0  0  0  0  0  0
   -3.9337   -0.6371    2.6852 C   0  0  0  0  0  0  0  0  0  0  0  0
   -4.7156   -1.7354    2.4824 C   0  0  0  0  0  0  0  0  0  0  0  0
   -4.5727   -2.4355    1.3024 C   0  0  0  0  0  0  0  0  0  0  0  0
   -5.3770   -3.5717    1.0924 C   0  0  0  0  0  0  0  0  0  0  0  0
   -5.2490   -4.2872   -0.0762 C   0  0  0  0  0  0  0  0  0  0  0  0
   -4.3485   -3.9089   -1.0395 C   0  0  0  0  0  0  0  0  0  0  0  0
   -3.5724   -2.7714   -0.7820 C   0  0  0  0  0  0  0  0  0  0  0  0
   -3.6660   -2.0231    0.3737 C   0  0  0  0  0  0  0  0  0  0  0  0
   -1.2193    1.6712   -0.9183 C   0  0  0  0  0  0  0  0  0  0  0  0
   -2.5616    1.8867   -1.2135 C   0  0  0  0  0  0  0  0  0  0  0  0
   -2.9646    3.1349   -1.6492 C   0  0  0  0  0  0  0  0  0  0  0  0
   -2.1016    4.1968   -1.8117 C   0  0  0  0  0  0  0  0  0  0  0  0
   -2.5073    5.4941   -2.2615 C   0  0  0  0  0  0  0  0  0  0  0  0
   -2.8370    6.5311   -2.6296 N   0  0  0  0  0  0  0  0  0  0  0  0
   -0.7728    4.0090   -1.5274 C   0  0  0  0  0  0  0  0  0  0  0  0
   -0.3507    2.7699   -1.0899 C   0  0  0  0  0  0  0  0  0  0  0  0
    1.0818    2.7272   -0.8156 N   0  0  0  0  0  0  0  0  0  0  0  0
    1.5470    3.8626   -0.1659 C   0  0  0  0  0  0  0  0  0  0  0  0
    2.9707    4.2097    0.1432 C   0  0  0  0  0  0  0  0  0  0  0  0
    0.7347    4.7677    0.2520 O   0  0  0  0  0  0  0  0  0  0  0  0
    1.8963    1.5848   -1.1354 C   0  0  1  0  0  0  0  0  0  0  0  0
    3.2950    1.7887   -1.5268 C   0  0  0  0  0  0  0  0  0  0  0  0
    4.0811   -2.6629    2.2511 H   0  0  0  0  0  0  0  0  0  0  0  0
    5.1668   -4.0744    1.9905 H   0  0  0  0  0  0  0  0  0  0  0  0
    5.7595   -2.6023    2.8495 H   0  0  0  0  0  0  0  0  0  0  0  0
    6.2624   -3.1092    0.3154 H   0  0  0  0  0  0  0  0  0  0  0  0
    5.0122   -1.7468   -1.0855 H   0  0  0  0  0  0  0  0  0  0  0  0
    3.0991   -3.1767   -1.3311 H   0  0  0  0  0  0  0  0  0  0  0  0
    4.4846   -4.1384   -0.7087 H   0  0  0  0  0  0  0  0  0  0  0  0
    3.1963   -3.7044    0.4290 H   0  0  0  0  0  0  0  0  0  0  0  0
    2.4632   -1.0290   -1.3596 H   0  0  0  0  0  0  0  0  0  0  0  0
    2.0461    0.8993    0.9257 H   0  0  0  0  0  0  0  0  0  0  0  0
   -1.4103   -1.6184   -0.6116 H   0  0  0  0  0  0  0  0  0  0  0  0
   -2.4884   -0.6431   -1.5296 H   0  0  0  0  0  0  0  0  0  0  0  0
   -2.3401    1.2117    3.1397 H   0  0  0  0  0  0  0  0  0  0  0  0
   -1.1111    0.9048    1.9618 H   0  0  0  0  0  0  0  0  0  0  0  0
   -2.6125    1.9530    1.5962 H   0  0  0  0  0  0  0  0  0  0  0  0
   -4.0270   -0.0688    3.6046 H   0  0  0  0  0  0  0  0  0  0  0  0
   -5.4458   -2.0892    3.2000 H   0  0  0  0  0  0  0  0  0  0  0  0
   -6.0796   -3.8522    1.8641 H   0  0  0  0  0  0  0  0  0  0  0  0
   -5.8781   -5.1531   -0.2102 H   0  0  0  0  0  0  0  0  0  0  0  0
   -4.2187   -4.4466   -1.9727 H   0  0  0  0  0  0  0  0  0  0  0  0
   -2.8690   -2.4950   -1.5525 H   0  0  0  0  0  0  0  0  0  0  0  0
   -3.2211    1.0681   -1.0755 H   0  0  0  0  0  0  0  0  0  0  0  0
   -3.9989    3.2658   -1.8663 H   0  0  0  0  0  0  0  0  0  0  0  0
   -0.0065    4.7760   -1.6492 H   0  0  0  0  0  0  0  0  0  0  0  0
    3.5273    3.3156    0.4450 H   0  0  0  0  0  0  0  0  0  0  0  0
    2.9964    4.8620    1.0866 H   0  0  0  0  0  0  0  0  0  0  0  0
    3.4537    4.7768   -0.6632 H   0  0  0  0  0  0  0  0  0  0  0  0
    1.4065    1.0517   -2.0353 H   0  0  0  0  0  0  0  0  0  0  0  0
    3.5323    1.0531   -2.3839 H   0  0  0  0  0  0  0  0  0  0  0  0
    3.9707    1.3859   -0.7122 H   0  0  0  0  0  0  0  0  0  0  0  0
    3.5634    2.7931   -1.8465 H   0  0  0  0  0  0  0  0  0  0  0  0
  1  2  1  0
  2  3  1  0
  3  4  1  0
  3  5  1  0
  5  6  2  0
  5  7  1  0
  7  8  1  0
  8  9  1  0
  9 10  2  0
  9 11  1  0
 11 12  1  0
 12 13  1  0
 13 14  2  0
 14 15  1  0
 14 16  1  0
 16 17  2  0
 17 18  1  0
 18 19  2  0
 19 20  1  0
 20 21  2  0
 21 22  1  0
 22 23  2  0
 11 24  1  0
 24 25  2  0
 25 26  1  0
 26 27  2  0
 27 28  1  0
 28 29  3  0
 27 30  1  0
 30 31  2  0
 31 32  1  0
 32 33  1  0
 33 34  1  0
 33 35  2  0
 32 36  1  0
 36 37  1  0
 36  8  1  0
 23 13  1  0
 31 24  1  0
 23 18  1  0
  1 38  1  0
  1 39  1  0
  1 40  1  0
  2 41  1  0
  3 42  1  6
  4 43  1  0
  4 44  1  0
  4 45  1  0
  7 46  1  0
  8 47  1  1
 12 48  1  0
 12 49  1  0
 15 50  1  0
 15 51  1  0
 15 52  1  0
 16 53  1  0
 17 54  1  0
 19 55  1  0
 20 56  1  0
 21 57  1  0
 22 58  1  0
 25 59  1  0
 26 60  1  0
 30 61  1  0
 34 62  1  0
 34 63  1  0
 34 64  1  0
 36 65  1  6
 37 66  1  0
 37 67  1  0
 37 68  1  0
M  END
$$$$
