@<TRIPOS>MOLECULE
*****
 67 71 0 0 0
SMALL
GASTEIGER

@<TRIPOS>ATOM
      1 C           7.9629    3.5113    2.5432 C.3     1  UNL1        0.0805
      2 O           7.2725    2.5843    1.7640 O.3     1  UNL1       -0.4774
      3 C           7.8541    1.5545    1.0499 C.ar    1  UNL1        0.2552
      4 N           9.1447    1.2164    0.9381 N.ar    1  UNL1       -0.1317
      5 N           9.3003    0.1676    0.1624 N.ar    1  UNL1       -0.2692
      6 C          10.5676   -0.4939   -0.1957 C.3     1  UNL1        0.0304
      7 C           8.0684   -0.1927   -0.2478 C.ar    1  UNL1        0.0503
      8 C           7.1091    0.6435    0.2778 C.ar    1  UNL1        0.1152
      9 N           5.6992    0.6598    0.1357 N.pl3   1  UNL1       -0.2782
     10 C           5.0128   -0.2781   -0.6484 C.ar    1  UNL1        0.2203
     11 N           5.6333   -1.2554   -1.3246 N.ar    1  UNL1       -0.2198
     12 C           4.9794   -2.1576   -2.0721 C.ar    1  UNL1        0.0685
     13 C           3.5796   -2.0344   -2.1191 C.ar    1  UNL1        0.1674
     14 F           2.8742   -2.9120   -2.8530 F       1  UNL1       -0.2016
     15 C           2.9202   -1.0408   -1.4342 C.ar    1  UNL1        0.1132
     16 C           1.4673   -0.8944   -1.4677 C.ar    1  UNL1        0.0284
     17 C           0.5484   -1.6796   -2.1234 C.ar    1  UNL1        0.0121
     18 N          -0.7055   -1.1978   -1.8842 N.ar    1  UNL1       -0.3586
     19 C          -0.6450   -0.1241   -1.0952 C.ar    1  UNL1        0.0686
     20 C          -1.6149    0.7090   -0.5790 C.ar    1  UNL1        0.0576
     21 N          -2.9807    0.4616   -0.8720 N.am    1  UNL1       -0.2825
     22 C          -3.8196   -0.3385   -0.0540 C.2     1  UNL1        0.2342
     23 O          -3.3325   -0.8538    0.9788 O.2     1  UNL1       -0.2738
     24 C          -5.2319   -0.5193   -0.4692 C.3     1  UNL1        0.0848
     25 C          -5.2391   -1.2223   -1.8021 C.3     1  UNL1       -0.0409
     26 N          -5.9772   -1.3110    0.4851 N.3     1  UNL1       -0.2893
     27 C          -7.3534   -1.3687    0.1245 C.3     1  UNL1        0.0124
     28 C          -8.0604   -0.1103    0.5757 C.3     1  UNL1        0.0114
     29 N          -8.0542   -0.0586    2.0024 N.3     1  UNL1       -0.3029
     30 C          -8.0783    1.3013    2.5153 C.3     1  UNL1       -0.0127
     31 C          -7.0460   -0.8599    2.6435 C.3     1  UNL1        0.0114
     32 C          -5.7584   -0.9057    1.8554 C.3     1  UNL1        0.0124
     33 C          -1.2083    1.7571    0.2170 C.ar    1  UNL1       -0.0384
     34 C           0.1276    1.9633    0.4872 C.ar    1  UNL1       -0.0593
     35 C           1.0862    1.1223   -0.0355 C.ar    1  UNL1       -0.0518
     36 C           0.7073    0.0702   -0.8321 C.ar    1  UNL1        0.0107
     37 N           3.6559   -0.1797   -0.7101 N.ar    1  UNL1       -0.2113
     38 H           9.0289    3.2651    2.5465 H       1  UNL1        0.0660
     39 H           7.6109    3.5336    3.5958 H       1  UNL1        0.0660
     40 H           7.8635    4.5629    2.1798 H       1  UNL1        0.0660
     41 H          10.4708   -1.5525    0.1237 H       1  UNL1        0.0473
     42 H          10.5745   -0.4988   -1.3182 H       1  UNL1        0.0473
     43 H          11.4209    0.0228    0.2411 H       1  UNL1        0.0473
     44 H           7.8848   -1.0379   -0.9076 H       1  UNL1        0.0846
     45 H           5.1608    1.3974    0.6356 H       1  UNL1        0.1552
     46 H           5.4712   -2.9396   -2.6140 H       1  UNL1        0.0861
     47 H           0.6818   -2.5445   -2.7420 H       1  UNL1        0.0814
     48 H          -1.6063   -1.5895   -2.2506 H       1  UNL1        0.1654
     49 H          -3.3527    0.9134   -1.7532 H       1  UNL1        0.1549
     50 H          -5.7127    0.4771   -0.6341 H       1  UNL1        0.0556
     51 H          -5.7626   -2.2021   -1.7894 H       1  UNL1        0.0249
     52 H          -5.6883   -0.5977   -2.6223 H       1  UNL1        0.0249
     53 H          -4.1823   -1.4524   -2.0927 H       1  UNL1        0.0249
     54 H          -7.4531   -1.5097   -0.9657 H       1  UNL1        0.0439
     55 H          -7.8138   -2.2244    0.6775 H       1  UNL1        0.0439
     56 H          -7.5963    0.7586    0.0945 H       1  UNL1        0.0439
     57 H          -9.1453   -0.1625    0.2645 H       1  UNL1        0.0439
     58 H          -9.1380    1.6169    2.5791 H       1  UNL1        0.0391
     59 H          -7.5667    2.0040    1.8272 H       1  UNL1        0.0391
     60 H          -7.6631    1.3305    3.5467 H       1  UNL1        0.0391
     61 H          -6.8211   -0.3879    3.6207 H       1  UNL1        0.0439
     62 H          -7.4390   -1.8794    2.8899 H       1  UNL1        0.0439
     63 H          -5.2455    0.0676    1.9529 H       1  UNL1        0.0439
     64 H          -5.1064   -1.6676    2.3252 H       1  UNL1        0.0439
     65 H          -1.9368    2.4359    0.6429 H       1  UNL1        0.0637
     66 H           0.4648    2.7854    1.1137 H       1  UNL1        0.0618
     67 H           2.1316    1.3418    0.2173 H       1  UNL1        0.0624
@<TRIPOS>BOND
     1     1     2    1
     2     2     3    1
     3     3     4   ar
     4     4     5   ar
     5     5     6    1
     6     5     7   ar
     7     7     8   ar
     8     8     9    1
     9     9    10    1
    10    10    11   ar
    11    11    12   ar
    12    12    13   ar
    13    13    14    1
    14    13    15   ar
    15    15    16    1
    16    16    17   ar
    17    17    18   ar
    18    18    19   ar
    19    19    20   ar
    20    20    21    1
    21    21    22   am
    22    22    23    2
    23    22    24    1
    24    24    25    1
    25    24    26    1
    26    26    27    1
    27    27    28    1
    28    28    29    1
    29    29    30    1
    30    29    31    1
    31    31    32    1
    32    20    33   ar
    33    33    34   ar
    34    34    35   ar
    35    35    36   ar
    36    15    37   ar
    37     8     3   ar
    38    37    10   ar
    39    36    16   ar
    40    36    19   ar
    41    32    26    1
    42     1    38    1
    43     1    39    1
    44     1    40    1
    45     6    41    1
    46     6    42    1
    47     6    43    1
    48     7    44    1
    49     9    45    1
    50    12    46    1
    51    17    47    1
    52    18    48    1
    53    21    49    1
    54    24    50    1
    55    25    51    1
    56    25    52    1
    57    25    53    1
    58    27    54    1
    59    27    55    1
    60    28    56    1
    61    28    57    1
    62    30    58    1
    63    30    59    1
    64    30    60    1
    65    31    61    1
    66    31    62    1
    67    32    63    1
    68    32    64    1
    69    33    65    1
    70    34    66    1
    71    35    67    1
