
     RDKit          3D

 67 71  0  0  0  0  0  0  0  0999 V2000
    7.9629    3.5113    2.5432 C   0  0  0  0  0  0  0  0  0  0  0  0
    7.2725    2.5843    1.7640 O   0  0  0  0  0  0  0  0  0  0  0  0
    7.8541    1.5545    1.0499 C   0  0  0  0  0  0  0  0  0  0  0  0
    9.1447    1.2164    0.9381 N   0  0  0  0  0  0  0  0  0  0  0  0
    9.3003    0.1676    0.1624 N   0  0  0  0  0  0  0  0  0  0  0  0
   10.5676   -0.4939   -0.1957 C   0  0  0  0  0  0  0  0  0  0  0  0
    8.0684   -0.1927   -0.2478 C   0  0  0  0  0  0  0  0  0  0  0  0
    7.1091    0.6435    0.2778 C   0  0  0  0  0  0  0  0  0  0  0  0
    5.6992    0.6598    0.1357 N   0  0  0  0  0  0  0  0  0  0  0  0
    5.0128   -0.2781   -0.6484 C   0  0  0  0  0  0  0  0  0  0  0  0
    5.6333   -1.2554   -1.3246 N   0  0  0  0  0  0  0  0  0  0  0  0
    4.9794   -2.1576   -2.0721 C   0  0  0  0  0  0  0  0  0  0  0  0
    3.5796   -2.0344   -2.1191 C   0  0  0  0  0  0  0  0  0  0  0  0
    2.8742   -2.9120   -2.8530 F   0  0  0  0  0  0  0  0  0  0  0  0
    2.9202   -1.0408   -1.4342 C   0  0  0  0  0  0  0  0  0  0  0  0
    1.4673   -0.8944   -1.4677 C   0  0  0  0  0  0  0  0  0  0  0  0
    0.5484   -1.6796   -2.1234 C   0  0  0  0  0  0  0  0  0  0  0  0
   -0.7055   -1.1978   -1.8842 N   0  0  0  0  0  0  0  0  0  0  0  0
   -0.6450   -0.1241   -1.0952 C   0  0  0  0  0  0  0  0  0  0  0  0
   -1.6149    0.7090   -0.5790 C   0  0  0  0  0  0  0  0  0  0  0  0
   -2.9807    0.4616   -0.8720 N   0  0  0  0  0  0  0  0  0  0  0  0
   -3.8196   -0.3385   -0.0540 C   0  0  0  0  0  0  0  0  0  0  0  0
   -3.3325   -0.8538    0.9788 O   0  0  0  0  0  0  0  0  0  0  0  0
   -5.2319   -0.5193   -0.4692 C   0  0  1  0  0  0  0  0  0  0  0  0
   -5.2391   -1.2223   -1.8021 C   0  0  0  0  0  0  0  0  0  0  0  0
   -5.9772   -1.3110    0.4851 N   0  0  0  0  0  0  0  0  0  0  0  0
   -7.3534   -1.3687    0.1245 C   0  0  0  0  0  0  0  0  0  0  0  0
   -8.0604   -0.1103    0.5757 C   0  0  0  0  0  0  0  0  0  0  0  0
   -8.0542   -0.0586    2.0024 N   0  0  0  0  0  0  0  0  0  0  0  0
   -8.0783    1.3013    2.5153 C   0  0  0  0  0  0  0  0  0  0  0  0
   -7.0460   -0.8599    2.6435 C   0  0  0  0  0  0  0  0  0  0  0  0
   -5.7584   -0.9057    1.8554 C   0  0  0  0  0  0  0  0  0  0  0  0
   -1.2083    1.7571    0.2170 C   0  0  0  0  0  0  0  0  0  0  0  0
    0.1276    1.9633    0.4872 C   0  0  0  0  0  0  0  0  0  0  0  0
    1.0862    1.1223   -0.0355 C   0  0  0  0  0  0  0  0  0  0  0  0
    0.7073    0.0702   -0.8321 C   0  0  0  0  0  0  0  0  0  0  0  0
    3.6559   -0.1797   -0.7101 N   0  0  0  0  0  0  0  0  0  0  0  0
    9.0289    3.2651    2.5465 H   0  0  0  0  0  0  0  0  0  0  0  0
    7.6109    3.5336    3.5958 H   0  0  0  0  0  0  0  0  0  0  0  0
    7.8635    4.5629    2.1798 H   0  0  0  0  0  0  0  0  0  0  0  0
   10.4708   -1.5525    0.1237 H   0  0  0  0  0  0  0  0  0  0  0  0
   10.5745   -0.4988   -1.3182 H   0  0  0  0  0  0  0  0  0  0  0  0
   11.4209    0.0228    0.2411 H   0  0  0  0  0  0  0  0  0  0  0  0
    7.8848   -1.0379   -0.9076 H   0  0  0  0  0  0  0  0  0  0  0  0
    5.1608    1.3974    0.6356 H   0  0  0  0  0  0  0  0  0  0  0  0
    5.4712   -2.9396   -2.6140 H   0  0  0  0  0  0  0  0  0  0  0  0
    0.6818   -2.5445   -2.7420 H   0  0  0  0  0  0  0  0  0  0  0  0
   -1.6063   -1.5895   -2.2506 H   0  0  0  0  0  0  0  0  0  0  0  0
   -3.3527    0.9134   -1.7532 H   0  0  0  0  0  0  0  0  0  0  0  0
   -5.7127    0.4771   -0.6341 H   0  0  0  0  0  0  0  0  0  0  0  0
   -5.7626   -2.2021   -1.7894 H   0  0  0  0  0  0  0  0  0  0  0  0
   -5.6883   -0.5977   -2.6223 H   0  0  0  0  0  0  0  0  0  0  0  0
   -4.1823   -1.4524   -2.0927 H   0  0  0  0  0  0  0  0  0  0  0  0
   -7.4531   -1.5097   -0.9657 H   0  0  0  0  0  0  0  0  0  0  0  0
   -7.8138   -2.2244    0.6775 H   0  0  0  0  0  0  0  0  0  0  0  0
   -7.5963    0.7586    0.0945 H   0  0  0  0  0  0  0  0  0  0  0  0
   -9.1453   -0.1625    0.2645 H   0  0  0  0  0  0  0  0  0  0  0  0
   -9.1380    1.6169    2.5791 H   0  0  0  0  0  0  0  0  0  0  0  0
   -7.5667    2.0040    1.8272 H   0  0  0  0  0  0  0  0  0  0  0  0
   -7.6631    1.3305    3.5467 H   0  0  0  0  0  0  0  0  0  0  0  0
   -6.8211   -0.3879    3.6207 H   0  0  0  0  0  0  0  0  0  0  0  0
   -7.4390   -1.8794    2.8899 H   0  0  0  0  0  0  0  0  0  0  0  0
   -5.2455    0.0676    1.9529 H   0  0  0  0  0  0  0  0  0  0  0  0
   -5.1064   -1.6676    2.3252 H   0  0  0  0  0  0  0  0  0  0  0  0
   -1.9368    2.4359    0.6429 H   0  0  0  0  0  0  0  0  0  0  0  0
    0.4648    2.7854    1.1137 H   0  0  0  0  0  0  0  0  0  0  0  0
    2.1316    1.3418    0.2173 H   0  0  0  0  0  0  0  0  0  0  0  0
  1  2  1  0
  2  3  1  0
  3  4  2  0
  4  5  1  0
  5  6  1  0
  5  7  1  0
  7  8  2  0
  8  9  1  0
  9 10  1  0
 10 11  2  0
 11 12  1  0
 12 13  2  0
 13 14  1  0
 13 15  1  0
 15 16  1  0
 16 17  2  0
 17 18  1  0
 18 19  1  0
 19 20  2  0
 20 21  1  0
 21 22  1  0
 22 23  2  0
 22 24  1  0
 24 25  1  0
 24 26  1  0
 26 27  1  0
 27 28  1  0
 28 29  1  0
 29 30  1  0
 29 31  1  0
 31 32  1  0
 20 33  1  0
 33 34  2  0
 34 35  1  0
 35 36  2  0
 15 37  2  0
  8  3  1  0
 37 10  1  0
 36 16  1  0
 36 19  1  0
 32 26  1  0
  1 38  1  0
  1 39  1  0
  1 40  1  0
  6 41  1  0
  6 42  1  0
  6 43  1  0
  7 44  1  0
  9 45  1  0
 12 46  1  0
 17 47  1  0
 18 48  1  0
 21 49  1  0
 24 50  1  6
 25 51  1  0
 25 52  1  0
 25 53  1  0
 27 54  1  0
 27 55  1  0
 28 56  1  0
 28 57  1  0
 30 58  1  0
 30 59  1  0
 30 60  1  0
 31 61  1  0
 31 62  1  0
 32 63  1  0
 32 64  1  0
 33 65  1  0
 34 66  1  0
 35 67  1  0
M  END
$$$$
