
     RDKit          3D

 49 53  0  0  0  0  0  0  0  0999 V2000
   -3.9515   -2.6854    0.5163 C   0  0  0  0  0  0  0  0  0  0  0  0
   -3.7648   -1.6498    1.3501 O   0  0  0  0  0  0  0  0  0  0  0  0
   -3.5880   -0.3965    0.8825 C   0  0  0  0  0  0  0  0  0  0  0  0
   -4.7215    0.0059   -0.0548 C   0  0  0  0  0  0  0  0  0  0  0  0
   -5.0634   -0.0502   -1.1642 N   0  0  0  0  0  0  0  0  0  0  0  0
   -6.1455    0.3708   -1.7728 C   0  0  0  0  0  0  0  0  0  0  0  0
   -7.0164    0.9823   -0.9420 C   0  0  0  0  0  0  0  0  0  0  0  0
   -6.2179    0.9134    0.6796 S   0  0  0  0  0  0  0  0  0  0  0  0
   -3.6591    0.5946    2.0956 C   0  0  0  0  0  0  0  0  0  0  0  0
   -3.2559    1.8543    1.3773 C   0  0  0  0  0  0  0  0  0  0  0  0
   -2.0981    1.3550    0.5556 C   0  0  0  0  0  0  0  0  0  0  0  0
   -0.9871    2.0296    0.1163 C   0  0  0  0  0  0  0  0  0  0  0  0
   -0.0110    1.3889   -0.6074 C   0  0  0  0  0  0  0  0  0  0  0  0
   -0.1503    0.0537   -0.8942 C   0  0  0  0  0  0  0  0  0  0  0  0
    0.7389   -0.6952   -1.5966 O   0  0  0  0  0  0  0  0  0  0  0  0
    1.9270   -0.5481   -2.2125 C   0  0  0  0  0  0  0  0  0  0  0  0
    3.1035   -0.1477   -1.4094 C   0  0  0  0  0  0  0  0  0  0  0  0
    3.5712    1.1317   -1.2722 C   0  0  0  0  0  0  0  0  0  0  0  0
    4.6750    1.4477   -0.5043 C   0  0  0  0  0  0  0  0  0  0  0  0
    5.3607    0.4628    0.1663 C   0  0  0  0  0  0  0  0  0  0  0  0
    6.4656    0.7845    0.9319 C   0  0  0  0  0  0  0  0  0  0  0  0
    7.1338   -0.2244    1.5915 C   0  0  0  0  0  0  0  0  0  0  0  0
    6.6956   -1.5300    1.4804 C   0  0  0  0  0  0  0  0  0  0  0  0
    5.5819   -1.8210    0.7032 C   0  0  0  0  0  0  0  0  0  0  0  0
    4.9066   -0.8337    0.0418 C   0  0  0  0  0  0  0  0  0  0  0  0
    3.8043   -1.1402   -0.7263 C   0  0  0  0  0  0  0  0  0  0  0  0
   -1.3036   -0.6082   -0.4283 C   0  0  0  0  0  0  0  0  0  0  0  0
   -2.2994   -0.0065    0.2947 C   0  0  0  0  0  0  0  0  0  0  0  0
   -4.0991   -3.6073    1.1847 H   0  0  0  0  0  0  0  0  0  0  0  0
   -4.9119   -2.6593   -0.0573 H   0  0  0  0  0  0  0  0  0  0  0  0
   -3.1084   -2.9889   -0.1181 H   0  0  0  0  0  0  0  0  0  0  0  0
   -6.3681    0.2554   -2.8744 H   0  0  0  0  0  0  0  0  0  0  0  0
   -8.0563    1.4720   -1.1169 H   0  0  0  0  0  0  0  0  0  0  0  0
   -2.8953    0.2189    2.7945 H   0  0  0  0  0  0  0  0  0  0  0  0
   -4.6761    0.6425    2.4783 H   0  0  0  0  0  0  0  0  0  0  0  0
   -4.0665    2.1983    0.7408 H   0  0  0  0  0  0  0  0  0  0  0  0
   -2.9426    2.6424    2.0757 H   0  0  0  0  0  0  0  0  0  0  0  0
   -0.8426    3.1016    0.3292 H   0  0  0  0  0  0  0  0  0  0  0  0
    0.8692    1.9006   -0.9710 H   0  0  0  0  0  0  0  0  0  0  0  0
    1.7977    0.1457   -3.0945 H   0  0  0  0  0  0  0  0  0  0  0  0
    2.1548   -1.5371   -2.7488 H   0  0  0  0  0  0  0  0  0  0  0  0
    3.0817    1.9460   -1.7794 H   0  0  0  0  0  0  0  0  0  0  0  0
    4.9973    2.4606   -0.4312 H   0  0  0  0  0  0  0  0  0  0  0  0
    6.8331    1.8036    1.0369 H   0  0  0  0  0  0  0  0  0  0  0  0
    8.0062   -0.0014    2.2005 H   0  0  0  0  0  0  0  0  0  0  0  0
    7.1732   -2.3648    1.9698 H   0  0  0  0  0  0  0  0  0  0  0  0
    5.2435   -2.8330    0.6185 H   0  0  0  0  0  0  0  0  0  0  0  0
    3.4995   -2.1704   -0.7843 H   0  0  0  0  0  0  0  0  0  0  0  0
   -1.4198   -1.6636   -0.6511 H   0  0  0  0  0  0  0  0  0  0  0  0
  1  2  1  0
  2  3  1  0
  3  4  1  0
  4  5  2  0
  5  6  1  0
  6  7  2  0
  7  8  1  0
  3  9  1  0
  9 10  1  0
 10 11  1  0
 11 12  2  0
 12 13  1  0
 13 14  2  0
 14 15  1  0
 15 16  1  0
 16 17  1  0
 17 18  2  0
 18 19  1  0
 19 20  2  0
 20 21  1  0
 21 22  2  0
 22 23  1  0
 23 24  2  0
 24 25  1  0
 25 26  2  0
 14 27  1  0
 27 28  2  0
 28  3  1  0
  8  4  1  0
 28 11  1  0
 26 17  1  0
 25 20  1  0
  1 29  1  0
  1 30  1  0
  1 31  1  0
  6 32  1  0
  7 33  1  0
  9 34  1  0
  9 35  1  0
 10 36  1  0
 10 37  1  0
 12 38  1  0
 13 39  1  0
 16 40  1  0
 16 41  1  0
 18 42  1  0
 19 43  1  0
 21 44  1  0
 22 45  1  0
 23 46  1  0
 24 47  1  0
 26 48  1  0
 27 49  1  0
M  END
$$$$
