@<TRIPOS>MOLECULE
*****
 49 53 0 0 0
SMALL
GASTEIGER

@<TRIPOS>ATOM
      1 C          -3.9515   -2.6854    0.5163 C.3     1  UNL1        0.0381
      2 O          -3.7648   -1.6498    1.3501 O.3     1  UNL1       -0.3652
      3 C          -3.5880   -0.3965    0.8825 C.3     1  UNL1        0.1424
      4 C          -4.7215    0.0059   -0.0548 C.ar    1  UNL1        0.1145
      5 N          -5.0634   -0.0502   -1.1642 N.ar    1  UNL1       -0.2490
      6 C          -6.1455    0.3708   -1.7728 C.ar    1  UNL1        0.0352
      7 C          -7.0164    0.9823   -0.9420 C.ar    1  UNL1       -0.0045
      8 S          -6.2179    0.9134    0.6796 S.2     1  UNL1       -0.0774
      9 C          -3.6591    0.5946    2.0956 C.3     1  UNL1       -0.0094
     10 C          -3.2559    1.8543    1.3773 C.3     1  UNL1       -0.0240
     11 C          -2.0981    1.3550    0.5556 C.ar    1  UNL1       -0.0407
     12 C          -0.9871    2.0296    0.1163 C.ar    1  UNL1       -0.0548
     13 C          -0.0110    1.3889   -0.6074 C.ar    1  UNL1       -0.0196
     14 C          -0.1503    0.0537   -0.8942 C.ar    1  UNL1        0.1214
     15 O           0.7389   -0.6952   -1.5966 O.3     1  UNL1       -0.4874
     16 C           1.9270   -0.5481   -2.2125 C.3     1  UNL1        0.1146
     17 C           3.1035   -0.1477   -1.4094 C.ar    1  UNL1       -0.0098
     18 C           3.5712    1.1317   -1.2722 C.ar    1  UNL1       -0.0548
     19 C           4.6750    1.4477   -0.5043 C.ar    1  UNL1       -0.0537
     20 C           5.3607    0.4628    0.1663 C.ar    1  UNL1       -0.0179
     21 C           6.4656    0.7845    0.9319 C.ar    1  UNL1       -0.0540
     22 C           7.1338   -0.2244    1.5915 C.ar    1  UNL1       -0.0612
     23 C           6.6956   -1.5300    1.4804 C.ar    1  UNL1       -0.0612
     24 C           5.5819   -1.8210    0.7032 C.ar    1  UNL1       -0.0540
     25 C           4.9066   -0.8337    0.0418 C.ar    1  UNL1       -0.0175
     26 C           3.8043   -1.1402   -0.7263 C.ar    1  UNL1       -0.0476
     27 C          -1.3036   -0.6082   -0.4283 C.ar    1  UNL1       -0.0134
     28 C          -2.2994   -0.0065    0.2947 C.ar    1  UNL1       -0.0029
     29 H          -4.0991   -3.6073    1.1847 H       1  UNL1        0.0524
     30 H          -4.9119   -2.6593   -0.0573 H       1  UNL1        0.0524
     31 H          -3.1084   -2.9889   -0.1181 H       1  UNL1        0.0524
     32 H          -6.3681    0.2554   -2.8744 H       1  UNL1        0.0835
     33 H          -8.0563    1.4720   -1.1169 H       1  UNL1        0.0709
     34 H          -2.8953    0.2189    2.7945 H       1  UNL1        0.0303
     35 H          -4.6761    0.6425    2.4783 H       1  UNL1        0.0303
     36 H          -4.0665    2.1983    0.7408 H       1  UNL1        0.0314
     37 H          -2.9426    2.6424    2.0757 H       1  UNL1        0.0314
     38 H          -0.8426    3.1016    0.3292 H       1  UNL1        0.0622
     39 H           0.8692    1.9006   -0.9710 H       1  UNL1        0.0654
     40 H           1.7977    0.1457   -3.0945 H       1  UNL1        0.0748
     41 H           2.1548   -1.5371   -2.7488 H       1  UNL1        0.0748
     42 H           3.0817    1.9460   -1.7794 H       1  UNL1        0.0622
     43 H           4.9973    2.4606   -0.4312 H       1  UNL1        0.0624
     44 H           6.8331    1.8036    1.0369 H       1  UNL1        0.0624
     45 H           8.0062   -0.0014    2.2005 H       1  UNL1        0.0618
     46 H           7.1732   -2.3648    1.9698 H       1  UNL1        0.0618
     47 H           5.2435   -2.8330    0.6185 H       1  UNL1        0.0624
     48 H           3.4995   -2.1704   -0.7843 H       1  UNL1        0.0627
     49 H          -1.4198   -1.6636   -0.6511 H       1  UNL1        0.0658
@<TRIPOS>BOND
     1     1     2    1
     2     2     3    1
     3     3     4    1
     4     4     5   ar
     5     5     6   ar
     6     6     7   ar
     7     7     8   ar
     8     3     9    1
     9     9    10    1
    10    10    11    1
    11    11    12   ar
    12    12    13   ar
    13    13    14   ar
    14    14    15    1
    15    15    16    1
    16    16    17    1
    17    17    18   ar
    18    18    19   ar
    19    19    20   ar
    20    20    21   ar
    21    21    22   ar
    22    22    23   ar
    23    23    24   ar
    24    24    25   ar
    25    25    26   ar
    26    14    27   ar
    27    27    28   ar
    28    28     3    1
    29     8     4   ar
    30    28    11   ar
    31    26    17   ar
    32    25    20   ar
    33     1    29    1
    34     1    30    1
    35     1    31    1
    36     6    32    1
    37     7    33    1
    38     9    34    1
    39     9    35    1
    40    10    36    1
    41    10    37    1
    42    12    38    1
    43    13    39    1
    44    16    40    1
    45    16    41    1
    46    18    42    1
    47    19    43    1
    48    21    44    1
    49    22    45    1
    50    23    46    1
    51    24    47    1
    52    26    48    1
    53    27    49    1
