@<TRIPOS>MOLECULE
*****
 55 57 0 0 0
SMALL
GASTEIGER

@<TRIPOS>ATOM
      1 N           7.9385   -2.1990    1.1086 N.3     1  UNL1       -0.3261
      2 C           6.5708   -2.6725    1.1511 C.3     1  UNL1        0.0185
      3 C           5.6910   -1.6948    0.4351 C.ar    1  UNL1       -0.0338
      4 C           5.0975   -0.6396    1.0939 C.ar    1  UNL1       -0.0571
      5 C           4.2832    0.2639    0.4146 C.ar    1  UNL1       -0.0583
      6 C           4.0377    0.1423   -0.9366 C.ar    1  UNL1       -0.0473
      7 C           3.1716    1.1038   -1.6644 C.3     1  UNL1       -0.0265
      8 C           1.7323    0.6839   -1.6762 C.3     1  UNL1       -0.0364
      9 C           1.1264    0.5538   -0.2902 C.3     1  UNL1       -0.0038
     10 N           1.1561    1.7634    0.4490 N.3     1  UNL1       -0.3147
     11 C           0.3420    2.8312    0.0116 C.3     1  UNL1        0.0101
     12 C          -1.1404    2.6598    0.1510 C.3     1  UNL1        0.0300
     13 N          -1.5682    2.4633    1.4973 N.3     1  UNL1       -0.1887
     14 S          -3.2508    2.2659    1.7162 S.O2    1  UNL1        0.0599
     15 O          -3.4784    2.0930    3.2185 O.2     1  UNL1       -0.1530
     16 O          -4.0132    3.5204    1.3655 O.2     1  UNL1       -0.1530
     17 C          -3.8962    0.8727    0.9314 C.ar    1  UNL1        0.1241
     18 C          -3.1537   -0.0883    0.3248 C.ar    1  UNL1       -0.0333
     19 C          -3.7536   -1.2073   -0.2688 C.ar    1  UNL1       -0.0521
     20 C          -5.1253   -1.3736   -0.2574 C.ar    1  UNL1       -0.0164
     21 C          -5.7196   -2.4798   -0.8454 C.ar    1  UNL1       -0.0540
     22 C          -7.0886   -2.6295   -0.8261 C.ar    1  UNL1       -0.0612
     23 C          -7.8175   -1.6360   -0.2012 C.ar    1  UNL1       -0.0611
     24 C          -7.2526   -0.5352    0.3860 C.ar    1  UNL1       -0.0526
     25 C          -5.8693   -0.4010    0.3568 C.ar    1  UNL1        0.0023
     26 C          -5.2815    0.6936    0.9370 C.ar    1  UNL1        0.0749
     27 CL         -6.2738    1.9145    1.7118 Cl      1  UNL1       -0.0809
     28 C           4.6407   -0.9237   -1.5873 C.ar    1  UNL1       -0.0583
     29 C           5.4485   -1.8208   -0.9160 C.ar    1  UNL1       -0.0571
     30 H           7.9056   -1.1718    0.9227 H       1  UNL1        0.1185
     31 H           8.4911   -2.6446    0.3614 H       1  UNL1        0.1185
     32 H           6.2087   -2.8911    2.1686 H       1  UNL1        0.0471
     33 H           6.5703   -3.6564    0.5990 H       1  UNL1        0.0471
     34 H           5.2749   -0.5237    2.1513 H       1  UNL1        0.0621
     35 H           3.8229    1.0937    0.9551 H       1  UNL1        0.0620
     36 H           3.4762    1.1937   -2.7386 H       1  UNL1        0.0314
     37 H           3.2143    2.1324   -1.2499 H       1  UNL1        0.0314
     38 H           1.5907   -0.2848   -2.2162 H       1  UNL1        0.0281
     39 H           1.1282    1.4267   -2.2339 H       1  UNL1        0.0281
     40 H           0.1773    0.0344   -0.3789 H       1  UNL1        0.0424
     41 H           1.8112   -0.1644    0.2536 H       1  UNL1        0.0424
     42 H           1.1073    1.6223    1.4701 H       1  UNL1        0.1220
     43 H           0.5363    3.1622   -1.0302 H       1  UNL1        0.0437
     44 H           0.6137    3.7289    0.6425 H       1  UNL1        0.0437
     45 H          -1.5308    1.9890   -0.6106 H       1  UNL1        0.0454
     46 H          -1.5702    3.6797   -0.1453 H       1  UNL1        0.0454
     47 H          -1.1069    1.6061    1.9279 H       1  UNL1        0.1480
     48 H          -2.0906   -0.0484    0.2854 H       1  UNL1        0.0638
     49 H          -3.1470   -1.9608   -0.7471 H       1  UNL1        0.0624
     50 H          -5.0879   -3.2172   -1.3155 H       1  UNL1        0.0624
     51 H          -7.5831   -3.4841   -1.2778 H       1  UNL1        0.0618
     52 H          -8.9000   -1.7387   -0.1772 H       1  UNL1        0.0618
     53 H          -7.8068    0.2414    0.8728 H       1  UNL1        0.0624
     54 H           4.4366   -1.0048   -2.6513 H       1  UNL1        0.0620
     55 H           5.9044   -2.6441   -1.4580 H       1  UNL1        0.0621
@<TRIPOS>BOND
     1     1     2    1
     2     2     3    1
     3     3     4   ar
     4     4     5   ar
     5     5     6   ar
     6     6     7    1
     7     7     8    1
     8     8     9    1
     9     9    10    1
    10    10    11    1
    11    11    12    1
    12    12    13    1
    13    13    14    1
    14    14    15    2
    15    14    16    2
    16    14    17    1
    17    17    18   ar
    18    18    19   ar
    19    19    20   ar
    20    20    21   ar
    21    21    22   ar
    22    22    23   ar
    23    23    24   ar
    24    24    25   ar
    25    25    26   ar
    26    26    27    1
    27     6    28   ar
    28    28    29   ar
    29    29     3   ar
    30    26    17   ar
    31    25    20   ar
    32     1    30    1
    33     1    31    1
    34     2    32    1
    35     2    33    1
    36     4    34    1
    37     5    35    1
    38     7    36    1
    39     7    37    1
    40     8    38    1
    41     8    39    1
    42     9    40    1
    43     9    41    1
    44    10    42    1
    45    11    43    1
    46    11    44    1
    47    12    45    1
    48    12    46    1
    49    13    47    1
    50    18    48    1
    51    19    49    1
    52    21    50    1
    53    22    51    1
    54    23    52    1
    55    24    53    1
    56    28    54    1
    57    29    55    1
