
     RDKit          3D

 55 57  0  0  0  0  0  0  0  0999 V2000
    7.9385   -2.1990    1.1086 N   0  0  0  0  0  0  0  0  0  0  0  0
    6.5708   -2.6725    1.1511 C   0  0  0  0  0  0  0  0  0  0  0  0
    5.6910   -1.6948    0.4351 C   0  0  0  0  0  0  0  0  0  0  0  0
    5.0975   -0.6396    1.0939 C   0  0  0  0  0  0  0  0  0  0  0  0
    4.2832    0.2639    0.4146 C   0  0  0  0  0  0  0  0  0  0  0  0
    4.0377    0.1423   -0.9366 C   0  0  0  0  0  0  0  0  0  0  0  0
    3.1716    1.1038   -1.6644 C   0  0  0  0  0  0  0  0  0  0  0  0
    1.7323    0.6839   -1.6762 C   0  0  0  0  0  0  0  0  0  0  0  0
    1.1264    0.5538   -0.2902 C   0  0  0  0  0  0  0  0  0  0  0  0
    1.1561    1.7634    0.4490 N   0  0  0  0  0  0  0  0  0  0  0  0
    0.3420    2.8312    0.0116 C   0  0  0  0  0  0  0  0  0  0  0  0
   -1.1404    2.6598    0.1510 C   0  0  0  0  0  0  0  0  0  0  0  0
   -1.5682    2.4633    1.4973 N   0  0  0  0  0  0  0  0  0  0  0  0
   -3.2508    2.2659    1.7162 S   0  0  0  0  0  6  0  0  0  0  0  0
   -3.4784    2.0930    3.2185 O   0  0  0  0  0  0  0  0  0  0  0  0
   -4.0132    3.5204    1.3655 O   0  0  0  0  0  0  0  0  0  0  0  0
   -3.8962    0.8727    0.9314 C   0  0  0  0  0  0  0  0  0  0  0  0
   -3.1537   -0.0883    0.3248 C   0  0  0  0  0  0  0  0  0  0  0  0
   -3.7536   -1.2073   -0.2688 C   0  0  0  0  0  0  0  0  0  0  0  0
   -5.1253   -1.3736   -0.2574 C   0  0  0  0  0  0  0  0  0  0  0  0
   -5.7196   -2.4798   -0.8454 C   0  0  0  0  0  0  0  0  0  0  0  0
   -7.0886   -2.6295   -0.8261 C   0  0  0  0  0  0  0  0  0  0  0  0
   -7.8175   -1.6360   -0.2012 C   0  0  0  0  0  0  0  0  0  0  0  0
   -7.2526   -0.5352    0.3860 C   0  0  0  0  0  0  0  0  0  0  0  0
   -5.8693   -0.4010    0.3568 C   0  0  0  0  0  0  0  0  0  0  0  0
   -5.2815    0.6936    0.9370 C   0  0  0  0  0  0  0  0  0  0  0  0
   -6.2738    1.9145    1.7118 Cl  0  0  0  0  0  0  0  0  0  0  0  0
    4.6407   -0.9237   -1.5873 C   0  0  0  0  0  0  0  0  0  0  0  0
    5.4485   -1.8208   -0.9160 C   0  0  0  0  0  0  0  0  0  0  0  0
    7.9056   -1.1718    0.9227 H   0  0  0  0  0  0  0  0  0  0  0  0
    8.4911   -2.6446    0.3614 H   0  0  0  0  0  0  0  0  0  0  0  0
    6.2087   -2.8911    2.1686 H   0  0  0  0  0  0  0  0  0  0  0  0
    6.5703   -3.6564    0.5990 H   0  0  0  0  0  0  0  0  0  0  0  0
    5.2749   -0.5237    2.1513 H   0  0  0  0  0  0  0  0  0  0  0  0
    3.8229    1.0937    0.9551 H   0  0  0  0  0  0  0  0  0  0  0  0
    3.4762    1.1937   -2.7386 H   0  0  0  0  0  0  0  0  0  0  0  0
    3.2143    2.1324   -1.2499 H   0  0  0  0  0  0  0  0  0  0  0  0
    1.5907   -0.2848   -2.2162 H   0  0  0  0  0  0  0  0  0  0  0  0
    1.1282    1.4267   -2.2339 H   0  0  0  0  0  0  0  0  0  0  0  0
    0.1773    0.0344   -0.3789 H   0  0  0  0  0  0  0  0  0  0  0  0
    1.8112   -0.1644    0.2536 H   0  0  0  0  0  0  0  0  0  0  0  0
    1.1073    1.6223    1.4701 H   0  0  0  0  0  0  0  0  0  0  0  0
    0.5363    3.1622   -1.0302 H   0  0  0  0  0  0  0  0  0  0  0  0
    0.6137    3.7289    0.6425 H   0  0  0  0  0  0  0  0  0  0  0  0
   -1.5308    1.9890   -0.6106 H   0  0  0  0  0  0  0  0  0  0  0  0
   -1.5702    3.6797   -0.1453 H   0  0  0  0  0  0  0  0  0  0  0  0
   -1.1069    1.6061    1.9279 H   0  0  0  0  0  0  0  0  0  0  0  0
   -2.0906   -0.0484    0.2854 H   0  0  0  0  0  0  0  0  0  0  0  0
   -3.1470   -1.9608   -0.7471 H   0  0  0  0  0  0  0  0  0  0  0  0
   -5.0879   -3.2172   -1.3155 H   0  0  0  0  0  0  0  0  0  0  0  0
   -7.5831   -3.4841   -1.2778 H   0  0  0  0  0  0  0  0  0  0  0  0
   -8.9000   -1.7387   -0.1772 H   0  0  0  0  0  0  0  0  0  0  0  0
   -7.8068    0.2414    0.8728 H   0  0  0  0  0  0  0  0  0  0  0  0
    4.4366   -1.0048   -2.6513 H   0  0  0  0  0  0  0  0  0  0  0  0
    5.9044   -2.6441   -1.4580 H   0  0  0  0  0  0  0  0  0  0  0  0
  1  2  1  0
  2  3  1  0
  3  4  2  0
  4  5  1  0
  5  6  2  0
  6  7  1  0
  7  8  1  0
  8  9  1  0
  9 10  1  0
 10 11  1  0
 11 12  1  0
 12 13  1  0
 13 14  1  0
 14 15  2  0
 14 16  2  0
 14 17  1  0
 17 18  2  0
 18 19  1  0
 19 20  2  0
 20 21  1  0
 21 22  2  0
 22 23  1  0
 23 24  2  0
 24 25  1  0
 25 26  2  0
 26 27  1  0
  6 28  1  0
 28 29  2  0
 29  3  1  0
 26 17  1  0
 25 20  1  0
  1 30  1  0
  1 31  1  0
  2 32  1  0
  2 33  1  0
  4 34  1  0
  5 35  1  0
  7 36  1  0
  7 37  1  0
  8 38  1  0
  8 39  1  0
  9 40  1  0
  9 41  1  0
 10 42  1  0
 11 43  1  0
 11 44  1  0
 12 45  1  0
 12 46  1  0
 13 47  1  0
 18 48  1  0
 19 49  1  0
 21 50  1  0
 22 51  1  0
 23 52  1  0
 24 53  1  0
 28 54  1  0
 29 55  1  0
M  END
$$$$
