
     RDKit          3D

 58 61  0  0  0  0  0  0  0  0999 V2000
    6.1526    3.8833    0.4302 C   0  0  0  0  0  0  0  0  0  0  0  0
    5.7263    2.5857   -0.0444 N   0  0  0  0  0  0  0  0  0  0  0  0
    4.4186    2.2683   -0.4660 C   0  0  0  0  0  0  0  0  0  0  0  0
    3.5383    3.1451   -0.4435 O   0  0  0  0  0  0  0  0  0  0  0  0
    4.1111    0.9034   -0.9261 C   0  0  2  0  0  0  0  0  0  0  0  0
    2.7593    0.5038   -1.3997 C   0  0  0  0  0  0  0  0  0  0  0  0
    3.3274    0.0416   -0.0833 C   0  0  1  0  0  0  0  0  0  0  0  0
    3.6493   -1.4117    0.0483 C   0  0  1  0  0  0  0  0  0  0  0  0
    4.7052   -1.4747    1.1737 C   0  0  0  0  0  0  0  0  0  0  0  0
    2.5040   -2.1804    0.5850 C   0  0  0  0  0  0  0  0  0  0  0  0
    1.2440   -1.6441    0.6437 C   0  0  0  0  0  0  0  0  0  0  0  0
    0.1652   -2.3590    1.1471 C   0  0  0  0  0  0  0  0  0  0  0  0
   -1.1829   -1.7706    1.1787 C   0  0  0  0  0  0  0  0  0  0  0  0
   -1.6837   -1.0706    0.1926 C   0  0  0  0  0  0  0  0  0  0  0  0
   -0.8778   -0.9102   -0.8882 F   0  0  0  0  0  0  0  0  0  0  0  0
   -2.9991   -0.4699    0.1669 C   0  0  0  0  0  0  0  0  0  0  0  0
   -3.9146   -0.5230    1.1940 C   0  0  0  0  0  0  0  0  0  0  0  0
   -5.1359    0.0366    1.1188 N   0  0  0  0  0  0  0  0  0  0  0  0
   -5.5329    0.7003   -0.0094 C   0  0  0  0  0  0  0  0  0  0  0  0
   -6.7688    1.2903   -0.1415 O   0  0  0  0  0  0  0  0  0  0  0  0
   -7.7918    1.3218    0.7987 C   0  0  0  0  0  0  0  0  0  0  0  0
   -8.9847    2.0808    0.2180 C   0  0  0  0  0  0  0  0  0  0  0  0
   -9.3925    1.4169   -0.9151 F   0  0  0  0  0  0  0  0  0  0  0  0
  -10.0286    2.1073    1.1053 F   0  0  0  0  0  0  0  0  0  0  0  0
   -8.6276    3.4867   -0.1598 C   0  0  0  0  0  0  0  0  0  0  0  0
   -9.7640    4.0831   -0.6756 F   0  0  0  0  0  0  0  0  0  0  0  0
   -7.6316    3.5291   -1.1066 F   0  0  0  0  0  0  0  0  0  0  0  0
   -4.6094    0.7490   -1.0320 C   0  0  0  0  0  0  0  0  0  0  0  0
   -3.3963    0.1888   -0.9477 N   0  0  0  0  0  0  0  0  0  0  0  0
    0.3711   -3.6467    1.6016 C   0  0  0  0  0  0  0  0  0  0  0  0
    1.6231   -4.2037    1.5521 C   0  0  0  0  0  0  0  0  0  0  0  0
    2.6889   -3.4576    1.0390 C   0  0  0  0  0  0  0  0  0  0  0  0
    3.8845   -4.0423    1.0115 F   0  0  0  0  0  0  0  0  0  0  0  0
    4.2367   -2.0498   -1.0748 N   0  0  0  0  0  0  0  0  0  0  0  0
    5.0026   -1.6058   -1.9617 C   0  0  0  0  0  0  0  0  0  0  0  0
    5.4869   -2.3894   -3.0025 N   0  0  0  0  0  0  0  0  0  0  0  0
    5.4558    0.1121   -1.8479 S   0  0  0  0  0  0  0  0  0  0  0  0
    7.0852    3.7743    1.0539 H   0  0  0  0  0  0  0  0  0  0  0  0
    5.3708    4.4370    0.9852 H   0  0  0  0  0  0  0  0  0  0  0  0
    6.4597    4.4724   -0.4574 H   0  0  0  0  0  0  0  0  0  0  0  0
    6.4514    1.8308   -0.0753 H   0  0  0  0  0  0  0  0  0  0  0  0
    2.0239    1.3316   -1.4305 H   0  0  0  0  0  0  0  0  0  0  0  0
    2.6488   -0.2122   -2.2398 H   0  0  0  0  0  0  0  0  0  0  0  0
    2.8104    0.5388    0.7900 H   0  0  0  0  0  0  0  0  0  0  0  0
    5.3066   -0.5432    1.2056 H   0  0  0  0  0  0  0  0  0  0  0  0
    4.2519   -1.6868    2.1466 H   0  0  0  0  0  0  0  0  0  0  0  0
    5.3720   -2.3178    0.9288 H   0  0  0  0  0  0  0  0  0  0  0  0
    1.0383   -0.6168    0.2950 H   0  0  0  0  0  0  0  0  0  0  0  0
   -1.7688   -1.9341    2.0604 H   0  0  0  0  0  0  0  0  0  0  0  0
   -3.5923   -1.0540    2.0940 H   0  0  0  0  0  0  0  0  0  0  0  0
   -7.4514    1.8263    1.7479 H   0  0  0  0  0  0  0  0  0  0  0  0
   -8.1241    0.2898    1.0223 H   0  0  0  0  0  0  0  0  0  0  0  0
   -8.3364    4.1173    0.7207 H   0  0  0  0  0  0  0  0  0  0  0  0
   -4.9436    1.2852   -1.9352 H   0  0  0  0  0  0  0  0  0  0  0  0
   -0.4820   -4.1797    1.9914 H   0  0  0  0  0  0  0  0  0  0  0  0
    1.8074   -5.2126    1.9020 H   0  0  0  0  0  0  0  0  0  0  0  0
    5.5600   -3.4187   -2.9069 H   0  0  0  0  0  0  0  0  0  0  0  0
    5.7833   -1.9515   -3.8926 H   0  0  0  0  0  0  0  0  0  0  0  0
  1  2  1  0
  2  3  1  0
  3  4  2  0
  5  3  1  1
  5  6  1  0
  6  7  1  0
  7  8  1  0
  8  9  1  1
  8 10  1  0
 10 11  2  0
 11 12  1  0
 12 13  1  0
 13 14  2  0
 14 15  1  0
 14 16  1  0
 16 17  2  0
 17 18  1  0
 18 19  2  0
 19 20  1  0
 20 21  1  0
 21 22  1  0
 22 23  1  0
 22 24  1  0
 22 25  1  0
 25 26  1  0
 25 27  1  0
 19 28  1  0
 28 29  2  0
 12 30  2  0
 30 31  1  0
 31 32  2  0
 32 33  1  0
  8 34  1  0
 34 35  2  0
 35 36  1  0
 35 37  1  0
  7  5  1  0
 32 10  1  0
 37  5  1  0
 29 16  1  0
  1 38  1  0
  1 39  1  0
  1 40  1  0
  2 41  1  0
  6 42  1  0
  6 43  1  0
  7 44  1  1
  9 45  1  0
  9 46  1  0
  9 47  1  0
 11 48  1  0
 13 49  1  0
 17 50  1  0
 21 51  1  0
 21 52  1  0
 25 53  1  0
 28 54  1  0
 30 55  1  0
 31 56  1  0
 36 57  1  0
 36 58  1  0
M  END
$$$$
