@<TRIPOS>MOLECULE
*****
 58 61 0 0 0
SMALL
GASTEIGER

@<TRIPOS>ATOM
      1 C           6.1526    3.8833    0.4302 C.3     1  UNL1        0.0001
      2 N           5.7263    2.5857   -0.0444 N.am    1  UNL1       -0.3172
      3 C           4.4186    2.2683   -0.4660 C.2     1  UNL1        0.2296
      4 O           3.5383    3.1451   -0.4435 O.2     1  UNL1       -0.2743
      5 C           4.1111    0.9034   -0.9261 C.3     1  UNL1        0.1052
      6 C           2.7593    0.5038   -1.3997 C.3     1  UNL1       -0.0220
      7 C           3.3274    0.0416   -0.0833 C.3     1  UNL1        0.0134
      8 C           3.6493   -1.4117    0.0483 C.3     1  UNL1        0.0935
      9 C           4.7052   -1.4747    1.1737 C.3     1  UNL1       -0.0351
     10 C           2.5040   -2.1804    0.5850 C.ar    1  UNL1        0.0158
     11 C           1.2440   -1.6441    0.6437 C.ar    1  UNL1       -0.0463
     12 C           0.1652   -2.3590    1.1471 C.ar    1  UNL1       -0.0217
     13 C          -1.1829   -1.7706    1.1787 C.2     1  UNL1       -0.0171
     14 C          -1.6837   -1.0706    0.1926 C.2     1  UNL1        0.1507
     15 F          -0.8778   -0.9102   -0.8882 F       1  UNL1       -0.2032
     16 C          -2.9991   -0.4699    0.1669 C.ar    1  UNL1        0.1172
     17 C          -3.9146   -0.5230    1.1940 C.ar    1  UNL1        0.0596
     18 N          -5.1359    0.0366    1.1188 N.ar    1  UNL1       -0.2178
     19 C          -5.5329    0.7003   -0.0094 C.ar    1  UNL1        0.2336
     20 O          -6.7688    1.2903   -0.1415 O.3     1  UNL1       -0.4691
     21 C          -7.7918    1.3218    0.7987 C.3     1  UNL1        0.1599
     22 C          -8.9847    2.0808    0.2180 C.3     1  UNL1        0.3407
     23 F          -9.3925    1.4169   -0.9151 F       1  UNL1       -0.1957
     24 F         -10.0286    2.1073    1.1053 F       1  UNL1       -0.1957
     25 C          -8.6276    3.4867   -0.1598 C.3     1  UNL1        0.3045
     26 F          -9.7640    4.0831   -0.6756 F       1  UNL1       -0.2026
     27 F          -7.6316    3.5291   -1.1066 F       1  UNL1       -0.2026
     28 C          -4.6094    0.7490   -1.0320 C.ar    1  UNL1        0.0898
     29 N          -3.3963    0.1888   -0.9477 N.ar    1  UNL1       -0.2459
     30 C           0.3711   -3.6467    1.6016 C.ar    1  UNL1       -0.0518
     31 C           1.6231   -4.2037    1.5521 C.ar    1  UNL1       -0.0255
     32 C           2.6889   -3.4576    1.0390 C.ar    1  UNL1        0.1289
     33 F           3.8845   -4.0423    1.0115 F       1  UNL1       -0.2051
     34 N           4.2367   -2.0498   -1.0748 N.2     1  UNL1       -0.2521
     35 C           5.0026   -1.6058   -1.9617 C.2     1  UNL1        0.1485
     36 N           5.4869   -2.3894   -3.0025 N.pl3   1  UNL1       -0.3380
     37 S           5.4558    0.1121   -1.8479 S.3     1  UNL1       -0.0746
     38 H           7.0852    3.7743    1.0539 H       1  UNL1        0.0426
     39 H           5.3708    4.4370    0.9852 H       1  UNL1        0.0426
     40 H           6.4597    4.4724   -0.4574 H       1  UNL1        0.0426
     41 H           6.4514    1.8308   -0.0753 H       1  UNL1        0.1484
     42 H           2.0239    1.3316   -1.4305 H       1  UNL1        0.0287
     43 H           2.6488   -0.2122   -2.2398 H       1  UNL1        0.0287
     44 H           2.8104    0.5388    0.7900 H       1  UNL1        0.0346
     45 H           5.3066   -0.5432    1.2056 H       1  UNL1        0.0256
     46 H           4.2519   -1.6868    2.1466 H       1  UNL1        0.0256
     47 H           5.3720   -2.3178    0.9288 H       1  UNL1        0.0256
     48 H           1.0383   -0.6168    0.2950 H       1  UNL1        0.0628
     49 H          -1.7688   -1.9341    2.0604 H       1  UNL1        0.0653
     50 H          -3.5923   -1.0540    2.0940 H       1  UNL1        0.0853
     51 H          -7.4514    1.8263    1.7479 H       1  UNL1        0.0760
     52 H          -8.1241    0.2898    1.0223 H       1  UNL1        0.0760
     53 H          -8.3364    4.1173    0.7207 H       1  UNL1        0.1082
     54 H          -4.9436    1.2852   -1.9352 H       1  UNL1        0.0884
     55 H          -0.4820   -4.1797    1.9914 H       1  UNL1        0.0624
     56 H           1.8074   -5.2126    1.9020 H       1  UNL1        0.0646
     57 H           5.5600   -3.4187   -2.9069 H       1  UNL1        0.1442
     58 H           5.7833   -1.9515   -3.8926 H       1  UNL1        0.1442
@<TRIPOS>BOND
     1     1     2    1
     2     2     3   am
     3     3     4    2
     4     5     3    1
     5     5     6    1
     6     6     7    1
     7     7     8    1
     8     8     9    1
     9     8    10    1
    10    10    11   ar
    11    11    12   ar
    12    12    13    1
    13    13    14    2
    14    14    15    1
    15    14    16    1
    16    16    17   ar
    17    17    18   ar
    18    18    19   ar
    19    19    20    1
    20    20    21    1
    21    21    22    1
    22    22    23    1
    23    22    24    1
    24    22    25    1
    25    25    26    1
    26    25    27    1
    27    19    28   ar
    28    28    29   ar
    29    12    30   ar
    30    30    31   ar
    31    31    32   ar
    32    32    33    1
    33     8    34    1
    34    34    35    2
    35    35    36    1
    36    35    37    1
    37     7     5    1
    38    32    10   ar
    39    37     5    1
    40    29    16   ar
    41     1    38    1
    42     1    39    1
    43     1    40    1
    44     2    41    1
    45     6    42    1
    46     6    43    1
    47     7    44    1
    48     9    45    1
    49     9    46    1
    50     9    47    1
    51    11    48    1
    52    13    49    1
    53    17    50    1
    54    21    51    1
    55    21    52    1
    56    25    53    1
    57    28    54    1
    58    30    55    1
    59    31    56    1
    60    36    57    1
    61    36    58    1
