
     RDKit          3D

 28 27  0  0  0  0  0  0  0  0999 V2000
    0.4652   -1.0568    0.5218 C   0  0  2  0  0  0  0  0  0  0  0  0
    0.4156   -0.9438    1.9023 O   0  0  0  0  0  0  0  0  0  0  0  0
    1.5356   -0.1532   -0.0007 C   0  0  0  0  0  0  0  0  0  0  0  0
    2.7499   -0.5390    0.5568 O   0  0  0  0  0  0  0  0  0  0  0  0
    4.0372    0.3923    0.0540 P   0  0  0  0  0  0  0  0  0  0  0  0
    5.2912    0.2079    1.2006 O   0  0  0  0  0  0  0  0  0  0  0  0
    3.6894    2.0535    0.0239 O   0  0  0  0  0  0  0  0  0  0  0  0
    4.5992   -0.0343   -1.2724 O   0  0  0  0  0  0  0  0  0  0  0  0
   -0.8768   -0.8339   -0.1241 C   0  0  1  0  0  0  0  0  0  0  0  0
   -1.7375   -1.8181    0.4004 O   0  0  0  0  0  0  0  0  0  0  0  0
   -1.4827    0.4982    0.1231 C   0  0  2  0  0  0  0  0  0  0  0  0
   -1.6488    0.6966    1.5088 O   0  0  0  0  0  0  0  0  0  0  0  0
   -2.8726    0.4504   -0.4440 C   0  0  0  0  0  0  0  0  0  0  0  0
   -2.8795    0.1835   -1.8108 O   0  0  0  0  0  0  0  0  0  0  0  0
   -3.9469    0.6340    0.2449 N   0  0  0  0  0  0  0  0  0  0  0  0
   -5.1626    0.5644   -0.3937 O   0  0  0  0  0  0  0  0  0  0  0  0
    0.7516   -2.1058    0.3034 H   0  0  0  0  0  0  0  0  0  0  0  0
    0.5467   -1.8026    2.3694 H   0  0  0  0  0  0  0  0  0  0  0  0
    1.3779    0.8964    0.3664 H   0  0  0  0  0  0  0  0  0  0  0  0
    1.5454   -0.1294   -1.1144 H   0  0  0  0  0  0  0  0  0  0  0  0
    5.6503   -0.7139    1.1995 H   0  0  0  0  0  0  0  0  0  0  0  0
    3.7681    2.4115   -0.8740 H   0  0  0  0  0  0  0  0  0  0  0  0
   -0.8599   -1.0259   -1.2133 H   0  0  0  0  0  0  0  0  0  0  0  0
   -1.8806   -1.6718    1.3735 H   0  0  0  0  0  0  0  0  0  0  0  0
   -0.9841    1.3313   -0.3805 H   0  0  0  0  0  0  0  0  0  0  0  0
   -2.3953    1.3347    1.6549 H   0  0  0  0  0  0  0  0  0  0  0  0
   -3.7801    0.0957   -2.2828 H   0  0  0  0  0  0  0  0  0  0  0  0
   -5.9159    1.0782    0.0846 H   0  0  0  0  0  0  0  0  0  0  0  0
  1  2  1  0
  1  3  1  0
  3  4  1  0
  4  5  1  0
  5  6  1  0
  5  7  1  0
  5  8  2  0
  1  9  1  0
  9 10  1  0
  9 11  1  0
 11 12  1  0
 11 13  1  0
 13 14  1  0
 13 15  2  3
 15 16  1  0
  1 17  1  1
  2 18  1  0
  3 19  1  0
  3 20  1  0
  6 21  1  0
  7 22  1  0
  9 23  1  6
 10 24  1  0
 11 25  1  6
 12 26  1  0
 14 27  1  0
 16 28  1  0
M  END
$$$$
