
     RDKit          3D

 75 82  0  0  0  0  0  0  0  0999 V2000
    2.4889   -4.3222   -0.9594 C   0  0  0  0  0  0  0  0  0  0  0  0
    1.8774   -2.9750   -0.6451 C   0  0  0  0  0  0  0  0  0  0  0  0
    2.6745   -1.8921   -0.4607 C   0  0  0  0  0  0  0  0  0  0  0  0
    4.1614   -2.0150   -0.5467 C   0  0  0  0  0  0  0  0  0  0  0  0
    4.7549   -2.6313    0.6731 C   0  0  0  0  0  0  0  0  0  0  0  0
    6.2532   -2.7350    0.5676 C   0  0  0  0  0  0  0  0  0  0  0  0
    7.5458   -2.6286    0.0537 O   0  0  0  0  0  0  0  0  0  0  0  0
    6.7773   -3.2581    1.5827 O   0  0  0  0  0  0  0  0  0  0  0  0
    1.7908   -0.8869   -0.2262 C   0  0  0  0  0  0  0  0  0  0  0  0
    2.4348    0.2757    0.0175 C   0  0  0  0  0  0  0  0  0  0  0  0
    1.4195    1.2955    0.2535 C   0  0  0  0  0  0  0  0  0  0  0  0
    1.8800    2.5509    0.4930 C   0  0  0  0  0  0  0  0  0  0  0  0
    3.2723    3.1266    0.5970 C   0  0  0  0  0  0  0  0  0  0  0  0
    3.9171    3.3681   -0.7175 C   0  0  0  0  0  0  0  0  0  0  0  0
    5.2812    3.9328   -0.4323 C   0  0  0  0  0  0  0  0  0  0  0  0
    6.0048    4.2153   -1.6055 O   0  0  0  0  0  0  0  0  0  0  0  0
    5.8584    4.1845    0.6581 O   0  0  0  0  0  0  0  0  0  0  0  0
    0.7961    3.3347    0.6557 C   0  0  0  0  0  0  0  0  0  0  0  0
    0.9001    4.7933    0.9375 C   0  0  0  0  0  0  0  0  0  0  0  0
   -0.2392    2.4678    0.4985 C   0  0  0  0  0  0  0  0  0  0  0  0
   -1.5831    3.0656    0.6253 C   0  0  0  0  0  0  0  0  0  0  0  0
   -2.5062    2.0966    0.4505 C   0  0  0  0  0  0  0  0  0  0  0  0
   -2.4088    0.7961    0.2053 N   0  0  0  0  0  0  0  0  0  0  0  0
   -3.6788    0.4577    0.1726 C   0  0  0  0  0  0  0  0  0  0  0  0
   -4.2971   -0.7252   -0.0179 C   0  0  0  0  0  0  0  0  0  0  0  0
   -3.2970   -1.7779   -0.2212 C   0  0  0  0  0  0  0  0  0  0  0  0
   -3.7755   -3.0325   -0.4304 C   0  0  0  0  0  0  0  0  0  0  0  0
   -5.1156   -3.5854   -0.4919 C   0  0  0  0  0  0  0  0  0  0  0  0
   -6.3034   -3.0578   -0.3699 C   0  0  0  0  0  0  0  0  0  0  0  0
   -2.6700   -3.7957   -0.5930 C   0  0  0  0  0  0  0  0  0  0  0  0
   -2.7611   -5.2734   -0.8483 C   0  0  0  0  0  0  0  0  0  0  0  0
   -1.6202   -2.9263   -0.4663 C   0  0  0  0  0  0  0  0  0  0  0  0
   -0.2934   -3.5096   -0.6301 C   0  0  0  0  0  0  0  0  0  0  0  0
    0.6111   -2.5240   -0.5051 C   0  0  0  0  0  0  0  0  0  0  0  0
    0.5211   -1.2308   -0.2468 N   0  0  0  0  0  0  0  0  0  0  0  0
   -0.9427   -0.2224   -0.0069 Co  0  0  0  0  0  4  0  0  0  0  0  0
    0.0963    1.2180    0.2542 N   0  0  0  0  0  0  0  0  0  0  0  0
   -1.9764   -1.6717   -0.2346 N   0  0  0  0  0  0  0  0  0  0  0  0
   -4.5575    1.4740    0.3814 C   0  0  0  0  0  0  0  0  0  0  0  0
   -6.0570    1.5836    0.4371 C   0  0  0  0  0  0  0  0  0  0  0  0
   -3.7789    2.5582    0.5649 C   0  0  0  0  0  0  0  0  0  0  0  0
   -4.3372    3.8792    0.8165 C   0  0  0  0  0  0  0  0  0  0  0  0
   -4.0002    5.1209    1.0368 C   0  0  0  0  0  0  0  0  0  0  0  0
    3.3294   -4.1900   -1.6334 H   0  0  0  0  0  0  0  0  0  0  0  0
    1.7300   -4.8981   -1.5762 H   0  0  0  0  0  0  0  0  0  0  0  0
    2.6366   -4.9404   -0.0709 H   0  0  0  0  0  0  0  0  0  0  0  0
    4.4083   -2.5492   -1.4772 H   0  0  0  0  0  0  0  0  0  0  0  0
    4.6450   -1.0067   -0.6575 H   0  0  0  0  0  0  0  0  0  0  0  0
    4.4189   -3.6746    0.8217 H   0  0  0  0  0  0  0  0  0  0  0  0
    4.5640   -2.0506    1.5839 H   0  0  0  0  0  0  0  0  0  0  0  0
    7.9646   -1.6982   -0.0486 H   0  0  0  0  0  0  0  0  0  0  0  0
    3.5268    0.4672    0.0474 H   0  0  0  0  0  0  0  0  0  0  0  0
    3.8692    2.3479    1.1476 H   0  0  0  0  0  0  0  0  0  0  0  0
    3.2714    3.9973    1.2509 H   0  0  0  0  0  0  0  0  0  0  0  0
    3.3631    4.0830   -1.3587 H   0  0  0  0  0  0  0  0  0  0  0  0
    4.1034    2.4065   -1.2392 H   0  0  0  0  0  0  0  0  0  0  0  0
    6.7870    4.8823   -1.5806 H   0  0  0  0  0  0  0  0  0  0  0  0
   -0.0628    5.2984    1.0046 H   0  0  0  0  0  0  0  0  0  0  0  0
    1.5397    4.9190    1.8559 H   0  0  0  0  0  0  0  0  0  0  0  0
    1.4623    5.2605    0.1041 H   0  0  0  0  0  0  0  0  0  0  0  0
   -1.7638    4.1347    0.8298 H   0  0  0  0  0  0  0  0  0  0  0  0
   -5.3898   -0.9024   -0.0261 H   0  0  0  0  0  0  0  0  0  0  0  0
   -5.2620   -4.6159   -0.6657 H   0  0  0  0  0  0  0  0  0  0  0  0
   -7.2372   -2.5604   -0.2596 H   0  0  0  0  0  0  0  0  0  0  0  0
   -7.2865   -3.4432   -0.4114 H   0  0  0  0  0  0  0  0  0  0  0  0
   -3.5158   -5.3764   -1.6631 H   0  0  0  0  0  0  0  0  0  0  0  0
   -3.1073   -5.7169    0.1017 H   0  0  0  0  0  0  0  0  0  0  0  0
   -1.7878   -5.6354   -1.1493 H   0  0  0  0  0  0  0  0  0  0  0  0
   -0.1027   -4.5745   -0.8177 H   0  0  0  0  0  0  0  0  0  0  0  0
   -6.5731    0.6318    0.3430 H   0  0  0  0  0  0  0  0  0  0  0  0
   -6.3949    2.2796   -0.3598 H   0  0  0  0  0  0  0  0  0  0  0  0
   -6.2986    2.0887    1.4174 H   0  0  0  0  0  0  0  0  0  0  0  0
   -5.3688    4.0485    0.8657 H   0  0  0  0  0  0  0  0  0  0  0  0
   -3.2878    5.9425    1.1738 H   0  0  0  0  0  0  0  0  0  0  0  0
   -3.2979    5.9267    1.1711 H   0  0  0  0  0  0  0  0  0  0  0  0
  1  2  1  0
  2  3  2  0
  3  4  1  0
  4  5  1  0
  5  6  1  0
  6  7  1  0
  6  8  2  0
  3  9  1  0
  9 10  2  0
 10 11  1  0
 11 12  2  0
 12 13  1  0
 13 14  1  0
 14 15  1  0
 15 16  1  0
 15 17  2  0
 12 18  1  0
 18 19  1  0
 18 20  2  0
 20 21  1  0
 21 22  2  0
 22 23  1  0
 23 24  1  0
 24 25  2  0
 25 26  1  0
 26 27  2  0
 27 28  1  0
 28 29  2  0
 27 30  1  0
 30 31  1  0
 30 32  2  0
 32 33  1  0
 33 34  2  0
 34 35  1  0
 35 36  1  0
 36 37  1  0
 36 38  1  0
 24 39  1  0
 39 40  1  0
 39 41  2  0
 41 42  1  0
 42 43  2  0
 34  2  1  0
 35  9  1  0
 37 11  1  0
 37 20  1  0
 41 22  1  0
 36 23  1  0
 38 26  1  0
 38 32  1  0
  1 44  1  0
  1 45  1  0
  1 46  1  0
  4 47  1  0
  4 48  1  0
  5 49  1  0
  5 50  1  0
  7 51  1  0
 10 52  1  0
 13 53  1  0
 13 54  1  0
 14 55  1  0
 14 56  1  0
 16 57  1  0
 19 58  1  0
 19 59  1  0
 19 60  1  0
 21 61  1  0
 25 62  1  0
 28 63  1  0
 29 64  1  0
 29 65  1  0
 31 66  1  0
 31 67  1  0
 31 68  1  0
 33 69  1  0
 40 70  1  0
 40 71  1  0
 40 72  1  0
 42 73  1  0
 43 74  1  0
 43 75  1  0
M  END
$$$$
