@<TRIPOS>MOLECULE
*****
 18 18 0 0 0
SMALL
GASTEIGER

@<TRIPOS>ATOM
      1 O           2.3092    1.6347   -0.2826 O.3     1  UNL1       -0.2930
      2 P           2.5374   -0.0228   -0.4204 P.3     1  UNL1        0.5280
      3 O           3.7096   -0.4703    0.7454 O.3     1  UNL1       -0.2930
      4 O           3.1376   -0.4090   -1.7455 O.2     1  UNL1       -0.2156
      5 O           1.1324   -0.8937   -0.0945 O.3     1  UNL1       -0.4040
      6 C          -0.1533   -0.4378   -0.0325 C.ar    1  UNL1        0.1321
      7 C          -1.0106   -1.3464    0.5674 C.ar    1  UNL1       -0.0194
      8 C          -2.3689   -1.0527    0.7195 C.ar    1  UNL1       -0.0583
      9 C          -2.7838    0.1784    0.2402 C.ar    1  UNL1       -0.0615
     10 C          -1.9706    1.1201   -0.3657 C.ar    1  UNL1       -0.0583
     11 C          -0.6315    0.7733   -0.4893 C.ar    1  UNL1       -0.0194
     12 H           2.6655    2.1648   -1.0228 H       1  UNL1        0.2231
     13 H           3.3631   -1.1499    1.3707 H       1  UNL1        0.2231
     14 H          -0.7303   -2.3164    0.9550 H       1  UNL1        0.0654
     15 H          -3.0942   -1.7170    1.1790 H       1  UNL1        0.0619
     16 H          -3.8326    0.4604    0.3321 H       1  UNL1        0.0618
     17 H          -2.3549    2.0562   -0.7156 H       1  UNL1        0.0619
     18 H           0.0757    1.4280   -0.9405 H       1  UNL1        0.0654
@<TRIPOS>BOND
     1     1     2    1
     2     2     3    1
     3     2     4    2
     4     2     5    1
     5     5     6    1
     6     6     7   ar
     7     7     8   ar
     8     8     9   ar
     9     9    10   ar
    10    10    11   ar
    11    11     6   ar
    12     1    12    1
    13     3    13    1
    14     7    14    1
    15     8    15    1
    16     9    16    1
    17    10    17    1
    18    11    18    1
