@<TRIPOS>MOLECULE
*****
 59 63 0 0 0
SMALL
GASTEIGER

@<TRIPOS>ATOM
      1 F           0.7621   -4.0049    2.0530 F       1  UNL1       -0.2054
      2 C           1.0847   -3.0171    1.1492 C.ar    1  UNL1        0.1272
      3 C           1.9878   -3.2533    0.1479 C.ar    1  UNL1        0.0155
      4 C           2.2888   -2.2503   -0.7366 C.ar    1  UNL1        0.1304
      5 O           3.1913   -2.4833   -1.7385 O.3     1  UNL1       -0.4279
      6 C           4.5709   -2.2814   -1.6773 C.3     1  UNL1        0.4625
      7 F           4.8961   -0.9591   -1.4143 F       1  UNL1       -0.1583
      8 F           5.1384   -2.6679   -2.8587 F       1  UNL1       -0.1583
      9 C           5.1302   -3.1344   -0.5543 C.3     1  UNL1        0.3402
     10 F           6.5054   -2.8923   -0.5432 F       1  UNL1       -0.1984
     11 F           4.6178   -2.7506    0.6717 F       1  UNL1       -0.1984
     12 C           1.6782   -1.0064   -0.6120 C.ar    1  UNL1       -0.0139
     13 C           0.7783   -0.7437    0.3721 C.ar    1  UNL1       -0.0118
     14 C           0.1197    0.5854    0.5175 C.3     1  UNL1        0.1060
     15 C           0.4172    1.4627   -0.6676 C.3     1  UNL1        0.0035
     16 C          -0.2019    2.7818   -0.6657 C.ar    1  UNL1       -0.0446
     17 C          -1.4793    2.9291   -1.1585 C.ar    1  UNL1       -0.0585
     18 C          -2.0781    4.1865   -1.1806 C.ar    1  UNL1       -0.0615
     19 C          -1.3984    5.2890   -0.7112 C.ar    1  UNL1       -0.0617
     20 C          -0.1221    5.1518   -0.2180 C.ar    1  UNL1       -0.0615
     21 C           0.4545    3.8895   -0.2060 C.ar    1  UNL1       -0.0585
     22 N          -1.2772    0.5060    0.7607 N.pl3   1  UNL1       -0.2997
     23 C          -2.1943   -0.2742   -0.0033 C.ar    1  UNL1        0.1949
     24 N          -3.5195   -0.3759    0.1969 N.ar    1  UNL1       -0.2146
     25 C          -4.0938   -1.1878   -0.6938 C.ar    1  UNL1        0.0909
     26 C          -5.4064   -1.6189   -0.9154 C.ar    1  UNL1       -0.0315
     27 C          -5.7136   -2.4853   -1.9413 C.ar    1  UNL1       -0.0243
     28 C          -4.6906   -2.9244   -2.7548 C.ar    1  UNL1        0.1255
     29 F          -4.9415   -3.7759   -3.7753 F       1  UNL1       -0.2054
     30 C          -3.3912   -2.5010   -2.5396 C.ar    1  UNL1       -0.0010
     31 C          -3.0867   -1.6339   -1.5123 C.ar    1  UNL1        0.0702
     32 N          -1.9564   -1.0621   -1.0657 N.ar    1  UNL1       -0.3260
     33 C           0.7803    1.1365    1.7685 C.ar    1  UNL1        0.0695
     34 C           0.1972    0.9493    3.0016 C.ar    1  UNL1       -0.0365
     35 C           0.7651    1.4086    4.1755 C.ar    1  UNL1       -0.0401
     36 C           1.9532    2.0748    4.1084 C.ar    1  UNL1        0.0590
     37 CL          2.7183    2.6801    5.5757 Cl      1  UNL1       -0.0820
     38 C           2.5289    2.2564    2.8670 C.ar    1  UNL1        0.0463
     39 N           1.9353    1.7898    1.7540 N.ar    1  UNL1       -0.2559
     40 C           0.4906   -1.7738    1.2539 C.ar    1  UNL1       -0.0206
     41 H           2.4374   -4.2191    0.0800 H       1  UNL1        0.0683
     42 H           4.9687   -4.1971   -0.7873 H       1  UNL1        0.1124
     43 H           1.9442   -0.2621   -1.3300 H       1  UNL1        0.0658
     44 H           0.1376    0.8667   -1.5762 H       1  UNL1        0.0341
     45 H           1.5562    1.5484   -0.6788 H       1  UNL1        0.0341
     46 H          -2.0773    2.0960   -1.5566 H       1  UNL1        0.0620
     47 H          -3.0758    4.2731   -1.5701 H       1  UNL1        0.0618
     48 H          -1.8291    6.2853   -0.7105 H       1  UNL1        0.0618
     49 H           0.4181    6.0165    0.1526 H       1  UNL1        0.0618
     50 H           1.4726    3.8794    0.1841 H       1  UNL1        0.0620
     51 H          -1.6710    1.0696    1.5408 H       1  UNL1        0.1501
     52 H          -6.1748   -1.2596   -0.2671 H       1  UNL1        0.0640
     53 H          -6.7269   -2.8343   -2.1332 H       1  UNL1        0.0647
     54 H          -2.5803   -2.8396   -3.1722 H       1  UNL1        0.0667
     55 H          -1.0479   -1.2357   -1.5140 H       1  UNL1        0.1686
     56 H          -0.7361    0.4197    3.1064 H       1  UNL1        0.0637
     57 H           0.2749    1.2398    5.1092 H       1  UNL1        0.0633
     58 H           3.4825    2.7926    2.8278 H       1  UNL1        0.0844
     59 H          -0.2123   -1.6588    2.0659 H       1  UNL1        0.0650
@<TRIPOS>BOND
     1     1     2    1
     2     2     3   ar
     3     3     4   ar
     4     4     5    1
     5     5     6    1
     6     6     7    1
     7     6     8    1
     8     6     9    1
     9     9    10    1
    10     9    11    1
    11     4    12   ar
    12    12    13   ar
    13    13    14    1
    14    14    15    1
    15    15    16    1
    16    16    17   ar
    17    17    18   ar
    18    18    19   ar
    19    19    20   ar
    20    20    21   ar
    21    14    22    1
    22    22    23    1
    23    23    24   ar
    24    24    25   ar
    25    25    26   ar
    26    26    27   ar
    27    27    28   ar
    28    28    29    1
    29    28    30   ar
    30    30    31   ar
    31    31    32   ar
    32    14    33    1
    33    33    34   ar
    34    34    35   ar
    35    35    36   ar
    36    36    37    1
    37    36    38   ar
    38    38    39   ar
    39    13    40   ar
    40    40     2   ar
    41    21    16   ar
    42    32    23   ar
    43    39    33   ar
    44    31    25   ar
    45     3    41    1
    46     9    42    1
    47    12    43    1
    48    15    44    1
    49    15    45    1
    50    17    46    1
    51    18    47    1
    52    19    48    1
    53    20    49    1
    54    21    50    1
    55    22    51    1
    56    26    52    1
    57    27    53    1
    58    30    54    1
    59    32    55    1
    60    34    56    1
    61    35    57    1
    62    38    58    1
    63    40    59    1
