
     RDKit          3D

 59 63  0  0  0  0  0  0  0  0999 V2000
    0.7621   -4.0049    2.0530 F   0  0  0  0  0  0  0  0  0  0  0  0
    1.0847   -3.0171    1.1492 C   0  0  0  0  0  0  0  0  0  0  0  0
    1.9878   -3.2533    0.1479 C   0  0  0  0  0  0  0  0  0  0  0  0
    2.2888   -2.2503   -0.7366 C   0  0  0  0  0  0  0  0  0  0  0  0
    3.1913   -2.4833   -1.7385 O   0  0  0  0  0  0  0  0  0  0  0  0
    4.5709   -2.2814   -1.6773 C   0  0  0  0  0  0  0  0  0  0  0  0
    4.8961   -0.9591   -1.4143 F   0  0  0  0  0  0  0  0  0  0  0  0
    5.1384   -2.6679   -2.8587 F   0  0  0  0  0  0  0  0  0  0  0  0
    5.1302   -3.1344   -0.5543 C   0  0  0  0  0  0  0  0  0  0  0  0
    6.5054   -2.8923   -0.5432 F   0  0  0  0  0  0  0  0  0  0  0  0
    4.6178   -2.7506    0.6717 F   0  0  0  0  0  0  0  0  0  0  0  0
    1.6782   -1.0064   -0.6120 C   0  0  0  0  0  0  0  0  0  0  0  0
    0.7783   -0.7437    0.3721 C   0  0  0  0  0  0  0  0  0  0  0  0
    0.1197    0.5854    0.5175 C   0  0  1  0  0  0  0  0  0  0  0  0
    0.4172    1.4627   -0.6676 C   0  0  0  0  0  0  0  0  0  0  0  0
   -0.2019    2.7818   -0.6657 C   0  0  0  0  0  0  0  0  0  0  0  0
   -1.4793    2.9291   -1.1585 C   0  0  0  0  0  0  0  0  0  0  0  0
   -2.0781    4.1865   -1.1806 C   0  0  0  0  0  0  0  0  0  0  0  0
   -1.3984    5.2890   -0.7112 C   0  0  0  0  0  0  0  0  0  0  0  0
   -0.1221    5.1518   -0.2180 C   0  0  0  0  0  0  0  0  0  0  0  0
    0.4545    3.8895   -0.2060 C   0  0  0  0  0  0  0  0  0  0  0  0
   -1.2772    0.5060    0.7607 N   0  0  0  0  0  0  0  0  0  0  0  0
   -2.1943   -0.2742   -0.0033 C   0  0  0  0  0  0  0  0  0  0  0  0
   -3.5195   -0.3759    0.1969 N   0  0  0  0  0  0  0  0  0  0  0  0
   -4.0938   -1.1878   -0.6938 C   0  0  0  0  0  0  0  0  0  0  0  0
   -5.4064   -1.6189   -0.9154 C   0  0  0  0  0  0  0  0  0  0  0  0
   -5.7136   -2.4853   -1.9413 C   0  0  0  0  0  0  0  0  0  0  0  0
   -4.6906   -2.9244   -2.7548 C   0  0  0  0  0  0  0  0  0  0  0  0
   -4.9415   -3.7759   -3.7753 F   0  0  0  0  0  0  0  0  0  0  0  0
   -3.3912   -2.5010   -2.5396 C   0  0  0  0  0  0  0  0  0  0  0  0
   -3.0867   -1.6339   -1.5123 C   0  0  0  0  0  0  0  0  0  0  0  0
   -1.9564   -1.0621   -1.0657 N   0  0  0  0  0  0  0  0  0  0  0  0
    0.7803    1.1365    1.7685 C   0  0  0  0  0  0  0  0  0  0  0  0
    0.1972    0.9493    3.0016 C   0  0  0  0  0  0  0  0  0  0  0  0
    0.7651    1.4086    4.1755 C   0  0  0  0  0  0  0  0  0  0  0  0
    1.9532    2.0748    4.1084 C   0  0  0  0  0  0  0  0  0  0  0  0
    2.7183    2.6801    5.5757 Cl  0  0  0  0  0  0  0  0  0  0  0  0
    2.5289    2.2564    2.8670 C   0  0  0  0  0  0  0  0  0  0  0  0
    1.9353    1.7898    1.7540 N   0  0  0  0  0  0  0  0  0  0  0  0
    0.4906   -1.7738    1.2539 C   0  0  0  0  0  0  0  0  0  0  0  0
    2.4374   -4.2191    0.0800 H   0  0  0  0  0  0  0  0  0  0  0  0
    4.9687   -4.1971   -0.7873 H   0  0  0  0  0  0  0  0  0  0  0  0
    1.9442   -0.2621   -1.3300 H   0  0  0  0  0  0  0  0  0  0  0  0
    0.1376    0.8667   -1.5762 H   0  0  0  0  0  0  0  0  0  0  0  0
    1.5562    1.5484   -0.6788 H   0  0  0  0  0  0  0  0  0  0  0  0
   -2.0773    2.0960   -1.5566 H   0  0  0  0  0  0  0  0  0  0  0  0
   -3.0758    4.2731   -1.5701 H   0  0  0  0  0  0  0  0  0  0  0  0
   -1.8291    6.2853   -0.7105 H   0  0  0  0  0  0  0  0  0  0  0  0
    0.4181    6.0165    0.1526 H   0  0  0  0  0  0  0  0  0  0  0  0
    1.4726    3.8794    0.1841 H   0  0  0  0  0  0  0  0  0  0  0  0
   -1.6710    1.0696    1.5408 H   0  0  0  0  0  0  0  0  0  0  0  0
   -6.1748   -1.2596   -0.2671 H   0  0  0  0  0  0  0  0  0  0  0  0
   -6.7269   -2.8343   -2.1332 H   0  0  0  0  0  0  0  0  0  0  0  0
   -2.5803   -2.8396   -3.1722 H   0  0  0  0  0  0  0  0  0  0  0  0
   -1.0479   -1.2357   -1.5140 H   0  0  0  0  0  0  0  0  0  0  0  0
   -0.7361    0.4197    3.1064 H   0  0  0  0  0  0  0  0  0  0  0  0
    0.2749    1.2398    5.1092 H   0  0  0  0  0  0  0  0  0  0  0  0
    3.4825    2.7926    2.8278 H   0  0  0  0  0  0  0  0  0  0  0  0
   -0.2123   -1.6588    2.0659 H   0  0  0  0  0  0  0  0  0  0  0  0
  1  2  1  0
  2  3  2  0
  3  4  1  0
  4  5  1  0
  5  6  1  0
  6  7  1  0
  6  8  1  0
  6  9  1  0
  9 10  1  0
  9 11  1  0
  4 12  2  0
 12 13  1  0
 13 14  1  0
 14 15  1  0
 15 16  1  0
 16 17  2  0
 17 18  1  0
 18 19  2  0
 19 20  1  0
 20 21  2  0
 14 22  1  1
 22 23  1  0
 23 24  2  0
 24 25  1  0
 25 26  2  0
 26 27  1  0
 27 28  2  0
 28 29  1  0
 28 30  1  0
 30 31  2  0
 31 32  1  0
 14 33  1  0
 33 34  2  0
 34 35  1  0
 35 36  2  0
 36 37  1  0
 36 38  1  0
 38 39  2  0
 13 40  2  0
 40  2  1  0
 21 16  1  0
 32 23  1  0
 39 33  1  0
 31 25  1  0
  3 41  1  0
  9 42  1  0
 12 43  1  0
 15 44  1  0
 15 45  1  0
 17 46  1  0
 18 47  1  0
 19 48  1  0
 20 49  1  0
 21 50  1  0
 22 51  1  0
 26 52  1  0
 27 53  1  0
 30 54  1  0
 32 55  1  0
 34 56  1  0
 35 57  1  0
 38 58  1  0
 40 59  1  0
M  END
$$$$
