
     RDKit          3D

 48 50  0  0  0  0  0  0  0  0999 V2000
   10.2055    0.7171   -0.2779 C   0  0  0  0  0  0  0  0  0  0  0  0
    8.8542    0.4795    0.1985 N   0  0  0  0  0  0  0  0  0  0  0  0
    7.7446    0.5249   -0.7168 C   0  0  0  0  0  0  0  0  0  0  0  0
    8.0482    0.7748   -1.8915 O   0  0  0  0  0  0  0  0  0  0  0  0
    6.4210    0.2752   -0.1577 C   0  0  0  0  0  0  0  0  0  0  0  0
    5.3699    0.3284   -1.0803 C   0  0  0  0  0  0  0  0  0  0  0  0
    4.0622    0.1017   -0.6362 C   0  0  0  0  0  0  0  0  0  0  0  0
    2.9497    0.1323   -1.4732 O   0  0  0  0  0  0  0  0  0  0  0  0
    1.6950   -0.1069   -0.9296 C   0  0  0  0  0  0  0  0  0  0  0  0
    1.1573   -1.3882   -0.8536 C   0  0  0  0  0  0  0  0  0  0  0  0
   -0.0980   -1.5713   -0.3023 C   0  0  0  0  0  0  0  0  0  0  0  0
   -0.6771   -2.7852   -0.1983 F   0  0  0  0  0  0  0  0  0  0  0  0
   -0.8299   -0.4975    0.1764 C   0  0  0  0  0  0  0  0  0  0  0  0
   -2.1217   -0.5518    0.7616 N   0  0  0  0  0  0  0  0  0  0  0  0
   -3.4158   -0.4605    0.1940 C   0  0  0  0  0  0  0  0  0  0  0  0
   -3.5788   -0.2994   -1.0626 O   0  0  0  0  0  0  0  0  0  0  0  0
   -4.5465   -0.5526    1.0594 N   0  0  0  0  0  0  0  0  0  0  0  0
   -5.8161   -0.4532    0.4248 C   0  0  0  0  0  0  0  0  0  0  0  0
   -6.3340   -1.6809    0.0157 C   0  0  0  0  0  0  0  0  0  0  0  0
   -7.5639   -1.7676   -0.6208 C   0  0  0  0  0  0  0  0  0  0  0  0
   -8.2500   -0.6012   -0.8320 C   0  0  0  0  0  0  0  0  0  0  0  0
   -9.8094   -0.6975   -1.6373 Cl  0  0  0  0  0  0  0  0  0  0  0  0
   -7.7475    0.6340   -0.4297 C   0  0  0  0  0  0  0  0  0  0  0  0
   -6.5227    0.7136    0.2033 C   0  0  0  0  0  0  0  0  0  0  0  0
   -8.5084    1.8878   -0.6686 C   0  0  0  0  0  0  0  0  0  0  0  0
   -7.8201    2.9846   -0.1882 F   0  0  0  0  0  0  0  0  0  0  0  0
   -9.7265    1.7515    0.0103 F   0  0  0  0  0  0  0  0  0  0  0  0
   -8.7270    2.0815   -2.0193 F   0  0  0  0  0  0  0  0  0  0  0  0
   -0.2887    0.7621    0.0959 C   0  0  0  0  0  0  0  0  0  0  0  0
    0.9747    0.9790   -0.4546 C   0  0  0  0  0  0  0  0  0  0  0  0
    3.9276   -0.1614    0.7120 C   0  0  0  0  0  0  0  0  0  0  0  0
    4.9715   -0.2105    1.6079 C   0  0  0  0  0  0  0  0  0  0  0  0
    6.2162    0.0122    1.1484 N   0  0  0  0  0  0  0  0  0  0  0  0
   10.2102    1.1825   -1.2948 H   0  0  0  0  0  0  0  0  0  0  0  0
   10.7549   -0.2459   -0.3791 H   0  0  0  0  0  0  0  0  0  0  0  0
   10.7529    1.3585    0.4630 H   0  0  0  0  0  0  0  0  0  0  0  0
    8.7789    0.2805    1.2348 H   0  0  0  0  0  0  0  0  0  0  0  0
    5.4958    0.5338   -2.1204 H   0  0  0  0  0  0  0  0  0  0  0  0
    1.7069   -2.2362   -1.2185 H   0  0  0  0  0  0  0  0  0  0  0  0
   -1.9835   -0.6842    1.7942 H   0  0  0  0  0  0  0  0  0  0  0  0
   -4.4113   -0.6855    2.0960 H   0  0  0  0  0  0  0  0  0  0  0  0
   -5.8131   -2.6297    0.1684 H   0  0  0  0  0  0  0  0  0  0  0  0
   -7.9627   -2.7292   -0.9378 H   0  0  0  0  0  0  0  0  0  0  0  0
   -6.0608    1.6297    0.5470 H   0  0  0  0  0  0  0  0  0  0  0  0
   -0.8081    1.6562    0.4532 H   0  0  0  0  0  0  0  0  0  0  0  0
    1.3950    1.9752   -0.5148 H   0  0  0  0  0  0  0  0  0  0  0  0
    2.9028   -0.3399    1.0647 H   0  0  0  0  0  0  0  0  0  0  0  0
    4.8267   -0.4202    2.6604 H   0  0  0  0  0  0  0  0  0  0  0  0
  1  2  1  0
  2  3  1  0
  3  4  2  0
  3  5  1  0
  5  6  2  0
  6  7  1  0
  7  8  1  0
  8  9  1  0
  9 10  2  0
 10 11  1  0
 11 12  1  0
 11 13  2  0
 13 14  1  0
 14 15  1  0
 15 16  2  0
 15 17  1  0
 17 18  1  0
 18 19  2  0
 19 20  1  0
 20 21  2  0
 21 22  1  0
 21 23  1  0
 23 24  2  0
 23 25  1  0
 25 26  1  0
 25 27  1  0
 25 28  1  0
 13 29  1  0
 29 30  2  0
  7 31  2  0
 31 32  1  0
 32 33  2  0
 33  5  1  0
 30  9  1  0
 24 18  1  0
  1 34  1  0
  1 35  1  0
  1 36  1  0
  2 37  1  0
  6 38  1  0
 10 39  1  0
 14 40  1  0
 17 41  1  0
 19 42  1  0
 20 43  1  0
 24 44  1  0
 29 45  1  0
 30 46  1  0
 31 47  1  0
 32 48  1  0
M  END
$$$$
