@<TRIPOS>MOLECULE
*****
 48 50 0 0 0
SMALL
GASTEIGER

@<TRIPOS>ATOM
      1 C          10.2055    0.7171   -0.2779 C.3     1  UNL1        0.0004
      2 N           8.8542    0.4795    0.1985 N.am    1  UNL1       -0.3132
      3 C           7.7446    0.5249   -0.7168 C.2     1  UNL1        0.2623
      4 O           8.0482    0.7748   -1.8915 O.2     1  UNL1       -0.2685
      5 C           6.4210    0.2752   -0.1577 C.ar    1  UNL1        0.1288
      6 C           5.3699    0.3284   -1.0803 C.ar    1  UNL1        0.0112
      7 C           4.0622    0.1017   -0.6362 C.ar    1  UNL1        0.1321
      8 O           2.9497    0.1323   -1.4732 O.3     1  UNL1       -0.4558
      9 C           1.6950   -0.1069   -0.9296 C.ar    1  UNL1        0.1313
     10 C           1.1573   -1.3882   -0.8536 C.ar    1  UNL1        0.0177
     11 C          -0.0980   -1.5713   -0.3023 C.ar    1  UNL1        0.1480
     12 F          -0.6771   -2.7852   -0.1983 F       1  UNL1       -0.2034
     13 C          -0.8299   -0.4975    0.1764 C.ar    1  UNL1        0.0704
     14 N          -2.1217   -0.5518    0.7616 N.am    1  UNL1       -0.2667
     15 C          -3.4158   -0.4605    0.1940 C.2     1  UNL1        0.3082
     16 O          -3.5788   -0.2994   -1.0626 O.2     1  UNL1       -0.2522
     17 N          -4.5465   -0.5526    1.0594 N.am    1  UNL1       -0.2692
     18 C          -5.8161   -0.4532    0.4248 C.ar    1  UNL1        0.0354
     19 C          -6.3340   -1.6809    0.0157 C.ar    1  UNL1       -0.0390
     20 C          -7.5639   -1.7676   -0.6208 C.ar    1  UNL1       -0.0411
     21 C          -8.2500   -0.6012   -0.8320 C.ar    1  UNL1        0.0527
     22 CL         -9.8094   -0.6975   -1.6373 Cl      1  UNL1       -0.0830
     23 C          -7.7475    0.6340   -0.4297 C.ar    1  UNL1        0.0748
     24 C          -6.5227    0.7136    0.2033 C.ar    1  UNL1       -0.0274
     25 C          -8.5084    1.8878   -0.6686 C.3     1  UNL1        0.4188
     26 F          -7.8201    2.9846   -0.1882 F       1  UNL1       -0.1658
     27 F          -9.7265    1.7515    0.0103 F       1  UNL1       -0.1658
     28 F          -8.7270    2.0815   -2.0193 F       1  UNL1       -0.1658
     29 C          -0.2887    0.7621    0.0959 C.ar    1  UNL1       -0.0342
     30 C           0.9747    0.9790   -0.4546 C.ar    1  UNL1       -0.0174
     31 C           3.9276   -0.1614    0.7120 C.ar    1  UNL1       -0.0012
     32 C           4.9715   -0.2105    1.6079 C.ar    1  UNL1        0.0319
     33 N           6.2162    0.0122    1.1484 N.ar    1  UNL1       -0.2501
     34 H          10.2102    1.1825   -1.2948 H       1  UNL1        0.0426
     35 H          10.7549   -0.2459   -0.3791 H       1  UNL1        0.0426
     36 H          10.7529    1.3585    0.4630 H       1  UNL1        0.0426
     37 H           8.7789    0.2805    1.2348 H       1  UNL1        0.1487
     38 H           5.4958    0.5338   -2.1204 H       1  UNL1        0.0677
     39 H           1.7069   -2.2362   -1.2185 H       1  UNL1        0.0684
     40 H          -1.9835   -0.6842    1.7942 H       1  UNL1        0.1565
     41 H          -4.4113   -0.6855    2.0960 H       1  UNL1        0.1564
     42 H          -5.8131   -2.6297    0.1684 H       1  UNL1        0.0636
     43 H          -7.9627   -2.7292   -0.9378 H       1  UNL1        0.0633
     44 H          -6.0608    1.6297    0.5470 H       1  UNL1        0.0642
     45 H          -0.8081    1.6562    0.4532 H       1  UNL1        0.0638
     46 H           1.3950    1.9752   -0.5148 H       1  UNL1        0.0655
     47 H           2.9028   -0.3399    1.0647 H       1  UNL1        0.0669
     48 H           4.8267   -0.4202    2.6604 H       1  UNL1        0.0831
@<TRIPOS>BOND
     1     1     2    1
     2     2     3   am
     3     3     4    2
     4     3     5    1
     5     5     6   ar
     6     6     7   ar
     7     7     8    1
     8     8     9    1
     9     9    10   ar
    10    10    11   ar
    11    11    12    1
    12    11    13   ar
    13    13    14    1
    14    14    15   am
    15    15    16    2
    16    15    17   am
    17    17    18    1
    18    18    19   ar
    19    19    20   ar
    20    20    21   ar
    21    21    22    1
    22    21    23   ar
    23    23    24   ar
    24    23    25    1
    25    25    26    1
    26    25    27    1
    27    25    28    1
    28    13    29   ar
    29    29    30   ar
    30     7    31   ar
    31    31    32   ar
    32    32    33   ar
    33    33     5   ar
    34    30     9   ar
    35    24    18   ar
    36     1    34    1
    37     1    35    1
    38     1    36    1
    39     2    37    1
    40     6    38    1
    41    10    39    1
    42    14    40    1
    43    17    41    1
    44    19    42    1
    45    20    43    1
    46    24    44    1
    47    29    45    1
    48    30    46    1
    49    31    47    1
    50    32    48    1
