@<TRIPOS>MOLECULE
*****
 33 35 0 0 0
SMALL
GASTEIGER

@<TRIPOS>ATOM
      1 O           2.9522    0.4672    2.3845 O.2     1  UNL1       -0.2872
      2 C           2.6998    0.3954    1.1513 C.2     1  UNL1        0.1875
      3 C           1.3078    0.1943    0.7429 C.2     1  UNL1       -0.0137
      4 C           0.3394    0.0901    1.6330 C.2     1  UNL1       -0.0509
      5 C          -1.0660   -0.1105    1.3021 C.ar    1  UNL1       -0.0243
      6 C          -1.9798   -0.2030    2.3334 C.ar    1  UNL1       -0.0540
      7 C          -3.3174   -0.3917    2.0933 C.ar    1  UNL1       -0.0535
      8 C          -3.8160   -0.4982    0.8134 C.ar    1  UNL1       -0.0178
      9 C          -5.1626   -0.6880    0.5797 C.ar    1  UNL1       -0.0540
     10 C          -5.6147   -0.7887   -0.7162 C.ar    1  UNL1       -0.0612
     11 C          -4.7043   -0.6966   -1.7438 C.ar    1  UNL1       -0.0612
     12 C          -3.3655   -0.5074   -1.4931 C.ar    1  UNL1       -0.0540
     13 C          -2.8902   -0.4037   -0.2035 C.ar    1  UNL1       -0.0173
     14 C          -1.5460   -0.2144    0.0265 C.ar    1  UNL1       -0.0469
     15 C           3.7983    0.5157    0.2083 C.ar    1  UNL1        0.0397
     16 C           5.1001    0.7055    0.6470 C.ar    1  UNL1       -0.0480
     17 C           6.1611    0.8228   -0.2256 C.ar    1  UNL1       -0.0429
     18 C           5.9509    0.7530   -1.5863 C.ar    1  UNL1        0.0276
     19 N           4.6889    0.5691   -2.0094 N.ar    1  UNL1       -0.2626
     20 C           3.6284    0.4512   -1.1560 C.ar    1  UNL1        0.0383
     21 H           1.0516    0.1279   -0.2987 H       1  UNL1        0.0656
     22 H           0.6385    0.1628    2.6925 H       1  UNL1        0.0625
     23 H          -1.6083   -0.1212    3.3670 H       1  UNL1        0.0624
     24 H          -4.0317   -0.4635    2.9164 H       1  UNL1        0.0624
     25 H          -5.8337   -0.7531    1.4294 H       1  UNL1        0.0624
     26 H          -6.6700   -0.9378   -0.9122 H       1  UNL1        0.0618
     27 H          -5.0569   -0.7755   -2.7634 H       1  UNL1        0.0618
     28 H          -2.6176   -0.4303   -2.2905 H       1  UNL1        0.0624
     29 H          -0.8523   -0.1454   -0.7963 H       1  UNL1        0.0629
     30 H           5.2525    0.7586    1.7147 H       1  UNL1        0.0626
     31 H           7.1779    0.9710    0.1162 H       1  UNL1        0.0633
     32 H           6.7629    0.8412   -2.3052 H       1  UNL1        0.0829
     33 H           2.6225    0.3030   -1.5475 H       1  UNL1        0.0837
@<TRIPOS>BOND
     1     1     2    2
     2     2     3    1
     3     3     4    2
     4     4     5    1
     5     5     6   ar
     6     6     7   ar
     7     7     8   ar
     8     8     9   ar
     9     9    10   ar
    10    10    11   ar
    11    11    12   ar
    12    12    13   ar
    13    13    14   ar
    14     2    15    1
    15    15    16   ar
    16    16    17   ar
    17    17    18   ar
    18    18    19   ar
    19    19    20   ar
    20    14     5   ar
    21    20    15   ar
    22    13     8   ar
    23     3    21    1
    24     4    22    1
    25     6    23    1
    26     7    24    1
    27     9    25    1
    28    10    26    1
    29    11    27    1
    30    12    28    1
    31    14    29    1
    32    16    30    1
    33    17    31    1
    34    18    32    1
    35    20    33    1
