
     RDKit          3D

 33 35  0  0  0  0  0  0  0  0999 V2000
    2.9522    0.4672    2.3845 O   0  0  0  0  0  0  0  0  0  0  0  0
    2.6998    0.3954    1.1513 C   0  0  0  0  0  0  0  0  0  0  0  0
    1.3078    0.1943    0.7429 C   0  0  0  0  0  0  0  0  0  0  0  0
    0.3394    0.0901    1.6330 C   0  0  0  0  0  0  0  0  0  0  0  0
   -1.0660   -0.1105    1.3021 C   0  0  0  0  0  0  0  0  0  0  0  0
   -1.9798   -0.2030    2.3334 C   0  0  0  0  0  0  0  0  0  0  0  0
   -3.3174   -0.3917    2.0933 C   0  0  0  0  0  0  0  0  0  0  0  0
   -3.8160   -0.4982    0.8134 C   0  0  0  0  0  0  0  0  0  0  0  0
   -5.1626   -0.6880    0.5797 C   0  0  0  0  0  0  0  0  0  0  0  0
   -5.6147   -0.7887   -0.7162 C   0  0  0  0  0  0  0  0  0  0  0  0
   -4.7043   -0.6966   -1.7438 C   0  0  0  0  0  0  0  0  0  0  0  0
   -3.3655   -0.5074   -1.4931 C   0  0  0  0  0  0  0  0  0  0  0  0
   -2.8902   -0.4037   -0.2035 C   0  0  0  0  0  0  0  0  0  0  0  0
   -1.5460   -0.2144    0.0265 C   0  0  0  0  0  0  0  0  0  0  0  0
    3.7983    0.5157    0.2083 C   0  0  0  0  0  0  0  0  0  0  0  0
    5.1001    0.7055    0.6470 C   0  0  0  0  0  0  0  0  0  0  0  0
    6.1611    0.8228   -0.2256 C   0  0  0  0  0  0  0  0  0  0  0  0
    5.9509    0.7530   -1.5863 C   0  0  0  0  0  0  0  0  0  0  0  0
    4.6889    0.5691   -2.0094 N   0  0  0  0  0  0  0  0  0  0  0  0
    3.6284    0.4512   -1.1560 C   0  0  0  0  0  0  0  0  0  0  0  0
    1.0516    0.1279   -0.2987 H   0  0  0  0  0  0  0  0  0  0  0  0
    0.6385    0.1628    2.6925 H   0  0  0  0  0  0  0  0  0  0  0  0
   -1.6083   -0.1212    3.3670 H   0  0  0  0  0  0  0  0  0  0  0  0
   -4.0317   -0.4635    2.9164 H   0  0  0  0  0  0  0  0  0  0  0  0
   -5.8337   -0.7531    1.4294 H   0  0  0  0  0  0  0  0  0  0  0  0
   -6.6700   -0.9378   -0.9122 H   0  0  0  0  0  0  0  0  0  0  0  0
   -5.0569   -0.7755   -2.7634 H   0  0  0  0  0  0  0  0  0  0  0  0
   -2.6176   -0.4303   -2.2905 H   0  0  0  0  0  0  0  0  0  0  0  0
   -0.8523   -0.1454   -0.7963 H   0  0  0  0  0  0  0  0  0  0  0  0
    5.2525    0.7586    1.7147 H   0  0  0  0  0  0  0  0  0  0  0  0
    7.1779    0.9710    0.1162 H   0  0  0  0  0  0  0  0  0  0  0  0
    6.7629    0.8412   -2.3052 H   0  0  0  0  0  0  0  0  0  0  0  0
    2.6225    0.3030   -1.5475 H   0  0  0  0  0  0  0  0  0  0  0  0
  1  2  2  0
  2  3  1  0
  3  4  2  0
  4  5  1  0
  5  6  2  0
  6  7  1  0
  7  8  2  0
  8  9  1  0
  9 10  2  0
 10 11  1  0
 11 12  2  0
 12 13  1  0
 13 14  2  0
  2 15  1  0
 15 16  2  0
 16 17  1  0
 17 18  2  0
 18 19  1  0
 19 20  2  0
 14  5  1  0
 20 15  1  0
 13  8  1  0
  3 21  1  0
  4 22  1  0
  6 23  1  0
  7 24  1  0
  9 25  1  0
 10 26  1  0
 11 27  1  0
 12 28  1  0
 14 29  1  0
 16 30  1  0
 17 31  1  0
 18 32  1  0
 20 33  1  0
M  END
$$$$
