
     RDKit          3D

 57 60  0  0  0  0  0  0  0  0999 V2000
    6.7466    2.8750   -0.3725 C   0  0  0  0  0  0  0  0  0  0  0  0
    6.3733    1.8801   -1.3419 O   0  0  0  0  0  0  0  0  0  0  0  0
    5.3376    1.0218   -1.0178 C   0  0  0  0  0  0  0  0  0  0  0  0
    4.9388    0.0688   -1.8735 N   0  0  0  0  0  0  0  0  0  0  0  0
    3.9253   -0.7633   -1.5424 C   0  0  0  0  0  0  0  0  0  0  0  0
    3.2912   -0.6529   -0.3413 C   0  0  0  0  0  0  0  0  0  0  0  0
    2.2273   -1.4677    0.1117 N   0  0  0  0  0  0  0  0  0  0  0  0
    0.8885   -1.2943   -0.3263 C   0  0  0  0  0  0  0  0  0  0  0  0
    0.2516   -2.0752   -1.1594 C   0  0  0  0  0  0  0  0  0  0  0  0
    0.6838   -3.2925   -1.8594 C   0  0  0  0  0  0  0  0  0  0  0  0
   -0.2629   -4.0113   -2.7740 C   0  0  0  0  0  0  0  0  0  0  0  0
    1.8391   -3.7637   -1.7190 N   0  0  0  0  0  0  0  0  0  0  0  0
   -1.0973   -1.4670   -1.2995 C   0  0  0  0  0  0  0  0  0  0  0  0
   -1.9847   -1.9545   -2.0317 O   0  0  0  0  0  0  0  0  0  0  0  0
   -1.1963   -0.3028   -0.5051 N   0  0  0  0  0  0  0  0  0  0  0  0
   -2.3795    0.4898   -0.4082 C   0  0  0  0  0  0  0  0  0  0  0  0
   -3.6158   -0.1250   -0.4161 C   0  0  0  0  0  0  0  0  0  0  0  0
   -4.7289    0.6878   -0.3426 C   0  0  0  0  0  0  0  0  0  0  0  0
   -6.0931    0.0834   -0.3305 C   0  0  0  0  0  0  0  0  0  0  0  0
   -4.6093    2.0558   -0.2657 C   0  0  0  0  0  0  0  0  0  0  0  0
   -5.6234    2.8045   -0.2007 O   0  0  0  0  0  0  0  0  0  0  0  0
   -3.4121    2.6577   -0.2581 N   0  0  0  0  0  0  0  0  0  0  0  0
   -3.2689    4.1140   -0.1850 C   0  0  0  0  0  0  0  0  0  0  0  0
   -2.3262    1.8715   -0.3291 C   0  0  0  0  0  0  0  0  0  0  0  0
    0.0606   -0.1414    0.1416 C   0  0  0  0  0  0  0  0  0  0  0  0
   -0.0244   -0.3086    1.6347 C   0  0  0  0  0  0  0  0  0  0  0  0
    0.5317    0.5907    2.5133 C   0  0  0  0  0  0  0  0  0  0  0  0
    0.4197    0.3803    3.8610 C   0  0  0  0  0  0  0  0  0  0  0  0
   -0.2442   -0.7270    4.3985 C   0  0  0  0  0  0  0  0  0  0  0  0
   -0.3609   -0.9564    6.1364 Cl  0  0  0  0  0  0  0  0  0  0  0  0
   -0.7900   -1.6088    3.4781 C   0  0  0  0  0  0  0  0  0  0  0  0
   -0.6868   -1.4114    2.1235 C   0  0  0  0  0  0  0  0  0  0  0  0
    3.7134    0.3355    0.5314 C   0  0  0  0  0  0  0  0  0  0  0  0
    4.7111    1.1301    0.1672 N   0  0  0  0  0  0  0  0  0  0  0  0
    7.7412    3.3116   -0.6322 H   0  0  0  0  0  0  0  0  0  0  0  0
    6.7811    2.3969    0.6457 H   0  0  0  0  0  0  0  0  0  0  0  0
    5.9869    3.6649   -0.4485 H   0  0  0  0  0  0  0  0  0  0  0  0
    3.5999   -1.5419   -2.2449 H   0  0  0  0  0  0  0  0  0  0  0  0
    2.4302   -2.2066    0.8092 H   0  0  0  0  0  0  0  0  0  0  0  0
    0.0908   -5.0709   -2.9002 H   0  0  0  0  0  0  0  0  0  0  0  0
   -0.3651   -3.4742   -3.7140 H   0  0  0  0  0  0  0  0  0  0  0  0
   -1.2390   -4.0994   -2.2586 H   0  0  0  0  0  0  0  0  0  0  0  0
    2.5726   -3.3895   -1.1439 H   0  0  0  0  0  0  0  0  0  0  0  0
   -3.7350   -1.1970   -0.4784 H   0  0  0  0  0  0  0  0  0  0  0  0
   -6.6697    0.2989   -1.2380 H   0  0  0  0  0  0  0  0  0  0  0  0
   -6.0008   -1.0200   -0.2400 H   0  0  0  0  0  0  0  0  0  0  0  0
   -6.6432    0.4464    0.5721 H   0  0  0  0  0  0  0  0  0  0  0  0
   -4.0585    4.5602    0.4410 H   0  0  0  0  0  0  0  0  0  0  0  0
   -2.2980    4.4181    0.2544 H   0  0  0  0  0  0  0  0  0  0  0  0
   -3.2807    4.5509   -1.2109 H   0  0  0  0  0  0  0  0  0  0  0  0
   -1.3584    2.3674   -0.3242 H   0  0  0  0  0  0  0  0  0  0  0  0
    0.4843    0.8356   -0.1184 H   0  0  0  0  0  0  0  0  0  0  0  0
    1.0492    1.4561    2.1135 H   0  0  0  0  0  0  0  0  0  0  0  0
    0.8600    1.0993    4.5760 H   0  0  0  0  0  0  0  0  0  0  0  0
   -1.3036   -2.4661    3.8835 H   0  0  0  0  0  0  0  0  0  0  0  0
   -1.1243   -2.1195    1.4499 H   0  0  0  0  0  0  0  0  0  0  0  0
    3.2455    0.4558    1.4944 H   0  0  0  0  0  0  0  0  0  0  0  0
  1  2  1  0
  2  3  1  0
  3  4  2  0
  4  5  1  0
  5  6  2  0
  6  7  1  0
  7  8  1  0
  8  9  2  0
  9 10  1  0
 10 11  1  0
 10 12  2  3
  9 13  1  0
 13 14  2  0
 13 15  1  0
 15 16  1  0
 16 17  1  0
 17 18  2  0
 18 19  1  0
 18 20  1  0
 20 21  2  0
 20 22  1  0
 22 23  1  0
 22 24  1  0
 15 25  1  0
 25 26  1  0
 26 27  2  0
 27 28  1  0
 28 29  2  0
 29 30  1  0
 29 31  1  0
 31 32  2  0
  6 33  1  0
 33 34  2  0
 34  3  1  0
 25  8  1  0
 32 26  1  0
 24 16  2  0
  1 35  1  0
  1 36  1  0
  1 37  1  0
  5 38  1  0
  7 39  1  0
 11 40  1  0
 11 41  1  0
 11 42  1  0
 12 43  1  0
 17 44  1  0
 19 45  1  0
 19 46  1  0
 19 47  1  0
 23 48  1  0
 23 49  1  0
 23 50  1  0
 24 51  1  0
 25 52  1  0
 27 53  1  0
 28 54  1  0
 31 55  1  0
 32 56  1  0
 33 57  1  0
M  END
$$$$
