@<TRIPOS>MOLECULE
*****
 57 60 0 0 0
SMALL
GASTEIGER

@<TRIPOS>ATOM
      1 C           6.7466    2.8750   -0.3725 C.3     1  UNL1        0.0819
      2 O           6.3733    1.8801   -1.3419 O.3     1  UNL1       -0.4657
      3 C           5.3376    1.0218   -1.0178 C.ar    1  UNL1        0.3177
      4 N           4.9388    0.0688   -1.8735 N.ar    1  UNL1       -0.2015
      5 C           3.9253   -0.7633   -1.5424 C.ar    1  UNL1        0.0555
      6 C           3.2912   -0.6529   -0.3413 C.ar    1  UNL1        0.0681
      7 N           2.2273   -1.4677    0.1117 N.pl3   1  UNL1       -0.3131
      8 C           0.8885   -1.2943   -0.3263 C.2     1  UNL1        0.0477
      9 C           0.2516   -2.0752   -1.1594 C.2     1  UNL1        0.0766
     10 C           0.6838   -3.2925   -1.8594 C.2     1  UNL1        0.0431
     11 C          -0.2629   -4.0113   -2.7740 C.3     1  UNL1       -0.0222
     12 N           1.8391   -3.7637   -1.7190 N.2     1  UNL1       -0.3035
     13 C          -1.0973   -1.4670   -1.2995 C.2     1  UNL1        0.2550
     14 O          -1.9847   -1.9545   -2.0317 O.2     1  UNL1       -0.2695
     15 N          -1.1963   -0.3028   -0.5051 N.am    1  UNL1       -0.2532
     16 C          -2.3795    0.4898   -0.4082 C.ar    1  UNL1        0.0542
     17 C          -3.6158   -0.1250   -0.4161 C.ar    1  UNL1       -0.0308
     18 C          -4.7289    0.6878   -0.3426 C.ar    1  UNL1        0.0158
     19 C          -6.0931    0.0834   -0.3305 C.3     1  UNL1       -0.0345
     20 C          -4.6093    2.0558   -0.2657 C.ar    1  UNL1        0.2541
     21 O          -5.6234    2.8045   -0.2007 O.2     1  UNL1       -0.2674
     22 N          -3.4121    2.6577   -0.2581 N.ar    1  UNL1       -0.3163
     23 C          -3.2689    4.1140   -0.1850 C.3     1  UNL1        0.0148
     24 C          -2.3262    1.8715   -0.3291 C.ar    1  UNL1        0.0291
     25 C           0.0606   -0.1414    0.1416 C.3     1  UNL1        0.0951
     26 C          -0.0244   -0.3086    1.6347 C.ar    1  UNL1       -0.0210
     27 C           0.5317    0.5907    2.5133 C.ar    1  UNL1       -0.0550
     28 C           0.4197    0.3803    3.8610 C.ar    1  UNL1       -0.0431
     29 C          -0.2442   -0.7270    4.3985 C.ar    1  UNL1        0.0410
     30 CL         -0.3609   -0.9564    6.1364 Cl      1  UNL1       -0.0835
     31 C          -0.7900   -1.6088    3.4781 C.ar    1  UNL1       -0.0431
     32 C          -0.6868   -1.4114    2.1235 C.ar    1  UNL1       -0.0550
     33 C           3.7134    0.3355    0.5314 C.ar    1  UNL1        0.0555
     34 N           4.7111    1.1301    0.1672 N.ar    1  UNL1       -0.2015
     35 H           7.7412    3.3116   -0.6322 H       1  UNL1        0.0661
     36 H           6.7811    2.3969    0.6457 H       1  UNL1        0.0661
     37 H           5.9869    3.6649   -0.4485 H       1  UNL1        0.0661
     38 H           3.5999   -1.5419   -2.2449 H       1  UNL1        0.0851
     39 H           2.4302   -2.2066    0.8092 H       1  UNL1        0.1520
     40 H           0.0908   -5.0709   -2.9002 H       1  UNL1        0.0292
     41 H          -0.3651   -3.4742   -3.7140 H       1  UNL1        0.0292
     42 H          -1.2390   -4.0994   -2.2586 H       1  UNL1        0.0292
     43 H           2.5726   -3.3895   -1.1439 H       1  UNL1        0.1863
     44 H          -3.7350   -1.1970   -0.4784 H       1  UNL1        0.0641
     45 H          -6.6697    0.2989   -1.2380 H       1  UNL1        0.0279
     46 H          -6.0008   -1.0200   -0.2400 H       1  UNL1        0.0279
     47 H          -6.6432    0.4464    0.5721 H       1  UNL1        0.0279
     48 H          -4.0585    4.5602    0.4410 H       1  UNL1        0.0457
     49 H          -2.2980    4.4181    0.2544 H       1  UNL1        0.0457
     50 H          -3.2807    4.5509   -1.2109 H       1  UNL1        0.0457
     51 H          -1.3584    2.3674   -0.3242 H       1  UNL1        0.0829
     52 H           0.4843    0.8356   -0.1184 H       1  UNL1        0.0617
     53 H           1.0492    1.4561    2.1135 H       1  UNL1        0.0621
     54 H           0.8600    1.0993    4.5760 H       1  UNL1        0.0632
     55 H          -1.3036   -2.4661    3.8835 H       1  UNL1        0.0632
     56 H          -1.1243   -2.1195    1.4499 H       1  UNL1        0.0621
     57 H           3.2455    0.4558    1.4944 H       1  UNL1        0.0851
@<TRIPOS>BOND
     1     1     2    1
     2     2     3    1
     3     3     4   ar
     4     4     5   ar
     5     5     6   ar
     6     6     7    1
     7     7     8    1
     8     8     9    2
     9     9    10    1
    10    10    11    1
    11    10    12    2
    12     9    13    1
    13    13    14    2
    14    13    15   am
    15    15    16    1
    16    16    17   ar
    17    17    18   ar
    18    18    19    1
    19    18    20   ar
    20    20    21    2
    21    20    22   ar
    22    22    23    1
    23    22    24   ar
    24    15    25    1
    25    25    26    1
    26    26    27   ar
    27    27    28   ar
    28    28    29   ar
    29    29    30    1
    30    29    31   ar
    31    31    32   ar
    32     6    33   ar
    33    33    34   ar
    34    34     3   ar
    35    25     8    1
    36    32    26   ar
    37    24    16   ar
    38     1    35    1
    39     1    36    1
    40     1    37    1
    41     5    38    1
    42     7    39    1
    43    11    40    1
    44    11    41    1
    45    11    42    1
    46    12    43    1
    47    17    44    1
    48    19    45    1
    49    19    46    1
    50    19    47    1
    51    23    48    1
    52    23    49    1
    53    23    50    1
    54    24    51    1
    55    25    52    1
    56    27    53    1
    57    28    54    1
    58    31    55    1
    59    32    56    1
    60    33    57    1
