@<TRIPOS>MOLECULE
*****
 61 64 0 0 0
SMALL
GASTEIGER

@<TRIPOS>ATOM
      1 O           6.2554    1.7121    1.7663 O.3     1  UNL1       -0.3929
      2 C           6.8027    0.5702    1.1855 C.3     1  UNL1        0.0675
      3 C           5.6924   -0.4564    0.9394 C.3     1  UNL1        0.0871
      4 C           6.2337   -1.7001    0.3165 C.3     1  UNL1        0.1067
      5 O           5.3489   -2.7567    0.5320 O.3     1  UNL1       -0.3870
      6 C           6.6235   -1.5500   -1.1126 C.3     1  UNL1        0.1158
      7 O           7.8847   -0.9208   -1.2169 O.3     1  UNL1       -0.3861
      8 C           5.6071   -0.9244   -1.9925 C.3     1  UNL1        0.1409
      9 O           4.9020   -1.9053   -2.7273 O.3     1  UNL1       -0.3814
     10 C           4.6501   -0.0581   -1.2531 C.ar    1  UNL1        0.1417
     11 N           3.6236    0.6297   -1.7868 N.ar    1  UNL1       -0.2345
     12 C           2.9940    1.2901   -0.8026 C.ar    1  UNL1        0.0595
     13 C           1.7891    2.1849   -0.9484 C.3     1  UNL1       -0.0086
     14 C           0.5151    1.3786   -0.7960 C.3     1  UNL1       -0.0436
     15 C          -0.6379    2.3455   -0.9548 C.3     1  UNL1       -0.0273
     16 C          -1.9540    1.6387   -0.8195 C.ar    1  UNL1       -0.0473
     17 C          -2.5934    1.0987   -1.9112 C.ar    1  UNL1       -0.0583
     18 C          -3.7976    0.4620   -1.7281 C.ar    1  UNL1       -0.0581
     19 C          -4.3772    0.3515   -0.4852 C.ar    1  UNL1       -0.0443
     20 C          -5.6755   -0.3364   -0.2964 C.3     1  UNL1       -0.0158
     21 C          -5.5471   -1.4677    0.6825 C.3     1  UNL1       -0.0462
     22 C          -6.8124   -2.2971    0.6438 C.3     1  UNL1       -0.0525
     23 C          -8.0246   -1.4089    0.6781 C.3     1  UNL1       -0.0530
     24 C          -7.6232   -0.0458    1.2420 C.3     1  UNL1       -0.0525
     25 C          -6.6813    0.6518    0.2691 C.3     1  UNL1       -0.0462
     26 C          -3.7434    0.8873    0.5999 C.ar    1  UNL1       -0.0581
     27 C          -2.5366    1.5262    0.4209 C.ar    1  UNL1       -0.0583
     28 C           3.6671    0.9862    0.3569 C.ar    1  UNL1        0.0280
     29 N           4.6828    0.1559    0.0614 N.ar    1  UNL1       -0.3241
     30 H           5.9153    1.4683    2.6682 H       1  UNL1        0.2095
     31 H           7.5015    0.1419    1.9303 H       1  UNL1        0.0579
     32 H           7.2929    0.8200    0.2243 H       1  UNL1        0.0579
     33 H           5.2319   -0.7352    1.9095 H       1  UNL1        0.0577
     34 H           7.1681   -1.9734    0.8867 H       1  UNL1        0.0642
     35 H           5.4977   -3.2220    1.3812 H       1  UNL1        0.2100
     36 H           6.8101   -2.5920   -1.5094 H       1  UNL1        0.0650
     37 H           8.4769   -1.4277   -0.6062 H       1  UNL1        0.2100
     38 H           6.1225   -0.2971   -2.7496 H       1  UNL1        0.0702
     39 H           4.6749   -2.6844   -2.1638 H       1  UNL1        0.2105
     40 H           1.8290    2.5654   -1.9919 H       1  UNL1        0.0329
     41 H           1.8524    2.9745   -0.1995 H       1  UNL1        0.0329
     42 H           0.4713    0.6069   -1.5852 H       1  UNL1        0.0272
     43 H           0.4441    0.9081    0.1868 H       1  UNL1        0.0272
     44 H          -0.6078    2.8430   -1.9571 H       1  UNL1        0.0313
     45 H          -0.5904    3.0876   -0.1356 H       1  UNL1        0.0313
     46 H          -2.1763    1.1622   -2.8998 H       1  UNL1        0.0620
     47 H          -4.3132    0.0335   -2.5672 H       1  UNL1        0.0620
     48 H          -6.0812   -0.7227   -1.2460 H       1  UNL1        0.0349
     49 H          -5.3495   -1.0770    1.6953 H       1  UNL1        0.0271
     50 H          -4.6730   -2.1185    0.4205 H       1  UNL1        0.0271
     51 H          -6.7934   -2.9942    1.5073 H       1  UNL1        0.0265
     52 H          -6.8266   -2.8819   -0.3074 H       1  UNL1        0.0265
     53 H          -8.4541   -1.2131   -0.3296 H       1  UNL1        0.0265
     54 H          -8.7632   -1.8334    1.3861 H       1  UNL1        0.0265
     55 H          -7.1318   -0.2126    2.2069 H       1  UNL1        0.0265
     56 H          -8.5260    0.6029    1.3207 H       1  UNL1        0.0265
     57 H          -6.1687    1.4742    0.8290 H       1  UNL1        0.0271
     58 H          -7.2696    1.1088   -0.5613 H       1  UNL1        0.0271
     59 H          -4.1757    0.8178    1.6026 H       1  UNL1        0.0620
     60 H          -2.0437    1.9498    1.3062 H       1  UNL1        0.0620
     61 H           3.3876    1.3783    1.3374 H       1  UNL1        0.0828
@<TRIPOS>BOND
     1     1     2    1
     2     2     3    1
     3     3     4    1
     4     4     5    1
     5     4     6    1
     6     6     7    1
     7     6     8    1
     8     8     9    1
     9     8    10    1
    10    10    11   ar
    11    11    12   ar
    12    12    13    1
    13    13    14    1
    14    14    15    1
    15    15    16    1
    16    16    17   ar
    17    17    18   ar
    18    18    19   ar
    19    19    20    1
    20    20    21    1
    21    21    22    1
    22    22    23    1
    23    23    24    1
    24    24    25    1
    25    19    26   ar
    26    26    27   ar
    27    12    28   ar
    28    28    29   ar
    29    29     3    1
    30    29    10   ar
    31    27    16   ar
    32    25    20    1
    33     1    30    1
    34     2    31    1
    35     2    32    1
    36     3    33    1
    37     4    34    1
    38     5    35    1
    39     6    36    1
    40     7    37    1
    41     8    38    1
    42     9    39    1
    43    13    40    1
    44    13    41    1
    45    14    42    1
    46    14    43    1
    47    15    44    1
    48    15    45    1
    49    17    46    1
    50    18    47    1
    51    20    48    1
    52    21    49    1
    53    21    50    1
    54    22    51    1
    55    22    52    1
    56    23    53    1
    57    23    54    1
    58    24    55    1
    59    24    56    1
    60    25    57    1
    61    25    58    1
    62    26    59    1
    63    27    60    1
    64    28    61    1
