
     RDKit          3D

 61 64  0  0  0  0  0  0  0  0999 V2000
    6.2554    1.7121    1.7663 O   0  0  0  0  0  0  0  0  0  0  0  0
    6.8027    0.5702    1.1855 C   0  0  0  0  0  0  0  0  0  0  0  0
    5.6924   -0.4564    0.9394 C   0  0  0  0  0  0  0  0  0  0  0  0
    6.2337   -1.7001    0.3165 C   0  0  0  0  0  0  0  0  0  0  0  0
    5.3489   -2.7567    0.5320 O   0  0  0  0  0  0  0  0  0  0  0  0
    6.6235   -1.5500   -1.1126 C   0  0  0  0  0  0  0  0  0  0  0  0
    7.8847   -0.9208   -1.2169 O   0  0  0  0  0  0  0  0  0  0  0  0
    5.6071   -0.9244   -1.9925 C   0  0  0  0  0  0  0  0  0  0  0  0
    4.9020   -1.9053   -2.7273 O   0  0  0  0  0  0  0  0  0  0  0  0
    4.6501   -0.0581   -1.2531 C   0  0  0  0  0  0  0  0  0  0  0  0
    3.6236    0.6297   -1.7868 N   0  0  0  0  0  0  0  0  0  0  0  0
    2.9940    1.2901   -0.8026 C   0  0  0  0  0  0  0  0  0  0  0  0
    1.7891    2.1849   -0.9484 C   0  0  0  0  0  0  0  0  0  0  0  0
    0.5151    1.3786   -0.7960 C   0  0  0  0  0  0  0  0  0  0  0  0
   -0.6379    2.3455   -0.9548 C   0  0  0  0  0  0  0  0  0  0  0  0
   -1.9540    1.6387   -0.8195 C   0  0  0  0  0  0  0  0  0  0  0  0
   -2.5934    1.0987   -1.9112 C   0  0  0  0  0  0  0  0  0  0  0  0
   -3.7976    0.4620   -1.7281 C   0  0  0  0  0  0  0  0  0  0  0  0
   -4.3772    0.3515   -0.4852 C   0  0  0  0  0  0  0  0  0  0  0  0
   -5.6755   -0.3364   -0.2964 C   0  0  0  0  0  0  0  0  0  0  0  0
   -5.5471   -1.4677    0.6825 C   0  0  0  0  0  0  0  0  0  0  0  0
   -6.8124   -2.2971    0.6438 C   0  0  0  0  0  0  0  0  0  0  0  0
   -8.0246   -1.4089    0.6781 C   0  0  0  0  0  0  0  0  0  0  0  0
   -7.6232   -0.0458    1.2420 C   0  0  0  0  0  0  0  0  0  0  0  0
   -6.6813    0.6518    0.2691 C   0  0  0  0  0  0  0  0  0  0  0  0
   -3.7434    0.8873    0.5999 C   0  0  0  0  0  0  0  0  0  0  0  0
   -2.5366    1.5262    0.4209 C   0  0  0  0  0  0  0  0  0  0  0  0
    3.6671    0.9862    0.3569 C   0  0  0  0  0  0  0  0  0  0  0  0
    4.6828    0.1559    0.0614 N   0  0  0  0  0  0  0  0  0  0  0  0
    5.9153    1.4683    2.6682 H   0  0  0  0  0  0  0  0  0  0  0  0
    7.5015    0.1419    1.9303 H   0  0  0  0  0  0  0  0  0  0  0  0
    7.2929    0.8200    0.2243 H   0  0  0  0  0  0  0  0  0  0  0  0
    5.2319   -0.7352    1.9095 H   0  0  0  0  0  0  0  0  0  0  0  0
    7.1681   -1.9734    0.8867 H   0  0  0  0  0  0  0  0  0  0  0  0
    5.4977   -3.2220    1.3812 H   0  0  0  0  0  0  0  0  0  0  0  0
    6.8101   -2.5920   -1.5094 H   0  0  0  0  0  0  0  0  0  0  0  0
    8.4769   -1.4277   -0.6062 H   0  0  0  0  0  0  0  0  0  0  0  0
    6.1225   -0.2971   -2.7496 H   0  0  0  0  0  0  0  0  0  0  0  0
    4.6749   -2.6844   -2.1638 H   0  0  0  0  0  0  0  0  0  0  0  0
    1.8290    2.5654   -1.9919 H   0  0  0  0  0  0  0  0  0  0  0  0
    1.8524    2.9745   -0.1995 H   0  0  0  0  0  0  0  0  0  0  0  0
    0.4713    0.6069   -1.5852 H   0  0  0  0  0  0  0  0  0  0  0  0
    0.4441    0.9081    0.1868 H   0  0  0  0  0  0  0  0  0  0  0  0
   -0.6078    2.8430   -1.9571 H   0  0  0  0  0  0  0  0  0  0  0  0
   -0.5904    3.0876   -0.1356 H   0  0  0  0  0  0  0  0  0  0  0  0
   -2.1763    1.1622   -2.8998 H   0  0  0  0  0  0  0  0  0  0  0  0
   -4.3132    0.0335   -2.5672 H   0  0  0  0  0  0  0  0  0  0  0  0
   -6.0812   -0.7227   -1.2460 H   0  0  0  0  0  0  0  0  0  0  0  0
   -5.3495   -1.0770    1.6953 H   0  0  0  0  0  0  0  0  0  0  0  0
   -4.6730   -2.1185    0.4205 H   0  0  0  0  0  0  0  0  0  0  0  0
   -6.7934   -2.9942    1.5073 H   0  0  0  0  0  0  0  0  0  0  0  0
   -6.8266   -2.8819   -0.3074 H   0  0  0  0  0  0  0  0  0  0  0  0
   -8.4541   -1.2131   -0.3296 H   0  0  0  0  0  0  0  0  0  0  0  0
   -8.7632   -1.8334    1.3861 H   0  0  0  0  0  0  0  0  0  0  0  0
   -7.1318   -0.2126    2.2069 H   0  0  0  0  0  0  0  0  0  0  0  0
   -8.5260    0.6029    1.3207 H   0  0  0  0  0  0  0  0  0  0  0  0
   -6.1687    1.4742    0.8290 H   0  0  0  0  0  0  0  0  0  0  0  0
   -7.2696    1.1088   -0.5613 H   0  0  0  0  0  0  0  0  0  0  0  0
   -4.1757    0.8178    1.6026 H   0  0  0  0  0  0  0  0  0  0  0  0
   -2.0437    1.9498    1.3062 H   0  0  0  0  0  0  0  0  0  0  0  0
    3.3876    1.3783    1.3374 H   0  0  0  0  0  0  0  0  0  0  0  0
  1  2  1  0
  2  3  1  0
  3  4  1  0
  4  5  1  0
  4  6  1  0
  6  7  1  0
  6  8  1  0
  8  9  1  0
  8 10  1  0
 10 11  2  0
 11 12  1  0
 12 13  1  0
 13 14  1  0
 14 15  1  0
 15 16  1  0
 16 17  2  0
 17 18  1  0
 18 19  2  0
 19 20  1  0
 20 21  1  0
 21 22  1  0
 22 23  1  0
 23 24  1  0
 24 25  1  0
 19 26  1  0
 26 27  2  0
 12 28  2  0
 28 29  1  0
 29  3  1  0
 29 10  1  0
 27 16  1  0
 25 20  1  0
  1 30  1  0
  2 31  1  0
  2 32  1  0
  3 33  1  0
  4 34  1  0
  5 35  1  0
  6 36  1  0
  7 37  1  0
  8 38  1  0
  9 39  1  0
 13 40  1  0
 13 41  1  0
 14 42  1  0
 14 43  1  0
 15 44  1  0
 15 45  1  0
 17 46  1  0
 18 47  1  0
 20 48  1  0
 21 49  1  0
 21 50  1  0
 22 51  1  0
 22 52  1  0
 23 53  1  0
 23 54  1  0
 24 55  1  0
 24 56  1  0
 25 57  1  0
 25 58  1  0
 26 59  1  0
 27 60  1  0
 28 61  1  0
M  END
$$$$
