@<TRIPOS>MOLECULE
*****
 80 83 0 0 0
SMALL
GASTEIGER

@<TRIPOS>ATOM
      1 C          -5.9874    4.7472   -0.0385 C.3     1  UNL1        0.0788
      2 O          -6.5351    3.8851   -0.9995 O.3     1  UNL1       -0.4950
      3 C          -5.8475    2.7968   -1.5237 C.ar    1  UNL1        0.1241
      4 C          -6.4738    2.0121   -2.4628 C.ar    1  UNL1        0.0218
      5 C          -5.8595    0.9162   -3.0300 C.ar    1  UNL1        0.1241
      6 O          -6.5238    0.1291   -3.9899 O.3     1  UNL1       -0.4950
      7 C          -7.8344    0.5077   -4.3422 C.3     1  UNL1        0.0788
      8 C          -4.5717    0.5932   -2.6441 C.ar    1  UNL1       -0.0119
      9 C          -3.9289    1.3632   -1.7078 C.ar    1  UNL1       -0.0077
     10 C          -2.5684    1.0342   -1.2748 C.ar    1  UNL1        0.0232
     11 C          -1.6040    2.0537   -1.3025 C.ar    1  UNL1       -0.0401
     12 C          -0.3259    1.7834   -0.9121 C.ar    1  UNL1        0.0193
     13 C           0.6839    2.7363   -0.9109 C.ar    1  UNL1        0.0389
     14 N           1.9382    2.4351   -0.5181 N.ar    1  UNL1       -0.2398
     15 C           2.2673    1.1831   -0.1058 C.ar    1  UNL1        0.1207
     16 N           3.5973    0.8689    0.3083 N.pl3   1  UNL1       -0.3290
     17 C           3.8843   -0.4812    0.7439 C.3     1  UNL1        0.0116
     18 C           5.3448   -0.6100    1.1240 C.3     1  UNL1       -0.0246
     19 C           6.2389   -0.2910   -0.0549 C.3     1  UNL1        0.0004
     20 N           7.6254   -0.4014    0.2633 N.3     1  UNL1       -0.2999
     21 C           8.0917   -1.7270    0.5261 C.3     1  UNL1        0.0117
     22 C           9.6125   -1.6870    0.5138 C.3     1  UNL1        0.0114
     23 N          10.0932   -0.3437    0.2530 N.3     1  UNL1       -0.3029
     24 C          11.5350   -0.3644    0.2448 C.3     1  UNL1       -0.0127
     25 C           9.6132    0.5995    1.2153 C.3     1  UNL1        0.0114
     26 C           8.0998    0.5163    1.2599 C.3     1  UNL1        0.0117
     27 C           1.2609    0.2392   -0.1082 C.ar    1  UNL1        0.0041
     28 C          -0.0363    0.4985   -0.5009 C.ar    1  UNL1        0.0778
     29 N          -0.9825   -0.4670   -0.4826 N.ar    1  UNL1       -0.2310
     30 C          -2.2698   -0.2294   -0.8669 C.ar    1  UNL1        0.1345
     31 N          -3.2555   -1.2419   -0.8278 N.am    1  UNL1       -0.2537
     32 C          -4.0977   -1.4345    0.3247 C.2     1  UNL1        0.3053
     33 O          -3.9607   -0.6850    1.2990 O.2     1  UNL1       -0.2525
     34 N          -5.0735   -2.4533    0.3732 N.am    1  UNL1       -0.2944
     35 C          -5.9238   -2.6551    1.5179 C.3     1  UNL1        0.0276
     36 C          -6.8492   -3.8303    1.2671 C.3     1  UNL1       -0.0442
     37 C          -6.8344   -1.4328    1.6215 C.3     1  UNL1       -0.0442
     38 C          -5.1632   -2.8771    2.7887 C.3     1  UNL1       -0.0442
     39 C          -4.5777    2.4530   -1.1629 C.ar    1  UNL1       -0.0119
     40 H          -5.2385    5.4487   -0.4756 H       1  UNL1        0.0660
     41 H          -5.5953    4.2416    0.8515 H       1  UNL1        0.0660
     42 H          -6.8245    5.4064    0.3214 H       1  UNL1        0.0660
     43 H          -7.4937    2.2857   -2.7548 H       1  UNL1        0.0691
     44 H          -8.4515    0.5010   -3.4080 H       1  UNL1        0.0660
     45 H          -7.8754    1.5723   -4.6997 H       1  UNL1        0.0660
     46 H          -8.2718   -0.1617   -5.0913 H       1  UNL1        0.0660
     47 H          -4.1084   -0.2740   -3.1189 H       1  UNL1        0.0660
     48 H          -1.8600    3.0337   -1.6244 H       1  UNL1        0.0632
     49 H           0.4385    3.7382   -1.2354 H       1  UNL1        0.0837
     50 H           4.2972    1.6340    0.2752 H       1  UNL1        0.1475
     51 H           3.6636   -1.2353   -0.0439 H       1  UNL1        0.0462
     52 H           3.2998   -0.7637    1.6564 H       1  UNL1        0.0462
     53 H           5.5365    0.0510    1.9884 H       1  UNL1        0.0293
     54 H           5.5243   -1.6524    1.4319 H       1  UNL1        0.0293
     55 H           6.0007    0.7372   -0.3875 H       1  UNL1        0.0427
     56 H           6.0030   -1.0060   -0.8628 H       1  UNL1        0.0427
     57 H           7.6937   -2.4512   -0.2150 H       1  UNL1        0.0439
     58 H           7.7864   -2.0501    1.5417 H       1  UNL1        0.0439
     59 H          10.0415   -1.9975    1.4953 H       1  UNL1        0.0439
     60 H          10.0223   -2.3288   -0.2990 H       1  UNL1        0.0439
     61 H          11.8288   -1.0642   -0.5863 H       1  UNL1        0.0391
     62 H          11.8797    0.6722    0.0238 H       1  UNL1        0.0391
     63 H          11.9044   -0.7613    1.1940 H       1  UNL1        0.0391
     64 H           9.8984    1.6129    0.8676 H       1  UNL1        0.0439
     65 H          10.0720    0.4072    2.2080 H       1  UNL1        0.0439
     66 H           7.6274    1.5211    1.1233 H       1  UNL1        0.0439
     67 H           7.8330    0.0958    2.2613 H       1  UNL1        0.0439
     68 H           1.4726   -0.7783    0.2140 H       1  UNL1        0.0673
     69 H          -3.4488   -1.9275   -1.6020 H       1  UNL1        0.1578
     70 H          -5.1805   -3.0850   -0.4550 H       1  UNL1        0.1508
     71 H          -6.3401   -4.7215    1.7162 H       1  UNL1        0.0250
     72 H          -7.0207   -3.9472    0.1925 H       1  UNL1        0.0250
     73 H          -7.7851   -3.6398    1.8150 H       1  UNL1        0.0250
     74 H          -7.3140   -1.2643    0.6462 H       1  UNL1        0.0250
     75 H          -7.5685   -1.5926    2.4422 H       1  UNL1        0.0250
     76 H          -6.2138   -0.5444    1.8470 H       1  UNL1        0.0250
     77 H          -4.2078   -3.3828    2.5411 H       1  UNL1        0.0250
     78 H          -5.0138   -1.9431    3.3734 H       1  UNL1        0.0250
     79 H          -5.7548   -3.5687    3.4247 H       1  UNL1        0.0250
     80 H          -4.0582    3.0426   -0.4329 H       1  UNL1        0.0660
@<TRIPOS>BOND
     1     1     2    1
     2     2     3    1
     3     3     4   ar
     4     4     5   ar
     5     5     6    1
     6     6     7    1
     7     5     8   ar
     8     8     9   ar
     9     9    10    1
    10    10    11   ar
    11    11    12   ar
    12    12    13   ar
    13    13    14   ar
    14    14    15   ar
    15    15    16    1
    16    16    17    1
    17    17    18    1
    18    18    19    1
    19    19    20    1
    20    20    21    1
    21    21    22    1
    22    22    23    1
    23    23    24    1
    24    23    25    1
    25    25    26    1
    26    15    27   ar
    27    27    28   ar
    28    28    29   ar
    29    29    30   ar
    30    30    31    1
    31    31    32   am
    32    32    33    2
    33    32    34   am
    34    34    35    1
    35    35    36    1
    36    35    37    1
    37    35    38    1
    38     9    39   ar
    39    39     3   ar
    40    30    10   ar
    41    28    12   ar
    42    26    20    1
    43     1    40    1
    44     1    41    1
    45     1    42    1
    46     4    43    1
    47     7    44    1
    48     7    45    1
    49     7    46    1
    50     8    47    1
    51    11    48    1
    52    13    49    1
    53    16    50    1
    54    17    51    1
    55    17    52    1
    56    18    53    1
    57    18    54    1
    58    19    55    1
    59    19    56    1
    60    21    57    1
    61    21    58    1
    62    22    59    1
    63    22    60    1
    64    24    61    1
    65    24    62    1
    66    24    63    1
    67    25    64    1
    68    25    65    1
    69    26    66    1
    70    26    67    1
    71    27    68    1
    72    31    69    1
    73    34    70    1
    74    36    71    1
    75    36    72    1
    76    36    73    1
    77    37    74    1
    78    37    75    1
    79    37    76    1
    80    38    77    1
    81    38    78    1
    82    38    79    1
    83    39    80    1
