
     RDKit          3D

 80 83  0  0  0  0  0  0  0  0999 V2000
   -5.9874    4.7472   -0.0385 C   0  0  0  0  0  0  0  0  0  0  0  0
   -6.5351    3.8851   -0.9995 O   0  0  0  0  0  0  0  0  0  0  0  0
   -5.8475    2.7968   -1.5237 C   0  0  0  0  0  0  0  0  0  0  0  0
   -6.4738    2.0121   -2.4628 C   0  0  0  0  0  0  0  0  0  0  0  0
   -5.8595    0.9162   -3.0300 C   0  0  0  0  0  0  0  0  0  0  0  0
   -6.5238    0.1291   -3.9899 O   0  0  0  0  0  0  0  0  0  0  0  0
   -7.8344    0.5077   -4.3422 C   0  0  0  0  0  0  0  0  0  0  0  0
   -4.5717    0.5932   -2.6441 C   0  0  0  0  0  0  0  0  0  0  0  0
   -3.9289    1.3632   -1.7078 C   0  0  0  0  0  0  0  0  0  0  0  0
   -2.5684    1.0342   -1.2748 C   0  0  0  0  0  0  0  0  0  0  0  0
   -1.6040    2.0537   -1.3025 C   0  0  0  0  0  0  0  0  0  0  0  0
   -0.3259    1.7834   -0.9121 C   0  0  0  0  0  0  0  0  0  0  0  0
    0.6839    2.7363   -0.9109 C   0  0  0  0  0  0  0  0  0  0  0  0
    1.9382    2.4351   -0.5181 N   0  0  0  0  0  0  0  0  0  0  0  0
    2.2673    1.1831   -0.1058 C   0  0  0  0  0  0  0  0  0  0  0  0
    3.5973    0.8689    0.3083 N   0  0  0  0  0  0  0  0  0  0  0  0
    3.8843   -0.4812    0.7439 C   0  0  0  0  0  0  0  0  0  0  0  0
    5.3448   -0.6100    1.1240 C   0  0  0  0  0  0  0  0  0  0  0  0
    6.2389   -0.2910   -0.0549 C   0  0  0  0  0  0  0  0  0  0  0  0
    7.6254   -0.4014    0.2633 N   0  0  0  0  0  0  0  0  0  0  0  0
    8.0917   -1.7270    0.5261 C   0  0  0  0  0  0  0  0  0  0  0  0
    9.6125   -1.6870    0.5138 C   0  0  0  0  0  0  0  0  0  0  0  0
   10.0932   -0.3437    0.2530 N   0  0  0  0  0  0  0  0  0  0  0  0
   11.5350   -0.3644    0.2448 C   0  0  0  0  0  0  0  0  0  0  0  0
    9.6132    0.5995    1.2153 C   0  0  0  0  0  0  0  0  0  0  0  0
    8.0998    0.5163    1.2599 C   0  0  0  0  0  0  0  0  0  0  0  0
    1.2609    0.2392   -0.1082 C   0  0  0  0  0  0  0  0  0  0  0  0
   -0.0363    0.4985   -0.5009 C   0  0  0  0  0  0  0  0  0  0  0  0
   -0.9825   -0.4670   -0.4826 N   0  0  0  0  0  0  0  0  0  0  0  0
   -2.2698   -0.2294   -0.8669 C   0  0  0  0  0  0  0  0  0  0  0  0
   -3.2555   -1.2419   -0.8278 N   0  0  0  0  0  0  0  0  0  0  0  0
   -4.0977   -1.4345    0.3247 C   0  0  0  0  0  0  0  0  0  0  0  0
   -3.9607   -0.6850    1.2990 O   0  0  0  0  0  0  0  0  0  0  0  0
   -5.0735   -2.4533    0.3732 N   0  0  0  0  0  0  0  0  0  0  0  0
   -5.9238   -2.6551    1.5179 C   0  0  0  0  0  0  0  0  0  0  0  0
   -6.8492   -3.8303    1.2671 C   0  0  0  0  0  0  0  0  0  0  0  0
   -6.8344   -1.4328    1.6215 C   0  0  0  0  0  0  0  0  0  0  0  0
   -5.1632   -2.8771    2.7887 C   0  0  0  0  0  0  0  0  0  0  0  0
   -4.5777    2.4530   -1.1629 C   0  0  0  0  0  0  0  0  0  0  0  0
   -5.2385    5.4487   -0.4756 H   0  0  0  0  0  0  0  0  0  0  0  0
   -5.5953    4.2416    0.8515 H   0  0  0  0  0  0  0  0  0  0  0  0
   -6.8245    5.4064    0.3214 H   0  0  0  0  0  0  0  0  0  0  0  0
   -7.4937    2.2857   -2.7548 H   0  0  0  0  0  0  0  0  0  0  0  0
   -8.4515    0.5010   -3.4080 H   0  0  0  0  0  0  0  0  0  0  0  0
   -7.8754    1.5723   -4.6997 H   0  0  0  0  0  0  0  0  0  0  0  0
   -8.2718   -0.1617   -5.0913 H   0  0  0  0  0  0  0  0  0  0  0  0
   -4.1084   -0.2740   -3.1189 H   0  0  0  0  0  0  0  0  0  0  0  0
   -1.8600    3.0337   -1.6244 H   0  0  0  0  0  0  0  0  0  0  0  0
    0.4385    3.7382   -1.2354 H   0  0  0  0  0  0  0  0  0  0  0  0
    4.2972    1.6340    0.2752 H   0  0  0  0  0  0  0  0  0  0  0  0
    3.6636   -1.2353   -0.0439 H   0  0  0  0  0  0  0  0  0  0  0  0
    3.2998   -0.7637    1.6564 H   0  0  0  0  0  0  0  0  0  0  0  0
    5.5365    0.0510    1.9884 H   0  0  0  0  0  0  0  0  0  0  0  0
    5.5243   -1.6524    1.4319 H   0  0  0  0  0  0  0  0  0  0  0  0
    6.0007    0.7372   -0.3875 H   0  0  0  0  0  0  0  0  0  0  0  0
    6.0030   -1.0060   -0.8628 H   0  0  0  0  0  0  0  0  0  0  0  0
    7.6937   -2.4512   -0.2150 H   0  0  0  0  0  0  0  0  0  0  0  0
    7.7864   -2.0501    1.5417 H   0  0  0  0  0  0  0  0  0  0  0  0
   10.0415   -1.9975    1.4953 H   0  0  0  0  0  0  0  0  0  0  0  0
   10.0223   -2.3288   -0.2990 H   0  0  0  0  0  0  0  0  0  0  0  0
   11.8288   -1.0642   -0.5863 H   0  0  0  0  0  0  0  0  0  0  0  0
   11.8797    0.6722    0.0238 H   0  0  0  0  0  0  0  0  0  0  0  0
   11.9044   -0.7613    1.1940 H   0  0  0  0  0  0  0  0  0  0  0  0
    9.8984    1.6129    0.8676 H   0  0  0  0  0  0  0  0  0  0  0  0
   10.0720    0.4072    2.2080 H   0  0  0  0  0  0  0  0  0  0  0  0
    7.6274    1.5211    1.1233 H   0  0  0  0  0  0  0  0  0  0  0  0
    7.8330    0.0958    2.2613 H   0  0  0  0  0  0  0  0  0  0  0  0
    1.4726   -0.7783    0.2140 H   0  0  0  0  0  0  0  0  0  0  0  0
   -3.4488   -1.9275   -1.6020 H   0  0  0  0  0  0  0  0  0  0  0  0
   -5.1805   -3.0850   -0.4550 H   0  0  0  0  0  0  0  0  0  0  0  0
   -6.3401   -4.7215    1.7162 H   0  0  0  0  0  0  0  0  0  0  0  0
   -7.0207   -3.9472    0.1925 H   0  0  0  0  0  0  0  0  0  0  0  0
   -7.7851   -3.6398    1.8150 H   0  0  0  0  0  0  0  0  0  0  0  0
   -7.3140   -1.2643    0.6462 H   0  0  0  0  0  0  0  0  0  0  0  0
   -7.5685   -1.5926    2.4422 H   0  0  0  0  0  0  0  0  0  0  0  0
   -6.2138   -0.5444    1.8470 H   0  0  0  0  0  0  0  0  0  0  0  0
   -4.2078   -3.3828    2.5411 H   0  0  0  0  0  0  0  0  0  0  0  0
   -5.0138   -1.9431    3.3734 H   0  0  0  0  0  0  0  0  0  0  0  0
   -5.7548   -3.5687    3.4247 H   0  0  0  0  0  0  0  0  0  0  0  0
   -4.0582    3.0426   -0.4329 H   0  0  0  0  0  0  0  0  0  0  0  0
  1  2  1  0
  2  3  1  0
  3  4  2  0
  4  5  1  0
  5  6  1  0
  6  7  1  0
  5  8  2  0
  8  9  1  0
  9 10  1  0
 10 11  2  0
 11 12  1  0
 12 13  2  0
 13 14  1  0
 14 15  2  0
 15 16  1  0
 16 17  1  0
 17 18  1  0
 18 19  1  0
 19 20  1  0
 20 21  1  0
 21 22  1  0
 22 23  1  0
 23 24  1  0
 23 25  1  0
 25 26  1  0
 15 27  1  0
 27 28  2  0
 28 29  1  0
 29 30  2  0
 30 31  1  0
 31 32  1  0
 32 33  2  0
 32 34  1  0
 34 35  1  0
 35 36  1  0
 35 37  1  0
 35 38  1  0
  9 39  2  0
 39  3  1  0
 30 10  1  0
 28 12  1  0
 26 20  1  0
  1 40  1  0
  1 41  1  0
  1 42  1  0
  4 43  1  0
  7 44  1  0
  7 45  1  0
  7 46  1  0
  8 47  1  0
 11 48  1  0
 13 49  1  0
 16 50  1  0
 17 51  1  0
 17 52  1  0
 18 53  1  0
 18 54  1  0
 19 55  1  0
 19 56  1  0
 21 57  1  0
 21 58  1  0
 22 59  1  0
 22 60  1  0
 24 61  1  0
 24 62  1  0
 24 63  1  0
 25 64  1  0
 25 65  1  0
 26 66  1  0
 26 67  1  0
 27 68  1  0
 31 69  1  0
 34 70  1  0
 36 71  1  0
 36 72  1  0
 36 73  1  0
 37 74  1  0
 37 75  1  0
 37 76  1  0
 38 77  1  0
 38 78  1  0
 38 79  1  0
 39 80  1  0
M  END
$$$$
