@<TRIPOS>MOLECULE
*****
 34 36 0 0 0
SMALL
GASTEIGER

@<TRIPOS>ATOM
      1 C4*        -2.2917   -1.1122    0.4521 C.3     1    I1        0.1126
      2 C5*        -3.1179   -1.9225   -0.5357 C.3     1    I1        0.0730
      3 O5*        -3.2043   -1.2771   -1.7629 O.3     1    I1       -0.3924
      4 O4*        -0.9895   -0.8976    0.0155 O.3     1    I1       -0.3455
      5 C1*        -0.6629    0.3096    0.6167 C.3     1    I1        0.1703
      6 N9          0.6256    0.8243    0.3096 N.ar    1    I1       -0.2479
      7 C8          0.9926    2.1167    0.1593 C.ar    1    I1        0.1038
      8 N7          2.3009    2.2148   -0.1294 N.ar    1    I1       -0.2294
      9 C5          2.7863    0.9776   -0.1666 C.ar    1    I1        0.1794
     10 C4          1.7467    0.1112    0.1059 C.ar    1    I1        0.3141
     11 N3          2.0353   -1.2955    0.1206 N.2     1    I1       -0.1814
     12 C2          3.2184   -1.7699   -0.1095 C.2     1    I1        0.2353
     13 N1          4.2986   -0.8906   -0.3915 N.pl3   1    I1       -0.2673
     14 C6          4.1895    0.5390   -0.4464 C.3     1    I1        0.1743
     15 O6          4.5683    1.0645   -1.6584 O.3     1    I1       -0.3684
     16 C2*        -1.8150    1.1569    0.1042 C.3     1    I1        0.1287
     17 O2*        -1.8630    2.4096    0.6969 O.3     1    I1       -0.3847
     18 C3*        -2.9489    0.2424    0.5911 C.3     1    I1        0.1135
     19 O3*        -3.0822    0.5924    1.9540 O.3     1    I1       -0.3864
     20 H4*        -2.2226   -1.6331    1.4161 H       1    I1        0.0647
     21 H5*1       -2.7529   -2.9635   -0.5998 H       1    I1        0.0584
     22 H5*2       -4.1462   -1.9405   -0.1015 H       1    I1        0.0584
     23 H5*        -4.0949   -0.8722   -1.9199 H       1    I1        0.2095
     24 H1*        -0.8347    0.1629    1.7062 H       1    I1        0.0868
     25 H8          0.3592    2.9945    0.2483 H       1    I1        0.1031
     26 H3          1.2490   -1.9743    0.3281 H       1    I1        0.4558
     27 H2          3.3917   -2.8417   -0.0882 H       1    I1        0.1567
     28 H1          5.2481   -1.2628   -0.5766 H       1    I1        0.1537
     29 H6          4.8625    0.9696    0.3475 H       1    I1        0.0878
     30 H6          3.9473    0.7504   -2.3527 H       1    I1        0.2122
     31 H2*        -1.8909    1.1728   -0.9998 H       1    I1        0.0665
     32 H2*        -2.0320    3.0486   -0.0402 H       1    I1        0.2101
     33 H3*        -3.8698    0.3661    0.0248 H       1    I1        0.0647
     34 H3*        -4.0007    0.6297    2.2598 H       1    I1        0.2100
@<TRIPOS>UNITY_ATOM_ATTR
11 1
charge 1
@<TRIPOS>BOND
     1     1     2    1
     2     2     3    1
     3     1     4    1
     4     4     5    1
     5     5     6    1
     6     6     7   ar
     7     7     8   ar
     8     8     9   ar
     9     9    10   ar
    10    10    11    1
    11    11    12    2
    12    12    13    1
    13    13    14    1
    14    14    15    1
    15     5    16    1
    16    16    17    1
    17    16    18    1
    18    18    19    1
    19    18     1    1
    20    10     6   ar
    21    14     9    1
    22     1    20    1
    23     2    21    1
    24     2    22    1
    25     3    23    1
    26     5    24    1
    27     7    25    1
    28    11    26    1
    29    12    27    1
    30    13    28    1
    31    14    29    1
    32    15    30    1
    33    16    31    1
    34    17    32    1
    35    18    33    1
    36    19    34    1
