
     RDKit          3D

 63 68  0  0  0  0  0  0  0  0999 V2000
   -7.7692   -2.3907   -1.1686 C   0  0  0  0  0  0  0  0  0  0  0  0
   -6.4200   -2.1064   -0.7998 N   0  0  0  0  0  0  0  0  0  0  0  0
   -5.7780   -2.9153    0.2170 C   0  0  0  0  0  0  0  0  0  0  0  0
   -5.6729   -1.0402   -1.4053 C   0  0  0  0  0  0  0  0  0  0  0  0
   -6.2005   -0.3211   -2.2892 O   0  0  0  0  0  0  0  0  0  0  0  0
   -4.2986   -0.7642   -1.0191 C   0  0  0  0  0  0  0  0  0  0  0  0
   -3.1920   -1.3499   -1.6455 C   0  0  0  0  0  0  0  0  0  0  0  0
   -2.0296   -0.9068   -1.0611 C   0  0  0  0  0  0  0  0  0  0  0  0
   -0.6880   -1.1847   -1.3080 C   0  0  0  0  0  0  0  0  0  0  0  0
    0.2144   -0.5659   -0.5264 N   0  0  0  0  0  0  0  0  0  0  0  0
   -0.1438    0.2903    0.4592 C   0  0  0  0  0  0  0  0  0  0  0  0
    0.8210    0.9339    1.2740 N   0  0  0  0  0  0  0  0  0  0  0  0
    2.1997    0.6513    1.0250 C   0  0  0  0  0  0  0  0  0  0  0  0
    3.2083    1.2347    1.7717 C   0  0  0  0  0  0  0  0  0  0  0  0
    4.5336    0.9447    1.5112 C   0  0  0  0  0  0  0  0  0  0  0  0
    4.8945    0.0718    0.5073 C   0  0  0  0  0  0  0  0  0  0  0  0
    6.2487   -0.2439    0.2186 N   0  0  0  0  0  0  0  0  0  0  0  0
    6.7581   -1.1357   -0.7974 C   0  0  0  0  0  0  0  0  0  0  0  0
    8.1652   -0.6941   -1.0385 C   0  0  0  0  0  0  0  0  0  0  0  0
    8.4777    0.7398   -1.3308 C   0  0  0  0  0  0  0  0  0  0  0  0
    8.5684    0.2070    0.0423 C   0  0  0  0  0  0  0  0  0  0  0  0
    9.8757    0.0643    0.6777 N   0  0  0  0  0  0  0  0  0  0  0  0
    7.3774    0.3096    0.9364 C   0  0  0  0  0  0  0  0  0  0  0  0
    3.8614   -0.4934   -0.2195 C   0  0  0  0  0  0  0  0  0  0  0  0
    2.5780   -0.1955    0.0529 N   0  0  0  0  0  0  0  0  0  0  0  0
   -1.4307    0.5230    0.6558 N   0  0  0  0  0  0  0  0  0  0  0  0
   -2.4190   -0.0449   -0.0711 C   0  0  0  0  0  0  0  0  0  0  0  0
   -3.7854    0.0258   -0.0643 N   0  0  0  0  0  0  0  0  0  0  0  0
   -4.4718    0.8530    0.8698 C   0  0  0  0  0  0  0  0  0  0  0  0
   -5.8740    1.2021    0.5852 C   0  0  0  0  0  0  0  0  0  0  0  0
   -5.7895    2.3640   -0.3791 C   0  0  0  0  0  0  0  0  0  0  0  0
   -4.7815    3.2345    0.3953 C   0  0  0  0  0  0  0  0  0  0  0  0
   -3.7802    2.2104    0.9386 C   0  0  0  0  0  0  0  0  0  0  0  0
   -8.4258   -2.2000   -0.2756 H   0  0  0  0  0  0  0  0  0  0  0  0
   -8.1430   -1.7720   -1.9907 H   0  0  0  0  0  0  0  0  0  0  0  0
   -7.8465   -3.4886   -1.3913 H   0  0  0  0  0  0  0  0  0  0  0  0
   -6.2264   -3.9255    0.2894 H   0  0  0  0  0  0  0  0  0  0  0  0
   -5.7529   -2.3839    1.1865 H   0  0  0  0  0  0  0  0  0  0  0  0
   -4.7161   -3.0863   -0.1032 H   0  0  0  0  0  0  0  0  0  0  0  0
   -3.2459   -2.0470   -2.4668 H   0  0  0  0  0  0  0  0  0  0  0  0
   -0.3992   -1.8678   -2.0942 H   0  0  0  0  0  0  0  0  0  0  0  0
    0.5111    1.5836    2.0189 H   0  0  0  0  0  0  0  0  0  0  0  0
    2.9318    1.9286    2.5703 H   0  0  0  0  0  0  0  0  0  0  0  0
    5.3335    1.3929    2.0862 H   0  0  0  0  0  0  0  0  0  0  0  0
    6.8019   -2.1913   -0.4235 H   0  0  0  0  0  0  0  0  0  0  0  0
    6.1488   -1.0823   -1.7313 H   0  0  0  0  0  0  0  0  0  0  0  0
    8.9211   -1.4550   -1.3515 H   0  0  0  0  0  0  0  0  0  0  0  0
    7.6286    1.4108   -1.5626 H   0  0  0  0  0  0  0  0  0  0  0  0
    9.3896    0.9192   -1.9341 H   0  0  0  0  0  0  0  0  0  0  0  0
    9.7453   -0.4797    1.5747 H   0  0  0  0  0  0  0  0  0  0  0  0
   10.5350   -0.4533    0.0504 H   0  0  0  0  0  0  0  0  0  0  0  0
    7.5058   -0.2683    1.8818 H   0  0  0  0  0  0  0  0  0  0  0  0
    7.1739    1.3699    1.2042 H   0  0  0  0  0  0  0  0  0  0  0  0
    4.1355   -1.1867   -1.0175 H   0  0  0  0  0  0  0  0  0  0  0  0
   -4.3457    0.3554    1.8887 H   0  0  0  0  0  0  0  0  0  0  0  0
   -6.5724    0.4249    0.3197 H   0  0  0  0  0  0  0  0  0  0  0  0
   -6.2854    1.6483    1.5487 H   0  0  0  0  0  0  0  0  0  0  0  0
   -5.3185    2.0668   -1.3133 H   0  0  0  0  0  0  0  0  0  0  0  0
   -6.7397    2.8987   -0.4630 H   0  0  0  0  0  0  0  0  0  0  0  0
   -4.3428    3.9280   -0.3198 H   0  0  0  0  0  0  0  0  0  0  0  0
   -5.2743    3.7360    1.2455 H   0  0  0  0  0  0  0  0  0  0  0  0
   -3.4714    2.4309    1.9644 H   0  0  0  0  0  0  0  0  0  0  0  0
   -2.9135    2.2863    0.2505 H   0  0  0  0  0  0  0  0  0  0  0  0
  1  2  1  0
  2  3  1  0
  2  4  1  0
  4  5  2  0
  4  6  1  0
  6  7  2  0
  7  8  1  0
  8  9  2  0
  9 10  1  0
 10 11  2  0
 11 12  1  0
 12 13  1  0
 13 14  2  0
 14 15  1  0
 15 16  2  0
 16 17  1  0
 17 18  1  0
 18 19  1  0
 19 20  1  0
 20 21  1  0
 21 22  1  0
 21 23  1  0
 16 24  1  0
 24 25  2  0
 11 26  1  0
 26 27  2  0
 27 28  1  0
 28 29  1  0
 29 30  1  0
 30 31  1  0
 31 32  1  0
 32 33  1  0
 28  6  1  0
 33 29  1  0
 27  8  1  0
 25 13  1  0
 23 17  1  0
 21 19  1  0
  1 34  1  0
  1 35  1  0
  1 36  1  0
  3 37  1  0
  3 38  1  0
  3 39  1  0
  7 40  1  0
  9 41  1  0
 12 42  1  0
 14 43  1  0
 15 44  1  0
 18 45  1  0
 18 46  1  0
 19 47  1  0
 20 48  1  0
 20 49  1  0
 22 50  1  0
 22 51  1  0
 23 52  1  0
 23 53  1  0
 24 54  1  0
 29 55  1  0
 30 56  1  0
 30 57  1  0
 31 58  1  0
 31 59  1  0
 32 60  1  0
 32 61  1  0
 33 62  1  0
 33 63  1  0
M  END
$$$$
