@<TRIPOS>MOLECULE
*****
 63 68 0 0 0
SMALL
GASTEIGER

@<TRIPOS>ATOM
      1 C          -7.7692   -2.3907   -1.1686 C.3     1  UNL1        0.0032
      2 N          -6.4200   -2.1064   -0.7998 N.am    1  UNL1       -0.3024
      3 C          -5.7780   -2.9153    0.2170 C.3     1  UNL1        0.0032
      4 C          -5.6729   -1.0402   -1.4053 C.2     1  UNL1        0.2627
      5 O          -6.2005   -0.3211   -2.2892 O.2     1  UNL1       -0.2684
      6 C          -4.2986   -0.7642   -1.0191 C.ar    1  UNL1        0.1070
      7 C          -3.1920   -1.3499   -1.6455 C.ar    1  UNL1       -0.0209
      8 C          -2.0296   -0.9068   -1.0611 C.ar    1  UNL1        0.0378
      9 C          -0.6880   -1.1847   -1.3080 C.ar    1  UNL1        0.0419
     10 N           0.2144   -0.5659   -0.5264 N.ar    1  UNL1       -0.2219
     11 C          -0.1438    0.2903    0.4592 C.ar    1  UNL1        0.2224
     12 N           0.8210    0.9339    1.2740 N.pl3   1  UNL1       -0.2684
     13 C           2.1997    0.6513    1.0250 C.ar    1  UNL1        0.1251
     14 C           3.2083    1.2347    1.7717 C.ar    1  UNL1       -0.0198
     15 C           4.5336    0.9447    1.5112 C.ar    1  UNL1       -0.0359
     16 C           4.8945    0.0718    0.5073 C.ar    1  UNL1        0.0482
     17 N           6.2487   -0.2439    0.2186 N.pl3   1  UNL1       -0.3266
     18 C           6.7581   -1.1357   -0.7974 C.3     1  UNL1        0.0169
     19 C           8.1652   -0.6941   -1.0385 C.3     1  UNL1       -0.0040
     20 C           8.4777    0.7398   -1.3308 C.3     1  UNL1       -0.0271
     21 C           8.5684    0.2070    0.0423 C.3     1  UNL1        0.0370
     22 N           9.8757    0.0643    0.6777 N.3     1  UNL1       -0.3231
     23 C           7.3774    0.3096    0.9364 C.3     1  UNL1        0.0306
     24 C           3.8614   -0.4934   -0.2195 C.ar    1  UNL1        0.0507
     25 N           2.5780   -0.1955    0.0529 N.ar    1  UNL1       -0.2383
     26 N          -1.4307    0.5230    0.6558 N.ar    1  UNL1       -0.1962
     27 C          -2.4190   -0.0449   -0.0711 C.ar    1  UNL1        0.1466
     28 N          -3.7854    0.0258   -0.0643 N.ar    1  UNL1       -0.3180
     29 C          -4.4718    0.8530    0.8698 C.3     1  UNL1        0.0366
     30 C          -5.8740    1.2021    0.5852 C.3     1  UNL1       -0.0320
     31 C          -5.7895    2.3640   -0.3791 C.3     1  UNL1       -0.0511
     32 C          -4.7815    3.2345    0.3953 C.3     1  UNL1       -0.0511
     33 C          -3.7802    2.2104    0.9386 C.3     1  UNL1       -0.0320
     34 H          -8.4258   -2.2000   -0.2756 H       1  UNL1        0.0428
     35 H          -8.1430   -1.7720   -1.9907 H       1  UNL1        0.0428
     36 H          -7.8465   -3.4886   -1.3913 H       1  UNL1        0.0428
     37 H          -6.2264   -3.9255    0.2894 H       1  UNL1        0.0428
     38 H          -5.7529   -2.3839    1.1865 H       1  UNL1        0.0428
     39 H          -4.7161   -3.0863   -0.1032 H       1  UNL1        0.0428
     40 H          -3.2459   -2.0470   -2.4668 H       1  UNL1        0.0647
     41 H          -0.3992   -1.8678   -2.0942 H       1  UNL1        0.0838
     42 H           0.5111    1.5836    2.0189 H       1  UNL1        0.1564
     43 H           2.9318    1.9286    2.5703 H       1  UNL1        0.0652
     44 H           5.3335    1.3929    2.0862 H       1  UNL1        0.0638
     45 H           6.8019   -2.1913   -0.4235 H       1  UNL1        0.0467
     46 H           6.1488   -1.0823   -1.7313 H       1  UNL1        0.0467
     47 H           8.9211   -1.4550   -1.3515 H       1  UNL1        0.0335
     48 H           7.6286    1.4108   -1.5626 H       1  UNL1        0.0287
     49 H           9.3896    0.9192   -1.9341 H       1  UNL1        0.0287
     50 H           9.7453   -0.4797    1.5747 H       1  UNL1        0.1188
     51 H          10.5350   -0.4533    0.0504 H       1  UNL1        0.1188
     52 H           7.5058   -0.2683    1.8818 H       1  UNL1        0.0482
     53 H           7.1739    1.3699    1.2042 H       1  UNL1        0.0482
     54 H           4.1355   -1.1867   -1.0175 H       1  UNL1        0.0849
     55 H          -4.3457    0.3554    1.8887 H       1  UNL1        0.0528
     56 H          -6.5724    0.4249    0.3197 H       1  UNL1        0.0285
     57 H          -6.2854    1.6483    1.5487 H       1  UNL1        0.0285
     58 H          -5.3185    2.0668   -1.3133 H       1  UNL1        0.0266
     59 H          -6.7397    2.8987   -0.4630 H       1  UNL1        0.0266
     60 H          -4.3428    3.9280   -0.3198 H       1  UNL1        0.0266
     61 H          -5.2743    3.7360    1.2455 H       1  UNL1        0.0266
     62 H          -3.4714    2.4309    1.9644 H       1  UNL1        0.0285
     63 H          -2.9135    2.2863    0.2505 H       1  UNL1        0.0285
@<TRIPOS>BOND
     1     1     2    1
     2     2     3    1
     3     2     4   am
     4     4     5    2
     5     4     6    1
     6     6     7   ar
     7     7     8   ar
     8     8     9   ar
     9     9    10   ar
    10    10    11   ar
    11    11    12    1
    12    12    13    1
    13    13    14   ar
    14    14    15   ar
    15    15    16   ar
    16    16    17    1
    17    17    18    1
    18    18    19    1
    19    19    20    1
    20    20    21    1
    21    21    22    1
    22    21    23    1
    23    16    24   ar
    24    24    25   ar
    25    11    26   ar
    26    26    27   ar
    27    27    28   ar
    28    28    29    1
    29    29    30    1
    30    30    31    1
    31    31    32    1
    32    32    33    1
    33    28     6   ar
    34    33    29    1
    35    27     8   ar
    36    25    13   ar
    37    23    17    1
    38    21    19    1
    39     1    34    1
    40     1    35    1
    41     1    36    1
    42     3    37    1
    43     3    38    1
    44     3    39    1
    45     7    40    1
    46     9    41    1
    47    12    42    1
    48    14    43    1
    49    15    44    1
    50    18    45    1
    51    18    46    1
    52    19    47    1
    53    20    48    1
    54    20    49    1
    55    22    50    1
    56    22    51    1
    57    23    52    1
    58    23    53    1
    59    24    54    1
    60    29    55    1
    61    30    56    1
    62    30    57    1
    63    31    58    1
    64    31    59    1
    65    32    60    1
    66    32    61    1
    67    33    62    1
    68    33    63    1
