@<TRIPOS>MOLECULE
*****
 44 45 0 0 0
SMALL
GASTEIGER

@<TRIPOS>ATOM
      1 C          -1.2438    3.6441    1.1977 C.3     1  UNL1       -0.0130
      2 N          -0.5516    2.7889    0.2211 N.3     1  UNL1       -0.3077
      3 C          -0.7803    3.3611   -1.0945 C.3     1  UNL1       -0.0130
      4 C          -1.0990    1.4715    0.3751 C.3     1  UNL1        0.0078
      5 C          -0.5293    0.4269   -0.5212 C.3     1  UNL1        0.0257
      6 C          -1.2253   -0.8686   -0.2150 C.ar    1  UNL1       -0.0401
      7 C          -1.7672   -1.6492   -1.2176 C.ar    1  UNL1       -0.0547
      8 C          -2.4197   -2.8392   -0.9930 C.ar    1  UNL1       -0.0199
      9 C          -2.5345   -3.2691    0.3094 C.ar    1  UNL1        0.1169
     10 O          -3.1864   -4.4656    0.5768 O.3     1  UNL1       -0.5068
     11 C          -2.0157   -2.5369    1.3578 C.ar    1  UNL1       -0.0199
     12 C          -1.3651   -1.3393    1.0710 C.ar    1  UNL1       -0.0547
     13 C           0.9836    0.2985   -0.4178 C.3     1  UNL1        0.0740
     14 O           1.4630    1.5645   -0.7794 O.3     1  UNL1       -0.3879
     15 C           1.5261   -0.6543   -1.4510 C.3     1  UNL1       -0.0234
     16 C           2.5129   -1.6340   -0.9232 C.3     1  UNL1       -0.0504
     17 C           3.4238   -1.1724    0.1523 C.3     1  UNL1       -0.0529
     18 C           3.0081    0.1020    0.8438 C.3     1  UNL1       -0.0504
     19 C           1.4776    0.0048    0.9634 C.3     1  UNL1       -0.0234
     20 H          -1.4553    3.0715    2.1277 H       1  UNL1        0.0391
     21 H          -2.2233    3.9844    0.8244 H       1  UNL1        0.0391
     22 H          -0.5980    4.4936    1.5067 H       1  UNL1        0.0391
     23 H          -1.1032    2.6538   -1.8552 H       1  UNL1        0.0391
     24 H           0.1409    3.8806   -1.4412 H       1  UNL1        0.0391
     25 H          -1.5604    4.1755   -1.0450 H       1  UNL1        0.0391
     26 H          -1.0124    1.1793    1.4251 H       1  UNL1        0.0433
     27 H          -2.1901    1.5696    0.0982 H       1  UNL1        0.0433
     28 H          -0.6922    0.6753   -1.6127 H       1  UNL1        0.0389
     29 H          -1.7019   -1.3519   -2.2556 H       1  UNL1        0.0622
     30 H          -2.8394   -3.4357   -1.8164 H       1  UNL1        0.0654
     31 H          -3.9987   -4.4777    1.1756 H       1  UNL1        0.2921
     32 H          -2.1132   -2.8869    2.3782 H       1  UNL1        0.0654
     33 H          -0.9766   -0.7930    1.9184 H       1  UNL1        0.0622
     34 H           1.7095    2.1386   -0.0390 H       1  UNL1        0.2102
     35 H           0.6562   -1.2327   -1.8391 H       1  UNL1        0.0293
     36 H           1.9341   -0.1350   -2.3486 H       1  UNL1        0.0293
     37 H           3.1728   -1.9409   -1.7884 H       1  UNL1        0.0266
     38 H           1.9980   -2.6023   -0.6576 H       1  UNL1        0.0266
     39 H           3.4209   -1.9557    0.9667 H       1  UNL1        0.0265
     40 H           4.4810   -1.0524   -0.1347 H       1  UNL1        0.0265
     41 H           3.3165    0.9246    0.1846 H       1  UNL1        0.0266
     42 H           3.4937    0.1459    1.8351 H       1  UNL1        0.0266
     43 H           1.2959   -1.0418    1.2802 H       1  UNL1        0.0293
     44 H           1.1681    0.7795    1.6567 H       1  UNL1        0.0293
@<TRIPOS>BOND
     1     1     2    1
     2     2     3    1
     3     2     4    1
     4     4     5    1
     5     5     6    1
     6     6     7   ar
     7     7     8   ar
     8     8     9   ar
     9     9    10    1
    10     9    11   ar
    11    11    12   ar
    12     5    13    1
    13    13    14    1
    14    13    15    1
    15    15    16    1
    16    16    17    1
    17    17    18    1
    18    18    19    1
    19    12     6   ar
    20    19    13    1
    21     1    20    1
    22     1    21    1
    23     1    22    1
    24     3    23    1
    25     3    24    1
    26     3    25    1
    27     4    26    1
    28     4    27    1
    29     5    28    1
    30     7    29    1
    31     8    30    1
    32    10    31    1
    33    11    32    1
    34    12    33    1
    35    14    34    1
    36    15    35    1
    37    15    36    1
    38    16    37    1
    39    16    38    1
    40    17    39    1
    41    17    40    1
    42    18    41    1
    43    18    42    1
    44    19    43    1
    45    19    44    1
