@<TRIPOS>MOLECULE
*****
 50 50 0 0 0
SMALL
GASTEIGER

@<TRIPOS>ATOM
      1 CD1         4.9489    1.8841    0.9788 C.3     1  LEU1       -0.0626
      2 CG          4.7839    1.7437   -0.5406 C.3     1  LEU1       -0.0447
      3 CD2         5.2238    3.0282   -1.1623 C.3     1  LEU1       -0.0626
      4 CB          3.3499    1.4886   -0.8646 C.3     1  LEU1       -0.0255
      5 CA          2.8174    0.2394   -0.2729 C.3     1  LEU1        0.0787
      6 C           3.5224   -0.9837   -0.7467 C.2     1  LEU1        0.1404
      7 O           4.6797   -1.2065   -0.6118 O.2     1  LEU1       -0.2991
      8 N           1.3854    0.1041   -0.5446 N.am    1  LEU1       -0.3046
      9 C           0.4880   -0.4847    0.3812 C.2     0  UNK0        0.2325
     10 O           1.0586   -0.8863    1.4648 O.2     0  UNK0       -0.2740
     11 C          -0.9547   -0.6660    0.2147 C.3     0  UNK0        0.1070
     12 N          -1.3929   -1.6184    1.2291 N.3     0  UNK0       -0.1778
     13 S          -2.1775   -2.9874    0.6003 S.O2    0  UNK0        0.0591
     14 O          -1.2800   -3.7936   -0.2687 O.2     0  UNK0       -0.1530
     15 O          -2.5818   -3.8592    1.7720 O.2     0  UNK0       -0.1530
     16 C          -3.6476   -2.5274   -0.2681 C.ar    0  UNK0        0.1054
     17 C          -3.6352   -2.2774   -1.6159 C.ar    0  UNK0       -0.0326
     18 C          -4.7933   -1.9207   -2.2791 C.ar    0  UNK0       -0.0246
     19 C          -5.9650   -1.8192   -1.5697 C.ar    0  UNK0        0.1235
     20 F          -7.0931   -1.4698   -2.2169 F       0  UNK0       -0.2055
     21 C          -6.0093   -2.0674   -0.1919 C.ar    0  UNK0       -0.0246
     22 C          -4.8247   -2.4186    0.4251 C.ar    0  UNK0       -0.0326
     23 C          -1.6670    0.6645    0.4515 C.3     0  UNK0       -0.0212
     24 C          -1.1845    1.6970   -0.5101 C.3     0  UNK0       -0.0607
     25 C          -1.5027    1.1156    1.8838 C.3     0  UNK0       -0.0607
     26 HD11        5.9365    2.2990    1.2421 H       1  LEU1        0.0232
     27 HD12        4.1692    2.6053    1.3043 H       1  LEU1        0.0232
     28 HD13        4.7661    0.9023    1.4651 H       1  LEU1        0.0232
     29 HG          5.4517    0.9265   -0.9129 H       1  LEU1        0.0296
     30 HD21        5.4612    2.9248   -2.2466 H       1  LEU1        0.0232
     31 HD22        4.4233    3.7910   -1.0565 H       1  LEU1        0.0232
     32 HD23        6.1442    3.3867   -0.6646 H       1  LEU1        0.0232
     33 HB1         2.7563    2.3373   -0.4046 H       1  LEU1        0.0290
     34 HB2         3.1903    1.4964   -1.9662 H       1  LEU1        0.0290
     35 HA          2.9245    0.2326    0.8335 H       1  LEU1        0.0574
     36 H           2.8960   -1.7350   -1.2645 H       1  LEU1        0.1046
     37 H           0.9941    0.4420   -1.4551 H       1  LEU1        0.1494
     38 H          -1.2337   -1.0345   -0.7579 H       0  UNK0        0.0575
     39 H          -1.8123   -1.2013    2.0619 H       0  UNK0        0.1489
     40 H          -2.7030   -2.3658   -2.1374 H       0  UNK0        0.0638
     41 H          -4.7883   -1.7239   -3.3609 H       0  UNK0        0.0647
     42 H          -6.9417   -1.9852    0.3501 H       0  UNK0        0.0647
     43 H          -4.8309   -2.6193    1.5138 H       0  UNK0        0.0638
     44 H          -2.7616    0.5377    0.2713 H       0  UNK0        0.0316
     45 H          -1.1629    1.3464   -1.5471 H       0  UNK0        0.0233
     46 H          -0.1853    2.0962   -0.2000 H       0  UNK0        0.0233
     47 H          -1.8695    2.5984   -0.5205 H       0  UNK0        0.0233
     48 H          -2.4760    1.0732    2.3866 H       0  UNK0        0.0233
     49 H          -0.7285    0.5196    2.4168 H       0  UNK0        0.0233
     50 H          -1.1685    2.1707    1.8943 H       0  UNK0        0.0233
@<TRIPOS>BOND
     1     1     2    1
     2     2     3    1
     3     2     4    1
     4     4     5    1
     5     5     6    1
     6     6     7    2
     7     5     8    1
     8     8     9   am
     9     9    10    2
    10     9    11    1
    11    11    12    1
    12    12    13    1
    13    13    14    2
    14    13    15    2
    15    13    16    1
    16    16    17   ar
    17    17    18   ar
    18    18    19   ar
    19    19    20    1
    20    19    21   ar
    21    21    22   ar
    22    11    23    1
    23    23    24    1
    24    23    25    1
    25    22    16   ar
    26     1    26    1
    27     1    27    1
    28     1    28    1
    29     2    29    1
    30     3    30    1
    31     3    31    1
    32     3    32    1
    33     4    33    1
    34     4    34    1
    35     5    35    1
    36     6    36    1
    37     8    37    1
    38    11    38    1
    39    12    39    1
    40    17    40    1
    41    18    41    1
    42    21    42    1
    43    22    43    1
    44    23    44    1
    45    24    45    1
    46    24    46    1
    47    24    47    1
    48    25    48    1
    49    25    49    1
    50    25    50    1
