
     RDKit          3D

 50 50  0  0  0  0  0  0  0  0999 V2000
    4.9489    1.8841    0.9788 C   0  0  0  0  0  0  0  0  0  0  0  0
    4.7839    1.7437   -0.5406 C   0  0  0  0  0  0  0  0  0  0  0  0
    5.2238    3.0282   -1.1623 C   0  0  0  0  0  0  0  0  0  0  0  0
    3.3499    1.4886   -0.8646 C   0  0  0  0  0  0  0  0  0  0  0  0
    2.8174    0.2394   -0.2729 C   0  0  2  0  0  0  0  0  0  0  0  0
    3.5224   -0.9837   -0.7467 C   0  0  0  0  0  0  0  0  0  0  0  0
    4.6797   -1.2065   -0.6118 O   0  0  0  0  0  0  0  0  0  0  0  0
    1.3854    0.1041   -0.5446 N   0  0  0  0  0  0  0  0  0  0  0  0
    0.4880   -0.4847    0.3812 C   0  0  0  0  0  0  0  0  0  0  0  0
    1.0586   -0.8863    1.4648 O   0  0  0  0  0  0  0  0  0  0  0  0
   -0.9547   -0.6660    0.2147 C   0  0  1  0  0  0  0  0  0  0  0  0
   -1.3929   -1.6184    1.2291 N   0  0  0  0  0  0  0  0  0  0  0  0
   -2.1775   -2.9874    0.6003 S   0  0  0  0  0  6  0  0  0  0  0  0
   -1.2800   -3.7936   -0.2687 O   0  0  0  0  0  0  0  0  0  0  0  0
   -2.5818   -3.8592    1.7720 O   0  0  0  0  0  0  0  0  0  0  0  0
   -3.6476   -2.5274   -0.2681 C   0  0  0  0  0  0  0  0  0  0  0  0
   -3.6352   -2.2774   -1.6159 C   0  0  0  0  0  0  0  0  0  0  0  0
   -4.7933   -1.9207   -2.2791 C   0  0  0  0  0  0  0  0  0  0  0  0
   -5.9650   -1.8192   -1.5697 C   0  0  0  0  0  0  0  0  0  0  0  0
   -7.0931   -1.4698   -2.2169 F   0  0  0  0  0  0  0  0  0  0  0  0
   -6.0093   -2.0674   -0.1919 C   0  0  0  0  0  0  0  0  0  0  0  0
   -4.8247   -2.4186    0.4251 C   0  0  0  0  0  0  0  0  0  0  0  0
   -1.6670    0.6645    0.4515 C   0  0  0  0  0  0  0  0  0  0  0  0
   -1.1845    1.6970   -0.5101 C   0  0  0  0  0  0  0  0  0  0  0  0
   -1.5027    1.1156    1.8838 C   0  0  0  0  0  0  0  0  0  0  0  0
    5.9365    2.2990    1.2421 H   0  0  0  0  0  0  0  0  0  0  0  0
    4.1692    2.6053    1.3043 H   0  0  0  0  0  0  0  0  0  0  0  0
    4.7661    0.9023    1.4651 H   0  0  0  0  0  0  0  0  0  0  0  0
    5.4517    0.9265   -0.9129 H   0  0  0  0  0  0  0  0  0  0  0  0
    5.4612    2.9248   -2.2466 H   0  0  0  0  0  0  0  0  0  0  0  0
    4.4233    3.7910   -1.0565 H   0  0  0  0  0  0  0  0  0  0  0  0
    6.1442    3.3867   -0.6646 H   0  0  0  0  0  0  0  0  0  0  0  0
    2.7563    2.3373   -0.4046 H   0  0  0  0  0  0  0  0  0  0  0  0
    3.1903    1.4964   -1.9662 H   0  0  0  0  0  0  0  0  0  0  0  0
    2.9245    0.2326    0.8335 H   0  0  0  0  0  0  0  0  0  0  0  0
    2.8960   -1.7350   -1.2645 H   0  0  0  0  0  0  0  0  0  0  0  0
    0.9941    0.4420   -1.4551 H   0  0  0  0  0  0  0  0  0  0  0  0
   -1.2337   -1.0345   -0.7579 H   0  0  0  0  0  0  0  0  0  0  0  0
   -1.8123   -1.2013    2.0619 H   0  0  0  0  0  0  0  0  0  0  0  0
   -2.7030   -2.3658   -2.1374 H   0  0  0  0  0  0  0  0  0  0  0  0
   -4.7883   -1.7239   -3.3609 H   0  0  0  0  0  0  0  0  0  0  0  0
   -6.9417   -1.9852    0.3501 H   0  0  0  0  0  0  0  0  0  0  0  0
   -4.8309   -2.6193    1.5138 H   0  0  0  0  0  0  0  0  0  0  0  0
   -2.7616    0.5377    0.2713 H   0  0  0  0  0  0  0  0  0  0  0  0
   -1.1629    1.3464   -1.5471 H   0  0  0  0  0  0  0  0  0  0  0  0
   -0.1853    2.0962   -0.2000 H   0  0  0  0  0  0  0  0  0  0  0  0
   -1.8695    2.5984   -0.5205 H   0  0  0  0  0  0  0  0  0  0  0  0
   -2.4760    1.0732    2.3866 H   0  0  0  0  0  0  0  0  0  0  0  0
   -0.7285    0.5196    2.4168 H   0  0  0  0  0  0  0  0  0  0  0  0
   -1.1685    2.1707    1.8943 H   0  0  0  0  0  0  0  0  0  0  0  0
  1  2  1  0
  2  3  1  0
  2  4  1  0
  4  5  1  0
  5  6  1  0
  6  7  2  0
  5  8  1  0
  8  9  1  0
  9 10  2  0
  9 11  1  0
 11 12  1  0
 12 13  1  0
 13 14  2  0
 13 15  2  0
 13 16  1  0
 16 17  2  0
 17 18  1  0
 18 19  2  0
 19 20  1  0
 19 21  1  0
 21 22  2  0
 11 23  1  0
 23 24  1  0
 23 25  1  0
 22 16  1  0
  1 26  1  0
  1 27  1  0
  1 28  1  0
  2 29  1  0
  3 30  1  0
  3 31  1  0
  3 32  1  0
  4 33  1  0
  4 34  1  0
  5 35  1  1
  6 36  1  0
  8 37  1  0
 11 38  1  6
 12 39  1  0
 17 40  1  0
 18 41  1  0
 21 42  1  0
 22 43  1  0
 23 44  1  0
 24 45  1  0
 24 46  1  0
 24 47  1  0
 25 48  1  0
 25 49  1  0
 25 50  1  0
M  END
$$$$
