@<TRIPOS>MOLECULE
*****
 51 55 0 0 0
SMALL
GASTEIGER

@<TRIPOS>ATOM
      1 C           5.3385    4.3668   -0.2775 C.3     1  UNL1       -0.0224
      2 C           4.7486    3.0033   -0.2433 C.ar    1  UNL1        0.0382
      3 C           5.1922    2.0196   -1.1069 C.ar    1  UNL1       -0.0401
      4 C           4.6648    0.7337   -1.1037 C.ar    1  UNL1       -0.0509
      5 C           3.6612    0.4081   -0.2134 C.ar    1  UNL1        0.0003
      6 C           3.0682   -0.9250   -0.1606 C.ar    1  UNL1       -0.0145
      7 C           3.8152   -2.0443   -0.4589 C.ar    1  UNL1       -0.0504
      8 C           3.2859   -3.3137   -0.4155 C.ar    1  UNL1       -0.0175
      9 C           1.9785   -3.4764   -0.0660 C.ar    1  UNL1        0.1419
     10 C           1.2133   -2.3690    0.2365 C.ar    1  UNL1        0.0783
     11 C           1.7393   -1.0818    0.1947 C.ar    1  UNL1       -0.0289
     12 N          -0.1479   -2.5351    0.6142 N.pl3   1  UNL1       -0.2732
     13 C          -1.0880   -1.5402    0.3094 C.ar    1  UNL1        0.1661
     14 N          -1.5444   -0.4697    0.5641 N.ar    1  UNL1       -0.2286
     15 C          -2.5265    0.1766    0.0218 C.ar    1  UNL1        0.0647
     16 C          -3.1738   -0.4574   -1.0308 C.ar    1  UNL1        0.0983
     17 S          -2.2442   -2.0073   -1.1367 S.2     1  UNL1       -0.0470
     18 C          -4.3190    0.0699   -1.7638 C.2     1  UNL1        0.2530
     19 O          -4.8431   -0.5794   -2.7133 O.2     1  UNL1       -0.2696
     20 N          -4.8370    1.3694   -1.3645 N.am    1  UNL1       -0.3055
     21 C          -4.5187    1.6638    0.0369 C.3     1  UNL1        0.0347
     22 C          -4.9098    3.1067    0.2825 C.3     1  UNL1       -0.0436
     23 C          -5.3606    0.8132    0.9652 C.3     1  UNL1       -0.0436
     24 C          -3.0654    1.5443    0.3520 C.3     1  UNL1        0.0118
     25 C          -0.5219   -3.7712    1.3177 C.3     1  UNL1        0.0533
     26 C           0.2795   -4.9563    0.9081 C.3     1  UNL1        0.1057
     27 O           1.3275   -4.7002    0.0154 O.3     1  UNL1       -0.4885
     28 C           3.2317    1.4026    0.6401 C.ar    1  UNL1        0.0356
     29 N           3.7717    2.6487    0.6076 N.ar    1  UNL1       -0.2596
     30 H           5.0427    4.9171    0.6277 H       1  UNL1        0.0292
     31 H           6.4647    4.2898   -0.3103 H       1  UNL1        0.0292
     32 H           5.0480    4.8544   -1.2138 H       1  UNL1        0.0292
     33 H           5.9876    2.2902   -1.8082 H       1  UNL1        0.0636
     34 H           5.0108   -0.0320   -1.7778 H       1  UNL1        0.0625
     35 H           4.8692   -1.8918   -0.7373 H       1  UNL1        0.0625
     36 H           3.8810   -4.1742   -0.6518 H       1  UNL1        0.0655
     37 H           1.1066   -0.2610    0.4341 H       1  UNL1        0.0643
     38 H          -5.3434    1.9536   -2.0031 H       1  UNL1        0.1496
     39 H          -5.7172    3.2100    1.0247 H       1  UNL1        0.0250
     40 H          -5.2727    3.6126   -0.6543 H       1  UNL1        0.0250
     41 H          -4.0571    3.7265    0.6395 H       1  UNL1        0.0250
     42 H          -4.8865   -0.1869    1.0921 H       1  UNL1        0.0250
     43 H          -6.3481    0.6697    0.5215 H       1  UNL1        0.0250
     44 H          -5.3890    1.3506    1.9430 H       1  UNL1        0.0250
     45 H          -2.4978    2.2627   -0.2798 H       1  UNL1        0.0349
     46 H          -2.9061    1.8254    1.3905 H       1  UNL1        0.0349
     47 H          -1.6085   -3.9642    1.1980 H       1  UNL1        0.0502
     48 H          -0.3655   -3.5394    2.4007 H       1  UNL1        0.0502
     49 H          -0.4168   -5.7430    0.5129 H       1  UNL1        0.0712
     50 H           0.7436   -5.4061    1.8286 H       1  UNL1        0.0712
     51 H           2.4385    1.1362    1.3384 H       1  UNL1        0.0836
@<TRIPOS>BOND
     1     1     2    1
     2     2     3   ar
     3     3     4   ar
     4     4     5   ar
     5     5     6    1
     6     6     7   ar
     7     7     8   ar
     8     8     9   ar
     9     9    10   ar
    10    10    11   ar
    11    10    12    1
    12    12    13    1
    13    13    14   ar
    14    14    15   ar
    15    15    16   ar
    16    16    17   ar
    17    16    18    1
    18    18    19    2
    19    18    20   am
    20    20    21    1
    21    21    22    1
    22    21    23    1
    23    21    24    1
    24    12    25    1
    25    25    26    1
    26    26    27    1
    27     5    28   ar
    28    28    29   ar
    29    29     2   ar
    30    11     6   ar
    31    17    13   ar
    32    27     9    1
    33    24    15    1
    34     1    30    1
    35     1    31    1
    36     1    32    1
    37     3    33    1
    38     4    34    1
    39     7    35    1
    40     8    36    1
    41    11    37    1
    42    20    38    1
    43    22    39    1
    44    22    40    1
    45    22    41    1
    46    23    42    1
    47    23    43    1
    48    23    44    1
    49    24    45    1
    50    24    46    1
    51    25    47    1
    52    25    48    1
    53    26    49    1
    54    26    50    1
    55    28    51    1
