@<TRIPOS>MOLECULE
*****
 20 19 0 0 0
SMALL
GASTEIGER

@<TRIPOS>ATOM
      1 N          -0.7357   -2.2424   -0.0295 N.3     1  UNL1       -0.3240
      2 C          -0.2534   -0.8845   -0.2470 C.3     1  UNL1        0.0236
      3 C           0.2604   -0.2918    1.0596 C.3     1  UNL1       -0.0241
      4 C           0.7799    1.1170    0.8723 C.3     1  UNL1        0.0465
      5 C           1.9076    1.1543   -0.0944 C.2     1  UNL1        0.3048
      6 O           2.9075    1.2671   -1.0487 O.3     1  UNL1       -0.4806
      7 O           2.7354    0.2658    0.3346 O.2     1  UNL1       -0.2510
      8 C          -1.4871   -0.1013   -0.6556 C.2     1  UNL1       -0.0745
      9 C          -2.5485    0.7218   -0.7247 C.2     1  UNL1       -0.1012
     10 H           0.0032   -2.9507    0.0781 H       1  UNL1        0.1188
     11 H          -1.3876   -2.4621   -0.8186 H       1  UNL1        0.1188
     12 H           0.4344   -0.7898   -1.0964 H       1  UNL1        0.0502
     13 H           1.0578   -0.9263    1.4419 H       1  UNL1        0.0288
     14 H          -0.5916   -0.2908    1.7674 H       1  UNL1        0.0288
     15 H           1.1797    1.4916    1.8404 H       1  UNL1        0.0378
     16 H          -0.0081    1.8389    0.5483 H       1  UNL1        0.0378
     17 H           2.6279    1.0489   -2.0177 H       1  UNL1        0.2951
     18 H          -1.8661   -0.3165   -1.6520 H       1  UNL1        0.0582
     19 H          -2.7733    1.3564    0.1390 H       1  UNL1        0.0532
     20 H          -2.2424    0.9946    0.3031 H       1  UNL1        0.0532
@<TRIPOS>BOND
     1     1     2    1
     2     2     3    1
     3     3     4    1
     4     4     5    1
     5     5     6    1
     6     5     7    2
     7     2     8    1
     8     8     9    2
     9     1    10    1
    10     1    11    1
    11     2    12    1
    12     3    13    1
    13     3    14    1
    14     4    15    1
    15     4    16    1
    16     6    17    1
    17     8    18    1
    18     9    19    1
    19     9    20    1
