
     RDKit          3D

 20 19  0  0  0  0  0  0  0  0999 V2000
   -0.7357   -2.2424   -0.0295 N   0  0  0  0  0  0  0  0  0  0  0  0
   -0.2534   -0.8845   -0.2470 C   0  0  0  0  0  0  0  0  0  0  0  0
    0.2604   -0.2918    1.0596 C   0  0  0  0  0  0  0  0  0  0  0  0
    0.7799    1.1170    0.8723 C   0  0  0  0  0  0  0  0  0  0  0  0
    1.9076    1.1543   -0.0944 C   0  0  0  0  0  0  0  0  0  0  0  0
    2.9075    1.2671   -1.0487 O   0  0  0  0  0  0  0  0  0  0  0  0
    2.7354    0.2658    0.3346 O   0  0  0  0  0  0  0  0  0  0  0  0
   -1.4871   -0.1013   -0.6556 C   0  0  0  0  0  0  0  0  0  0  0  0
   -2.5485    0.7218   -0.7247 C   0  0  0  0  0  0  0  0  0  0  0  0
    0.0032   -2.9507    0.0781 H   0  0  0  0  0  0  0  0  0  0  0  0
   -1.3876   -2.4621   -0.8186 H   0  0  0  0  0  0  0  0  0  0  0  0
    0.4344   -0.7898   -1.0964 H   0  0  0  0  0  0  0  0  0  0  0  0
    1.0578   -0.9263    1.4419 H   0  0  0  0  0  0  0  0  0  0  0  0
   -0.5916   -0.2908    1.7674 H   0  0  0  0  0  0  0  0  0  0  0  0
    1.1797    1.4916    1.8404 H   0  0  0  0  0  0  0  0  0  0  0  0
   -0.0081    1.8389    0.5483 H   0  0  0  0  0  0  0  0  0  0  0  0
    2.6279    1.0489   -2.0177 H   0  0  0  0  0  0  0  0  0  0  0  0
   -1.8661   -0.3165   -1.6520 H   0  0  0  0  0  0  0  0  0  0  0  0
   -2.7733    1.3564    0.1390 H   0  0  0  0  0  0  0  0  0  0  0  0
   -2.2424    0.9946    0.3031 H   0  0  0  0  0  0  0  0  0  0  0  0
  1  2  1  0
  2  3  1  0
  3  4  1  0
  4  5  1  0
  5  6  1  0
  5  7  2  0
  2  8  1  0
  8  9  2  0
  1 10  1  0
  1 11  1  0
  2 12  1  0
  3 13  1  0
  3 14  1  0
  4 15  1  0
  4 16  1  0
  6 17  1  0
  8 18  1  0
  9 19  1  0
  9 20  1  0
M  END
$$$$
