
     RDKit          3D

 65 69  0  0  0  0  0  0  0  0999 V2000
   -3.7224   -0.0445    0.9906 C   0  0  0  0  0  0  0  0  0  0  0  0
   -4.0072    0.7910   -0.1862 C   0  0  0  0  0  0  0  0  0  0  0  0
   -3.6006    0.4092   -1.4383 C   0  0  0  0  0  0  0  0  0  0  0  0
   -2.8987   -0.7755   -1.7360 N   0  0  0  0  0  0  0  0  0  0  0  0
   -3.3206   -2.0998   -1.4965 C   0  0  0  0  0  0  0  0  0  0  0  0
   -4.4275   -2.6412   -2.1510 C   0  0  0  0  0  0  0  0  0  0  0  0
   -5.1409   -1.8463   -3.0584 C   0  0  0  0  0  0  0  0  0  0  0  0
   -5.7260   -1.1641   -3.8175 N   0  0  0  0  0  0  0  0  0  0  0  0
   -4.7429   -3.9526   -1.8523 C   0  0  0  0  0  0  0  0  0  0  0  0
   -4.0273   -4.6727   -0.9807 N   0  0  0  0  0  0  0  0  0  0  0  0
   -2.9483   -4.1618   -0.3363 C   0  0  0  0  0  0  0  0  0  0  0  0
   -2.5827   -2.8524   -0.5958 C   0  0  0  0  0  0  0  0  0  0  0  0
   -1.3851   -2.2758    0.0334 C   0  0  0  0  0  0  0  0  0  0  0  0
   -0.6479   -2.8384    0.9542 C   0  0  0  0  0  0  0  0  0  0  0  0
    0.5323   -2.2403    1.5499 C   0  0  0  0  0  0  0  0  0  0  0  0
    1.1833   -2.9070    2.5698 C   0  0  0  0  0  0  0  0  0  0  0  0
    2.3231   -2.4182    3.1753 C   0  0  0  0  0  0  0  0  0  0  0  0
    2.8662   -1.1958    2.7576 C   0  0  0  0  0  0  0  0  0  0  0  0
    2.2238   -0.5421    1.7526 C   0  0  0  0  0  0  0  0  0  0  0  0
    2.8036    0.9726    1.1343 S   0  0  0  0  0  6  0  0  0  0  0  0
    1.7074    1.6723    0.3307 O   0  0  0  0  0  0  0  0  0  0  0  0
    3.1809    1.8963    2.2206 O   0  0  0  0  0  0  0  0  0  0  0  0
    4.0729    0.6691    0.0259 N   0  0  0  0  0  0  0  0  0  0  0  0
    5.2121    0.0248    0.5598 C   0  0  0  0  0  0  0  0  0  0  0  0
    6.3840    0.1877   -0.3841 C   0  0  0  0  0  0  0  0  0  0  0  0
    6.7920    1.5639   -0.3954 N   0  0  0  0  0  0  0  0  0  0  0  0
    7.7404    1.8951    0.6615 C   0  0  0  0  0  0  0  0  0  0  0  0
    5.6396    2.4540   -0.3392 C   0  0  0  0  0  0  0  0  0  0  0  0
    4.3696    1.7867   -0.7773 C   0  0  0  0  0  0  0  0  0  0  0  0
    1.0668   -1.0538    1.1503 C   0  0  0  0  0  0  0  0  0  0  0  0
   -3.9368    1.2938   -2.4826 C   0  0  0  0  0  0  0  0  0  0  0  0
   -4.6241    2.4661   -2.2839 C   0  0  0  0  0  0  0  0  0  0  0  0
   -5.0174    2.8190   -1.0140 C   0  0  0  0  0  0  0  0  0  0  0  0
   -5.6912    3.8711   -0.5004 N   0  0  0  0  0  0  0  0  0  0  0  0
   -5.8353    3.7612    0.8307 C   0  0  0  0  0  0  0  0  0  0  0  0
   -5.2060    2.5509    1.1674 C   0  0  0  0  0  0  0  0  0  0  0  0
   -4.7088    1.9862    0.0155 C   0  0  0  0  0  0  0  0  0  0  0  0
   -2.6726   -0.0640    1.2940 H   0  0  0  0  0  0  0  0  0  0  0  0
   -4.2035   -1.0369    0.8654 H   0  0  0  0  0  0  0  0  0  0  0  0
   -4.2593    0.3766    1.8957 H   0  0  0  0  0  0  0  0  0  0  0  0
   -1.9570   -0.6747   -2.1831 H   0  0  0  0  0  0  0  0  0  0  0  0
   -5.6048   -4.3510   -2.3805 H   0  0  0  0  0  0  0  0  0  0  0  0
   -2.3827   -4.7773    0.3676 H   0  0  0  0  0  0  0  0  0  0  0  0
   -1.0703   -1.2844   -0.2837 H   0  0  0  0  0  0  0  0  0  0  0  0
   -0.9467   -3.8274    1.2977 H   0  0  0  0  0  0  0  0  0  0  0  0
    0.7855   -3.8654    2.9184 H   0  0  0  0  0  0  0  0  0  0  0  0
    2.8513   -2.9204    3.9711 H   0  0  0  0  0  0  0  0  0  0  0  0
    3.7579   -0.8135    3.2391 H   0  0  0  0  0  0  0  0  0  0  0  0
    5.0190   -1.0740    0.6579 H   0  0  0  0  0  0  0  0  0  0  0  0
    5.4799    0.3576    1.5907 H   0  0  0  0  0  0  0  0  0  0  0  0
    6.0807   -0.1114   -1.3942 H   0  0  0  0  0  0  0  0  0  0  0  0
    7.2223   -0.4787   -0.0303 H   0  0  0  0  0  0  0  0  0  0  0  0
    8.4702    2.6017    0.1952 H   0  0  0  0  0  0  0  0  0  0  0  0
    7.2603    2.4451    1.4878 H   0  0  0  0  0  0  0  0  0  0  0  0
    8.1904    0.9573    1.0144 H   0  0  0  0  0  0  0  0  0  0  0  0
    5.5622    2.8378    0.6848 H   0  0  0  0  0  0  0  0  0  0  0  0
    5.9099    3.3005   -1.0366 H   0  0  0  0  0  0  0  0  0  0  0  0
    4.4966    1.5286   -1.8648 H   0  0  0  0  0  0  0  0  0  0  0  0
    3.5410    2.5196   -0.6569 H   0  0  0  0  0  0  0  0  0  0  0  0
    0.6044   -0.4860    0.3609 H   0  0  0  0  0  0  0  0  0  0  0  0
   -3.6401    1.0386   -3.4858 H   0  0  0  0  0  0  0  0  0  0  0  0
   -4.8864    3.1495   -3.0772 H   0  0  0  0  0  0  0  0  0  0  0  0
   -6.0472    4.6683   -1.0626 H   0  0  0  0  0  0  0  0  0  0  0  0
   -6.3197    4.4297    1.5123 H   0  0  0  0  0  0  0  0  0  0  0  0
   -5.1416    2.1650    2.1704 H   0  0  0  0  0  0  0  0  0  0  0  0
  1  2  1  0
  2  3  2  0
  3  4  1  0
  4  5  1  0
  5  6  2  0
  6  7  1  0
  7  8  3  0
  6  9  1  0
  9 10  2  0
 10 11  1  0
 11 12  2  0
 12 13  1  0
 13 14  2  0
 14 15  1  0
 15 16  2  0
 16 17  1  0
 17 18  2  0
 18 19  1  0
 19 20  1  0
 20 21  2  0
 20 22  2  0
 20 23  1  0
 23 24  1  0
 24 25  1  0
 25 26  1  0
 26 27  1  0
 26 28  1  0
 28 29  1  0
 19 30  2  0
  3 31  1  0
 31 32  2  0
 32 33  1  0
 33 34  1  0
 34 35  1  0
 35 36  2  0
 36 37  1  0
 37  2  1  0
 12  5  1  0
 30 15  1  0
 37 33  2  0
 29 23  1  0
  1 38  1  0
  1 39  1  0
  1 40  1  0
  4 41  1  0
  9 42  1  0
 11 43  1  0
 13 44  1  0
 14 45  1  0
 16 46  1  0
 17 47  1  0
 18 48  1  0
 24 49  1  0
 24 50  1  0
 25 51  1  0
 25 52  1  0
 27 53  1  0
 27 54  1  0
 27 55  1  0
 28 56  1  0
 28 57  1  0
 29 58  1  0
 29 59  1  0
 30 60  1  0
 31 61  1  0
 32 62  1  0
 34 63  1  0
 35 64  1  0
 36 65  1  0
M  END
$$$$
