@<TRIPOS>MOLECULE
*****
 65 69 0 0 0
SMALL
GASTEIGER

@<TRIPOS>ATOM
      1 C          -3.7224   -0.0445    0.9906 C.3     1  UNL1       -0.0373
      2 C          -4.0072    0.7910   -0.1862 C.ar    1  UNL1       -0.0202
      3 C          -3.6006    0.4092   -1.4383 C.ar    1  UNL1        0.0350
      4 N          -2.8987   -0.7755   -1.7360 N.pl3   1  UNL1       -0.3127
      5 C          -3.3206   -2.0998   -1.4965 C.ar    1  UNL1        0.0591
      6 C          -4.4275   -2.6412   -2.1510 C.ar    1  UNL1        0.0914
      7 C          -5.1409   -1.8463   -3.0584 C.1     1  UNL1        0.1026
      8 N          -5.7260   -1.1641   -3.8175 N.1     1  UNL1       -0.1908
      9 C          -4.7429   -3.9526   -1.8523 C.ar    1  UNL1        0.0467
     10 N          -4.0273   -4.6727   -0.9807 N.ar    1  UNL1       -0.2613
     11 C          -2.9483   -4.1618   -0.3363 C.ar    1  UNL1        0.0365
     12 C          -2.5827   -2.8524   -0.5958 C.ar    1  UNL1        0.0155
     13 C          -1.3851   -2.2758    0.0334 C.2     1  UNL1       -0.0508
     14 C          -0.6479   -2.8384    0.9542 C.2     1  UNL1       -0.0539
     15 C           0.5323   -2.2403    1.5499 C.ar    1  UNL1       -0.0232
     16 C           1.1833   -2.9070    2.5698 C.ar    1  UNL1       -0.0545
     17 C           2.3231   -2.4182    3.1753 C.ar    1  UNL1       -0.0594
     18 C           2.8662   -1.1958    2.7576 C.ar    1  UNL1       -0.0353
     19 C           2.2238   -0.5421    1.7526 C.ar    1  UNL1        0.1060
     20 S           2.8036    0.9726    1.1343 S.O2    1  UNL1        0.0609
     21 O           1.7074    1.6723    0.3307 O.2     1  UNL1       -0.1528
     22 O           3.1809    1.8963    2.2206 O.2     1  UNL1       -0.1528
     23 N           4.0729    0.6691    0.0259 N.3     1  UNL1       -0.1741
     24 C           5.2121    0.0248    0.5598 C.3     1  UNL1        0.0333
     25 C           6.3840    0.1877   -0.3841 C.3     1  UNL1        0.0131
     26 N           6.7920    1.5639   -0.3954 N.3     1  UNL1       -0.3028
     27 C           7.7404    1.8951    0.6615 C.3     1  UNL1       -0.0127
     28 C           5.6396    2.4540   -0.3392 C.3     1  UNL1        0.0131
     29 C           4.3696    1.7867   -0.7773 C.3     1  UNL1        0.0333
     30 C           1.0668   -1.0538    1.1503 C.ar    1  UNL1       -0.0282
     31 C          -3.9368    1.2938   -2.4826 C.ar    1  UNL1       -0.0383
     32 C          -4.6241    2.4661   -2.2839 C.ar    1  UNL1       -0.0360
     33 C          -5.0174    2.8190   -1.0140 C.ar    1  UNL1        0.0468
     34 N          -5.6912    3.8711   -0.5004 N.ar    1  UNL1       -0.3606
     35 C          -5.8353    3.7612    0.8307 C.ar    1  UNL1        0.0027
     36 C          -5.2060    2.5509    1.1674 C.ar    1  UNL1       -0.0364
     37 C          -4.7088    1.9862    0.0155 C.ar    1  UNL1        0.0043
     38 H          -2.6726   -0.0640    1.2940 H       1  UNL1        0.0278
     39 H          -4.2035   -1.0369    0.8654 H       1  UNL1        0.0278
     40 H          -4.2593    0.3766    1.8957 H       1  UNL1        0.0278
     41 H          -1.9570   -0.6747   -2.1831 H       1  UNL1        0.1522
     42 H          -5.6048   -4.3510   -2.3805 H       1  UNL1        0.0843
     43 H          -2.3827   -4.7773    0.3676 H       1  UNL1        0.0836
     44 H          -1.0703   -1.2844   -0.2837 H       1  UNL1        0.0625
     45 H          -0.9467   -3.8274    1.2977 H       1  UNL1        0.0624
     46 H           0.7855   -3.8654    2.9184 H       1  UNL1        0.0623
     47 H           2.8513   -2.9204    3.9711 H       1  UNL1        0.0618
     48 H           3.7579   -0.8135    3.2391 H       1  UNL1        0.0637
     49 H           5.0190   -1.0740    0.6579 H       1  UNL1        0.0456
     50 H           5.4799    0.3576    1.5907 H       1  UNL1        0.0456
     51 H           6.0807   -0.1114   -1.3942 H       1  UNL1        0.0439
     52 H           7.2223   -0.4787   -0.0303 H       1  UNL1        0.0439
     53 H           8.4702    2.6017    0.1952 H       1  UNL1        0.0391
     54 H           7.2603    2.4451    1.4878 H       1  UNL1        0.0391
     55 H           8.1904    0.9573    1.0144 H       1  UNL1        0.0391
     56 H           5.5622    2.8378    0.6848 H       1  UNL1        0.0439
     57 H           5.9099    3.3005   -1.0366 H       1  UNL1        0.0439
     58 H           4.4966    1.5286   -1.8648 H       1  UNL1        0.0456
     59 H           3.5410    2.5196   -0.6569 H       1  UNL1        0.0456
     60 H           0.6044   -0.4860    0.3609 H       1  UNL1        0.0643
     61 H          -3.6401    1.0386   -3.4858 H       1  UNL1        0.0637
     62 H          -4.8864    3.1495   -3.0772 H       1  UNL1        0.0639
     63 H          -6.0472    4.6683   -1.0626 H       1  UNL1        0.1653
     64 H          -6.3197    4.4297    1.5123 H       1  UNL1        0.0807
     65 H          -5.1416    2.1650    2.1704 H       1  UNL1        0.0639
@<TRIPOS>BOND
     1     1     2    1
     2     2     3   ar
     3     3     4    1
     4     4     5    1
     5     5     6   ar
     6     6     7    1
     7     7     8    3
     8     6     9   ar
     9     9    10   ar
    10    10    11   ar
    11    11    12   ar
    12    12    13    1
    13    13    14    2
    14    14    15    1
    15    15    16   ar
    16    16    17   ar
    17    17    18   ar
    18    18    19   ar
    19    19    20    1
    20    20    21    2
    21    20    22    2
    22    20    23    1
    23    23    24    1
    24    24    25    1
    25    25    26    1
    26    26    27    1
    27    26    28    1
    28    28    29    1
    29    19    30   ar
    30     3    31   ar
    31    31    32   ar
    32    32    33   ar
    33    33    34   ar
    34    34    35   ar
    35    35    36   ar
    36    36    37   ar
    37    37     2   ar
    38    12     5   ar
    39    30    15   ar
    40    37    33   ar
    41    29    23    1
    42     1    38    1
    43     1    39    1
    44     1    40    1
    45     4    41    1
    46     9    42    1
    47    11    43    1
    48    13    44    1
    49    14    45    1
    50    16    46    1
    51    17    47    1
    52    18    48    1
    53    24    49    1
    54    24    50    1
    55    25    51    1
    56    25    52    1
    57    27    53    1
    58    27    54    1
    59    27    55    1
    60    28    56    1
    61    28    57    1
    62    29    58    1
    63    29    59    1
    64    30    60    1
    65    31    61    1
    66    32    62    1
    67    34    63    1
    68    35    64    1
    69    36    65    1
