@<TRIPOS>MOLECULE
*****
 33 34 0 0 0
SMALL
GASTEIGER

@<TRIPOS>ATOM
      1 C           5.4691   -0.3248    0.4154 C.3     1  UNL1       -0.0652
      2 C           4.4553    0.7037    0.8558 C.3     1  UNL1       -0.0528
      3 C           3.2082    0.4704   -0.0170 C.3     1  UNL1       -0.0189
      4 C           2.7821   -0.9463    0.2793 C.3     1  UNL1        0.0896
      5 O           1.6742   -1.3577   -0.3912 O.3     1  UNL1       -0.4920
      6 C           0.4115   -0.9057   -0.2974 C.ar    1  UNL1        0.1205
      7 C          -0.0381    0.0636    0.5365 C.ar    1  UNL1       -0.0193
      8 C          -1.3907    0.4461    0.5288 C.ar    1  UNL1       -0.0491
      9 C          -2.3132   -0.1223   -0.2987 C.ar    1  UNL1        0.0007
     10 C          -3.7249    0.2447   -0.3387 C.ar    1  UNL1        0.0741
     11 C          -4.2279    1.2169    0.4815 C.ar    1  UNL1       -0.0175
     12 C          -5.5831    1.5443    0.4184 C.ar    1  UNL1        0.0313
     13 N          -6.3474    0.8888   -0.4503 N.ar    1  UNL1       -0.2437
     14 C          -5.8522   -0.0614   -1.2507 C.ar    1  UNL1        0.1166
     15 N          -4.5700   -0.3807   -1.2005 N.ar    1  UNL1       -0.2354
     16 C          -1.8367   -1.1243   -1.1557 C.ar    1  UNL1       -0.0491
     17 C          -0.5257   -1.4992   -1.1531 C.ar    1  UNL1       -0.0193
     18 H           6.4646    0.1584    0.4823 H       1  UNL1        0.0230
     19 H           5.4057   -1.2612    0.9946 H       1  UNL1        0.0230
     20 H           5.3137   -0.5895   -0.6516 H       1  UNL1        0.0230
     21 H           4.1858    0.6038    1.9133 H       1  UNL1        0.0264
     22 H           4.8243    1.7180    0.6117 H       1  UNL1        0.0264
     23 H           2.4329    1.1895    0.1487 H       1  UNL1        0.0298
     24 H           3.5603    0.5263   -1.0952 H       1  UNL1        0.0298
     25 H           3.6206   -1.6655    0.0807 H       1  UNL1        0.0696
     26 H           2.6794   -0.9806    1.4077 H       1  UNL1        0.0696
     27 H           0.5911    0.5670    1.2495 H       1  UNL1        0.0654
     28 H          -1.7088    1.2368    1.2218 H       1  UNL1        0.0625
     29 H          -3.5987    1.7504    1.1905 H       1  UNL1        0.0654
     30 H          -5.9946    2.3104    1.0603 H       1  UNL1        0.0831
     31 H          -6.5611   -0.5520   -1.9400 H       1  UNL1        0.1047
     32 H          -2.5863   -1.5782   -1.8196 H       1  UNL1        0.0625
     33 H          -0.2194   -2.2895   -1.8490 H       1  UNL1        0.0654
@<TRIPOS>BOND
     1     1     2    1
     2     2     3    1
     3     3     4    1
     4     4     5    1
     5     5     6    1
     6     6     7   ar
     7     7     8   ar
     8     8     9   ar
     9     9    10    1
    10    10    11   ar
    11    11    12   ar
    12    12    13   ar
    13    13    14   ar
    14    14    15   ar
    15     9    16   ar
    16    16    17   ar
    17    17     6   ar
    18    15    10   ar
    19     1    18    1
    20     1    19    1
    21     1    20    1
    22     2    21    1
    23     2    22    1
    24     3    23    1
    25     3    24    1
    26     4    25    1
    27     4    26    1
    28     7    27    1
    29     8    28    1
    30    11    29    1
    31    12    30    1
    32    14    31    1
    33    16    32    1
    34    17    33    1
