
     RDKit          3D

 41 43  0  0  0  0  0  0  0  0999 V2000
    2.1756   -2.2126   -1.8938 C   0  0  0  0  0  0  0  0  0  0  0  0
    2.2167   -0.6871   -1.9532 C   0  0  0  0  0  0  0  0  0  0  0  0
    2.3780   -0.1156   -0.6403 N   0  0  0  0  0  0  0  0  0  0  0  0
    3.6226    0.1237   -0.1343 C   0  0  0  0  0  0  0  0  0  0  0  0
    3.7925    0.6701    1.1203 C   0  0  0  0  0  0  0  0  0  0  0  0
    5.1400    0.9105    1.6250 C   0  0  0  0  0  0  0  0  0  0  0  0
    6.2612    0.6052    0.8785 O   0  0  0  0  0  0  0  0  0  0  0  0
    5.3402    1.4025    2.7533 O   0  0  0  0  0  0  0  0  0  0  0  0
    2.7179    1.0010    1.9243 C   0  0  0  0  0  0  0  0  0  0  0  0
    2.8978    1.4902    3.0466 O   0  0  0  0  0  0  0  0  0  0  0  0
    1.4755    0.7521    1.3960 C   0  0  0  0  0  0  0  0  0  0  0  0
    0.3832    1.0727    2.1766 C   0  0  0  0  0  0  0  0  0  0  0  0
   -0.8962    0.8502    1.7107 C   0  0  0  0  0  0  0  0  0  0  0  0
   -1.9522    1.1734    2.4959 F   0  0  0  0  0  0  0  0  0  0  0  0
   -1.0782    0.3042    0.4573 C   0  0  0  0  0  0  0  0  0  0  0  0
    0.0355   -0.0059   -0.2999 C   0  0  0  0  0  0  0  0  0  0  0  0
    1.3271    0.2039    0.1363 C   0  0  0  0  0  0  0  0  0  0  0  0
   -2.3776    0.0562   -0.0670 N   0  0  0  0  0  0  0  0  0  0  0  0
   -3.2251   -0.8419    0.6608 C   0  0  0  0  0  0  0  0  0  0  0  0
   -4.5440   -1.1018    0.0167 C   0  0  0  0  0  0  0  0  0  0  0  0
   -5.2112    0.0774   -0.4648 N   0  0  0  0  0  0  0  0  0  0  0  0
   -4.3359    1.1668   -0.8087 C   0  0  0  0  0  0  0  0  0  0  0  0
   -3.0287    0.5757   -1.2650 C   0  0  0  0  0  0  0  0  0  0  0  0
    1.3023   -2.5670   -1.3379 H   0  0  0  0  0  0  0  0  0  0  0  0
    2.1297   -2.5455   -2.9658 H   0  0  0  0  0  0  0  0  0  0  0  0
    3.1542   -2.5007   -1.4419 H   0  0  0  0  0  0  0  0  0  0  0  0
    3.1708   -0.4660   -2.5171 H   0  0  0  0  0  0  0  0  0  0  0  0
    1.4281   -0.2482   -2.5630 H   0  0  0  0  0  0  0  0  0  0  0  0
    4.4906   -0.1205   -0.7304 H   0  0  0  0  0  0  0  0  0  0  0  0
    7.1047    1.1762    0.8794 H   0  0  0  0  0  0  0  0  0  0  0  0
    0.5043    1.5008    3.1602 H   0  0  0  0  0  0  0  0  0  0  0  0
   -0.1362   -0.4272   -1.2659 H   0  0  0  0  0  0  0  0  0  0  0  0
   -3.3031   -0.5126    1.7179 H   0  0  0  0  0  0  0  0  0  0  0  0
   -2.6983   -1.8261    0.7163 H   0  0  0  0  0  0  0  0  0  0  0  0
   -4.4634   -1.8196   -0.8109 H   0  0  0  0  0  0  0  0  0  0  0  0
   -5.2095   -1.5650    0.7903 H   0  0  0  0  0  0  0  0  0  0  0  0
   -5.8688   -0.0965   -1.2311 H   0  0  0  0  0  0  0  0  0  0  0  0
   -4.8271    1.7739   -1.5973 H   0  0  0  0  0  0  0  0  0  0  0  0
   -4.2262    1.8237    0.0728 H   0  0  0  0  0  0  0  0  0  0  0  0
   -3.2757   -0.2956   -1.9043 H   0  0  0  0  0  0  0  0  0  0  0  0
   -2.3908    1.2449   -1.8424 H   0  0  0  0  0  0  0  0  0  0  0  0
  1  2  1  0
  2  3  1  0
  3  4  1  0
  4  5  2  0
  5  6  1  0
  6  7  1  0
  6  8  2  0
  5  9  1  0
  9 10  2  0
  9 11  1  0
 11 12  2  0
 12 13  1  0
 13 14  1  0
 13 15  2  0
 15 16  1  0
 16 17  2  0
 15 18  1  0
 18 19  1  0
 19 20  1  0
 20 21  1  0
 21 22  1  0
 22 23  1  0
 17  3  1  0
 23 18  1  0
 17 11  1  0
  1 24  1  0
  1 25  1  0
  1 26  1  0
  2 27  1  0
  2 28  1  0
  4 29  1  0
  7 30  1  0
 12 31  1  0
 16 32  1  0
 19 33  1  0
 19 34  1  0
 20 35  1  0
 20 36  1  0
 21 37  1  0
 22 38  1  0
 22 39  1  0
 23 40  1  0
 23 41  1  0
M  END
$$$$
