@<TRIPOS>MOLECULE
*****
 52 55 0 0 0
SMALL
GASTEIGER

@<TRIPOS>ATOM
      1 N           3.0600    4.2027    2.1223 N.am    1  UNL1       -0.3253
      2 C           1.7011    4.4397    1.8003 C.2     1  UNL1        0.2441
      3 O           1.2031    5.5491    2.0849 O.2     1  UNL1       -0.2703
      4 C           0.8586    3.4464    1.1517 C.ar    1  UNL1        0.0689
      5 C          -0.4681    3.7260    0.8644 C.ar    1  UNL1        0.0429
      6 N          -1.1375    2.7496    0.2731 N.ar    1  UNL1       -0.2389
      7 C          -0.7023    1.5343   -0.0816 C.ar    1  UNL1        0.1299
      8 N          -1.6097    0.6301   -0.7683 N.pl3   1  UNL1       -0.3083
      9 C          -1.5919    0.5078   -2.1878 C.3     1  UNL1        0.0370
     10 C          -1.1251   -0.7509   -2.8071 C.3     1  UNL1        0.0599
     11 O          -1.1967   -0.6742   -4.2323 O.3     1  UNL1       -0.3935
     12 C          -2.5262   -0.1126    0.0356 C.3     1  UNL1        0.0374
     13 C          -3.9887    0.1720   -0.3070 C.3     1  UNL1       -0.0320
     14 C          -4.7891   -0.9408    0.3634 C.3     1  UNL1       -0.0387
     15 C          -4.1281   -1.2326    1.6866 C.3     1  UNL1       -0.0040
     16 N          -2.9231   -1.9935    1.4345 N.3     1  UNL1       -0.3142
     17 C          -2.2846   -1.5772    0.1774 C.3     1  UNL1        0.0145
     18 C           0.6293    1.1930    0.1844 C.ar    1  UNL1        0.0304
     19 C           1.3081    0.0556   -0.0500 C.ar    1  UNL1       -0.0359
     20 C           2.5929   -0.0758    0.2954 C.ar    1  UNL1        0.0206
     21 C           3.5260   -1.1967    0.1448 C.ar    1  UNL1       -0.0113
     22 C           3.0840   -2.3361   -0.4361 C.ar    1  UNL1       -0.0535
     23 C           4.0138   -3.3763   -0.5560 C.ar    1  UNL1       -0.0612
     24 C           5.3059   -3.2470   -0.1079 C.ar    1  UNL1       -0.0617
     25 C           5.7419   -2.0790    0.4822 C.ar    1  UNL1       -0.0612
     26 C           4.8162   -1.0511    0.5987 C.ar    1  UNL1       -0.0535
     27 S           2.9980    1.4631    1.0226 S.2     1  UNL1       -0.0873
     28 C           1.3680    2.1938    0.8058 C.ar    1  UNL1        0.0367
     29 H           3.6911    3.9302    1.3485 H       1  UNL1        0.1453
     30 H           3.3431    4.3171    3.1192 H       1  UNL1        0.1453
     31 H          -0.9130    4.6548    1.1012 H       1  UNL1        0.0838
     32 H          -1.0307    1.4010   -2.6322 H       1  UNL1        0.0487
     33 H          -2.6347    0.6889   -2.6261 H       1  UNL1        0.0487
     34 H          -0.0021   -0.8205   -2.6573 H       1  UNL1        0.0573
     35 H          -1.5274   -1.6870   -2.4512 H       1  UNL1        0.0573
     36 H          -1.8523    0.0308   -4.4143 H       1  UNL1        0.2095
     37 H          -2.4434    0.2932    1.1009 H       1  UNL1        0.0513
     38 H          -4.3042    1.1197    0.1704 H       1  UNL1        0.0284
     39 H          -4.1766    0.2423   -1.3736 H       1  UNL1        0.0284
     40 H          -4.7575   -1.8351   -0.2660 H       1  UNL1        0.0278
     41 H          -5.8153   -0.5423    0.5188 H       1  UNL1        0.0278
     42 H          -4.7994   -1.9209    2.2551 H       1  UNL1        0.0424
     43 H          -3.9649   -0.3348    2.2859 H       1  UNL1        0.0424
     44 H          -3.0894   -3.0125    1.4416 H       1  UNL1        0.1220
     45 H          -1.2116   -1.7598    0.3169 H       1  UNL1        0.0442
     46 H          -2.7816   -2.2136   -0.5838 H       1  UNL1        0.0442
     47 H           0.8169   -0.8257   -0.5279 H       1  UNL1        0.0636
     48 H           2.0784   -2.4855   -0.8037 H       1  UNL1        0.0624
     49 H           3.7073   -4.3034   -1.0123 H       1  UNL1        0.0618
     50 H           6.0334   -4.0563   -0.1994 H       1  UNL1        0.0618
     51 H           6.7649   -1.9657    0.8410 H       1  UNL1        0.0618
     52 H           5.1333   -0.1341    1.0542 H       1  UNL1        0.0624
@<TRIPOS>BOND
     1     1     2   am
     2     2     3    2
     3     2     4    1
     4     4     5   ar
     5     5     6   ar
     6     6     7   ar
     7     7     8    1
     8     8     9    1
     9     9    10    1
    10    10    11    1
    11     8    12    1
    12    12    13    1
    13    13    14    1
    14    14    15    1
    15    15    16    1
    16    16    17    1
    17     7    18   ar
    18    18    19   ar
    19    19    20   ar
    20    20    21    1
    21    21    22   ar
    22    22    23   ar
    23    23    24   ar
    24    24    25   ar
    25    25    26   ar
    26    20    27   ar
    27    27    28   ar
    28    28     4   ar
    29    17    12    1
    30    28    18   ar
    31    26    21   ar
    32     1    29    1
    33     1    30    1
    34     5    31    1
    35     9    32    1
    36     9    33    1
    37    10    34    1
    38    10    35    1
    39    11    36    1
    40    12    37    1
    41    13    38    1
    42    13    39    1
    43    14    40    1
    44    14    41    1
    45    15    42    1
    46    15    43    1
    47    16    44    1
    48    17    45    1
    49    17    46    1
    50    19    47    1
    51    22    48    1
    52    23    49    1
    53    24    50    1
    54    25    51    1
    55    26    52    1
