
     RDKit          3D

 56 59  0  0  0  0  0  0  0  0999 V2000
   -3.2593   -2.5408    2.0453 C   0  0  0  0  0  0  0  0  0  0  0  0
   -2.2355   -1.8121    1.2618 C   0  0  0  0  0  0  0  0  0  0  0  0
   -2.6545   -0.7994    0.3714 N   0  0  0  0  0  0  0  0  0  0  0  0
   -1.5838   -0.1225   -0.3004 C   0  0  0  0  0  0  0  0  0  0  0  0
   -0.4401   -0.8156   -0.3579 N   0  0  0  0  0  0  0  0  0  0  0  0
    0.6749   -0.3223   -0.9582 C   0  0  0  0  0  0  0  0  0  0  0  0
    0.6936    0.9158   -1.5408 C   0  0  0  0  0  0  0  0  0  0  0  0
    1.9192    1.4795   -2.2108 C   0  0  0  0  0  0  0  0  0  0  0  0
    2.7572    2.2460   -1.2266 C   0  0  0  0  0  0  0  0  0  0  0  0
    3.2288    1.5347   -0.1374 O   0  0  0  0  0  0  0  0  0  0  0  0
    4.0639    0.4838   -0.0253 C   0  0  0  0  0  0  0  0  0  0  0  0
    4.6828   -0.1317   -1.0816 C   0  0  0  0  0  0  0  0  0  0  0  0
    5.5388   -1.2198   -0.8680 C   0  0  0  0  0  0  0  0  0  0  0  0
    5.7910   -1.7085    0.3925 C   0  0  0  0  0  0  0  0  0  0  0  0
    6.6816   -2.8338    0.5676 C   0  0  0  0  0  0  0  0  0  0  0  0
    6.8838   -3.2477    1.7355 O   0  0  0  0  0  0  0  0  0  0  0  0
    7.3190   -3.4758   -0.4709 O   0  0  0  0  0  0  0  0  0  0  0  0
    5.1645   -1.0820    1.4453 C   0  0  0  0  0  0  0  0  0  0  0  0
    4.3200   -0.0124    1.2581 C   0  0  0  0  0  0  0  0  0  0  0  0
    3.6498    0.6563    2.3964 C   0  0  0  0  0  0  0  0  0  0  0  0
   -0.4749    1.6678   -1.5024 C   0  0  0  0  0  0  0  0  0  0  0  0
   -1.5879    1.1424   -0.8879 C   0  0  0  0  0  0  0  0  0  0  0  0
   -2.7067    2.0913   -0.9574 C   0  0  0  0  0  0  0  0  0  0  0  0
   -2.4578    3.2393   -1.4044 O   0  0  0  0  0  0  0  0  0  0  0  0
   -4.0723    1.8756   -0.5748 N   0  0  0  0  0  0  0  0  0  0  0  0
   -4.9569    3.0314   -0.5322 C   0  0  0  0  0  0  0  0  0  0  0  0
   -4.6766    0.6429   -0.2260 C   0  0  0  0  0  0  0  0  0  0  0  0
   -6.0421    0.6900   -0.3382 C   0  0  0  0  0  0  0  0  0  0  0  0
   -6.7869   -0.4203   -0.0418 C   0  0  0  0  0  0  0  0  0  0  0  0
   -6.1068   -1.5652    0.3672 C   0  0  0  0  0  0  0  0  0  0  0  0
   -4.7729   -1.5564    0.4596 N   0  0  0  0  0  0  0  0  0  0  0  0
   -4.0133   -0.5105    0.1846 C   0  0  0  0  0  0  0  0  0  0  0  0
   -2.6881   -3.0993    2.8596 H   0  0  0  0  0  0  0  0  0  0  0  0
   -3.9654   -1.9229    2.6238 H   0  0  0  0  0  0  0  0  0  0  0  0
   -3.7450   -3.3896    1.4940 H   0  0  0  0  0  0  0  0  0  0  0  0
   -1.4518   -1.3845    1.9626 H   0  0  0  0  0  0  0  0  0  0  0  0
   -1.6563   -2.5830    0.6821 H   0  0  0  0  0  0  0  0  0  0  0  0
    1.5820   -0.9115   -0.9854 H   0  0  0  0  0  0  0  0  0  0  0  0
    1.5554    2.2285   -2.9534 H   0  0  0  0  0  0  0  0  0  0  0  0
    2.4220    0.6869   -2.7497 H   0  0  0  0  0  0  0  0  0  0  0  0
    3.6789    2.6619   -1.7466 H   0  0  0  0  0  0  0  0  0  0  0  0
    2.1657    3.1423   -0.9157 H   0  0  0  0  0  0  0  0  0  0  0  0
    4.5537    0.1941   -2.0995 H   0  0  0  0  0  0  0  0  0  0  0  0
    6.0071   -1.6803   -1.7112 H   0  0  0  0  0  0  0  0  0  0  0  0
    8.1653   -4.0133   -0.2750 H   0  0  0  0  0  0  0  0  0  0  0  0
    5.3462   -1.4471    2.4498 H   0  0  0  0  0  0  0  0  0  0  0  0
    3.9391    1.7379    2.3509 H   0  0  0  0  0  0  0  0  0  0  0  0
    3.9777    0.2328    3.3660 H   0  0  0  0  0  0  0  0  0  0  0  0
    2.5446    0.5380    2.2603 H   0  0  0  0  0  0  0  0  0  0  0  0
   -0.5007    2.6446   -1.9486 H   0  0  0  0  0  0  0  0  0  0  0  0
   -5.5694    3.0494    0.3928 H   0  0  0  0  0  0  0  0  0  0  0  0
   -5.5286    3.1727   -1.4549 H   0  0  0  0  0  0  0  0  0  0  0  0
   -4.2796    3.9257   -0.4486 H   0  0  0  0  0  0  0  0  0  0  0  0
   -6.5294    1.5857   -0.6546 H   0  0  0  0  0  0  0  0  0  0  0  0
   -7.8764   -0.4438   -0.1121 H   0  0  0  0  0  0  0  0  0  0  0  0
   -6.6873   -2.4449    0.6026 H   0  0  0  0  0  0  0  0  0  0  0  0
  1  2  1  0
  2  3  1  0
  3  4  1  0
  4  5  2  0
  5  6  1  0
  6  7  2  0
  7  8  1  0
  8  9  1  0
  9 10  1  0
 10 11  1  0
 11 12  2  0
 12 13  1  0
 13 14  2  0
 14 15  1  0
 15 16  2  0
 15 17  1  0
 14 18  1  0
 18 19  2  0
 19 20  1  0
  7 21  1  0
 21 22  2  0
 22 23  1  0
 23 24  2  0
 23 25  1  0
 25 26  1  0
 25 27  1  0
 27 28  2  0
 28 29  1  0
 29 30  2  0
 30 31  1  0
 31 32  2  0
 32  3  1  0
 22  4  1  0
 32 27  1  0
 19 11  1  0
  1 33  1  0
  1 34  1  0
  1 35  1  0
  2 36  1  0
  2 37  1  0
  6 38  1  0
  8 39  1  0
  8 40  1  0
  9 41  1  0
  9 42  1  0
 12 43  1  0
 13 44  1  0
 17 45  1  0
 18 46  1  0
 20 47  1  0
 20 48  1  0
 20 49  1  0
 21 50  1  0
 26 51  1  0
 26 52  1  0
 26 53  1  0
 28 54  1  0
 29 55  1  0
 30 56  1  0
M  END
$$$$
