@<TRIPOS>MOLECULE
*****
 56 59 0 0 0
SMALL
GASTEIGER

@<TRIPOS>ATOM
      1 C          -3.2593   -2.5408    2.0453 C.3     1  UNL1       -0.0489
      2 C          -2.2355   -1.8121    1.2618 C.3     1  UNL1        0.0172
      3 N          -2.6545   -0.7994    0.3714 N.pl3   1  UNL1       -0.2683
      4 C          -1.5838   -0.1225   -0.3004 C.ar    1  UNL1        0.1388
      5 N          -0.4401   -0.8156   -0.3579 N.ar    1  UNL1       -0.2389
      6 C           0.6749   -0.3223   -0.9582 C.ar    1  UNL1        0.0330
      7 C           0.6936    0.9158   -1.5408 C.ar    1  UNL1       -0.0252
      8 C           1.9192    1.4795   -2.2108 C.3     1  UNL1        0.0081
      9 C           2.7572    2.2460   -1.2266 C.3     1  UNL1        0.0936
     10 O           3.2288    1.5347   -0.1374 O.3     1  UNL1       -0.4914
     11 C           4.0639    0.4838   -0.0253 C.ar    1  UNL1        0.1234
     12 C           4.6828   -0.1317   -1.0816 C.ar    1  UNL1       -0.0189
     13 C           5.5388   -1.2198   -0.8680 C.ar    1  UNL1       -0.0443
     14 C           5.7910   -1.7085    0.3925 C.ar    1  UNL1        0.0593
     15 C           6.6816   -2.8338    0.5676 C.2     1  UNL1        0.3368
     16 O           6.8838   -3.2477    1.7355 O.2     1  UNL1       -0.2451
     17 O           7.3190   -3.4758   -0.4709 O.3     1  UNL1       -0.4771
     18 C           5.1645   -1.0820    1.4453 C.ar    1  UNL1       -0.0414
     19 C           4.3200   -0.0124    1.2581 C.ar    1  UNL1       -0.0080
     20 C           3.6498    0.6563    2.3964 C.3     1  UNL1       -0.0362
     21 C          -0.4749    1.6678   -1.5024 C.ar    1  UNL1       -0.0416
     22 C          -1.5879    1.1424   -0.8879 C.ar    1  UNL1        0.0777
     23 C          -2.7067    2.0913   -0.9574 C.2     1  UNL1        0.2540
     24 O          -2.4578    3.2393   -1.4044 O.2     1  UNL1       -0.2695
     25 N          -4.0723    1.8756   -0.5748 N.am    1  UNL1       -0.2674
     26 C          -4.9569    3.0314   -0.5322 C.3     1  UNL1        0.0087
     27 C          -4.6766    0.6429   -0.2260 C.ar    1  UNL1        0.0768
     28 C          -6.0421    0.6900   -0.3382 C.ar    1  UNL1       -0.0355
     29 C          -6.7869   -0.4203   -0.0418 C.ar    1  UNL1       -0.0417
     30 C          -6.1068   -1.5652    0.3672 C.ar    1  UNL1        0.0298
     31 N          -4.7729   -1.5564    0.4596 N.ar    1  UNL1       -0.2380
     32 C          -4.0133   -0.5105    0.1846 C.ar    1  UNL1        0.1481
     33 H          -2.6881   -3.0993    2.8596 H       1  UNL1        0.0245
     34 H          -3.9654   -1.9229    2.6238 H       1  UNL1        0.0245
     35 H          -3.7450   -3.3896    1.4940 H       1  UNL1        0.0245
     36 H          -1.4518   -1.3845    1.9626 H       1  UNL1        0.0466
     37 H          -1.6563   -2.5830    0.6821 H       1  UNL1        0.0466
     38 H           1.5820   -0.9115   -0.9854 H       1  UNL1        0.0833
     39 H           1.5554    2.2285   -2.9534 H       1  UNL1        0.0347
     40 H           2.4220    0.6869   -2.7497 H       1  UNL1        0.0347
     41 H           3.6789    2.6619   -1.7466 H       1  UNL1        0.0700
     42 H           2.1657    3.1423   -0.9157 H       1  UNL1        0.0700
     43 H           4.5537    0.1941   -2.0995 H       1  UNL1        0.0654
     44 H           6.0071   -1.6803   -1.7112 H       1  UNL1        0.0627
     45 H           8.1653   -4.0133   -0.2750 H       1  UNL1        0.2954
     46 H           5.3462   -1.4471    2.4498 H       1  UNL1        0.0629
     47 H           3.9391    1.7379    2.3509 H       1  UNL1        0.0279
     48 H           3.9777    0.2328    3.3660 H       1  UNL1        0.0279
     49 H           2.5446    0.5380    2.2603 H       1  UNL1        0.0279
     50 H          -0.5007    2.6446   -1.9486 H       1  UNL1        0.0629
     51 H          -5.5694    3.0494    0.3928 H       1  UNL1        0.0433
     52 H          -5.5286    3.1727   -1.4549 H       1  UNL1        0.0433
     53 H          -4.2796    3.9257   -0.4486 H       1  UNL1        0.0433
     54 H          -6.5294    1.5857   -0.6546 H       1  UNL1        0.0638
     55 H          -7.8764   -0.4438   -0.1121 H       1  UNL1        0.0633
     56 H          -6.6873   -2.4449    0.6026 H       1  UNL1        0.0830
@<TRIPOS>BOND
     1     1     2    1
     2     2     3    1
     3     3     4    1
     4     4     5   ar
     5     5     6   ar
     6     6     7   ar
     7     7     8    1
     8     8     9    1
     9     9    10    1
    10    10    11    1
    11    11    12   ar
    12    12    13   ar
    13    13    14   ar
    14    14    15    1
    15    15    16    2
    16    15    17    1
    17    14    18   ar
    18    18    19   ar
    19    19    20    1
    20     7    21   ar
    21    21    22   ar
    22    22    23    1
    23    23    24    2
    24    23    25   am
    25    25    26    1
    26    25    27    1
    27    27    28   ar
    28    28    29   ar
    29    29    30   ar
    30    30    31   ar
    31    31    32   ar
    32    32     3    1
    33    22     4   ar
    34    32    27   ar
    35    19    11   ar
    36     1    33    1
    37     1    34    1
    38     1    35    1
    39     2    36    1
    40     2    37    1
    41     6    38    1
    42     8    39    1
    43     8    40    1
    44     9    41    1
    45     9    42    1
    46    12    43    1
    47    13    44    1
    48    17    45    1
    49    18    46    1
    50    20    47    1
    51    20    48    1
    52    20    49    1
    53    21    50    1
    54    26    51    1
    55    26    52    1
    56    26    53    1
    57    28    54    1
    58    29    55    1
    59    30    56    1
