@<TRIPOS>MOLECULE
*****
 33 34 0 0 0
SMALL
GASTEIGER

@<TRIPOS>ATOM
      1 C          -4.3411    1.5889    0.8237 C.3     1  UNL1        0.0736
      2 S          -3.4974    2.1475   -0.6324 S.O2    1  UNL1        0.0404
      3 O          -3.5376    3.6405   -0.6518 O.2     1  UNL1       -0.1555
      4 O          -4.1267    1.5550   -1.8636 O.2     1  UNL1       -0.1555
      5 N          -1.8406    1.6630   -0.5052 N.pl3   1  UNL1       -0.2173
      6 C          -1.3946    0.3166   -0.4227 C.ar    1  UNL1        0.0902
      7 C          -0.0662   -0.0656   -0.2369 C.ar    1  UNL1        0.1571
      8 O           0.8582    0.9648   -0.1266 O.3     1  UNL1       -0.4539
      9 C           2.2121    0.7491    0.0601 C.ar    1  UNL1        0.1285
     10 C           3.1241    0.6118   -0.9692 C.ar    1  UNL1       -0.0193
     11 C           4.4713    0.3970   -0.7595 C.ar    1  UNL1       -0.0583
     12 C           4.9229    0.3165    0.5398 C.ar    1  UNL1       -0.0615
     13 C           4.0711    0.4440    1.6177 C.ar    1  UNL1       -0.0583
     14 C           2.7265    0.6589    1.3399 C.ar    1  UNL1       -0.0193
     15 C           0.2772   -1.4000   -0.1707 C.ar    1  UNL1        0.0597
     16 C          -0.6514   -2.4141   -0.2818 C.ar    1  UNL1        0.2768
     17 C          -1.9689   -2.0480   -0.4659 C.ar    1  UNL1        0.0176
     18 C          -2.3073   -0.7121   -0.5314 C.ar    1  UNL1       -0.0293
     19 N          -0.1352   -3.7370   -0.1922 N.pl3   1  UNL1        0.0797
     20 O           1.1809   -4.0856   -0.0086 O.co2   1  UNL1       -0.5760
     21 O          -0.9171   -4.7181   -0.2838 O.2     1  UNL1        0.0414
     22 H          -5.3832    1.3073    0.5669 H       1  UNL1        0.0482
     23 H          -3.7852    0.7244    1.2897 H       1  UNL1        0.0482
     24 H          -4.3589    2.4236    1.5504 H       1  UNL1        0.0482
     25 H          -1.0527    2.3771   -0.4823 H       1  UNL1        0.1734
     26 H           2.7272    0.6817   -1.9944 H       1  UNL1        0.0654
     27 H           5.1815    0.2901   -1.5774 H       1  UNL1        0.0619
     28 H           5.9634    0.1500    0.7965 H       1  UNL1        0.0618
     29 H           4.3353    0.3950    2.6654 H       1  UNL1        0.0619
     30 H           2.0127    0.7663    2.1588 H       1  UNL1        0.0654
     31 H           1.3414   -1.5548   -0.0241 H       1  UNL1        0.0723
     32 H          -2.6733   -2.8640   -0.5494 H       1  UNL1        0.0686
     33 H          -3.3684   -0.5699   -0.6789 H       1  UNL1        0.0640
@<TRIPOS>UNITY_ATOM_ATTR
19 1
charge 1
20 1
charge -1
@<TRIPOS>BOND
     1     1     2    1
     2     2     3    2
     3     2     4    2
     4     2     5    1
     5     5     6    1
     6     6     7   ar
     7     7     8    1
     8     8     9    1
     9     9    10   ar
    10    10    11   ar
    11    11    12   ar
    12    12    13   ar
    13    13    14   ar
    14     7    15   ar
    15    15    16   ar
    16    16    17   ar
    17    17    18   ar
    18    16    19    1
    19    19    20    1
    20    19    21    2
    21    18     6   ar
    22    14     9   ar
    23     1    22    1
    24     1    23    1
    25     1    24    1
    26     5    25    1
    27    10    26    1
    28    11    27    1
    29    12    28    1
    30    13    29    1
    31    14    30    1
    32    15    31    1
    33    17    32    1
    34    18    33    1
