@<TRIPOS>MOLECULE
*****
 68 70 0 0 0
SMALL
GASTEIGER

@<TRIPOS>ATOM
      1 C           0.2937   -1.9899   -0.9782 C.3     1  UNL1        0.0243
      2 C           1.5210   -1.5802   -0.2585 C.3     1  UNL1        0.1106
      3 C           1.5045   -1.9957    1.2077 C.3     1  UNL1       -0.0090
      4 C           1.7145   -3.5140    1.2133 C.3     1  UNL1       -0.0218
      5 C           1.6480   -3.9985    2.6247 C.3     1  UNL1       -0.0588
      6 C           0.5574   -4.0855    0.4620 C.2     1  UNL1       -0.0775
      7 C          -0.0359   -3.3853   -0.4892 C.2     1  UNL1       -0.0444
      8 C          -1.1744   -3.9710   -1.1941 C.2     1  UNL1       -0.0621
      9 C          -2.0074   -3.1180   -1.8161 C.2     1  UNL1       -0.0806
     10 C          -1.9136   -1.6148   -1.8784 C.3     1  UNL1       -0.0219
     11 C          -1.3744   -1.2878   -3.2545 C.3     1  UNL1       -0.0587
     12 C          -0.9366   -1.1845   -0.7833 C.3     1  UNL1       -0.0247
     13 C          -0.7925    0.2843   -0.6932 C.3     1  UNL1       -0.0457
     14 C          -2.1114    1.0124   -0.5074 C.3     1  UNL1       -0.0153
     15 C          -2.8354    0.6001    0.7500 C.3     1  UNL1        0.1054
     16 C          -4.1342    1.4187    0.7877 C.3     1  UNL1        0.0109
     17 C          -3.7690    2.7395    1.4323 C.3     1  UNL1        0.0686
     18 O          -4.6704    3.7448    1.1137 O.3     1  UNL1       -0.3911
     19 C          -3.7079    2.4770    2.9386 C.3     1  UNL1        0.0710
     20 C          -2.7170    1.3644    3.1039 C.2     1  UNL1        0.3098
     21 O          -2.4649    0.8571    4.2370 O.2     1  UNL1       -0.2507
     22 O          -2.1076    0.9455    1.9140 O.3     1  UNL1       -0.4612
     23 O           1.8738   -0.2331   -0.3149 O.3     1  UNL1       -0.4603
     24 C           3.0784    0.2315   -0.8408 C.2     1  UNL1        0.3130
     25 O           3.9548   -0.5596   -1.3148 O.2     1  UNL1       -0.2502
     26 C           3.2188    1.7059   -0.7872 C.3     1  UNL1        0.0619
     27 C           4.5700    2.0270   -1.3936 C.3     1  UNL1       -0.0497
     28 C           2.1876    2.3398   -1.6716 C.3     1  UNL1       -0.0497
     29 C           3.2031    2.2530    0.6205 C.3     1  UNL1       -0.0406
     30 C           3.3536    3.7698    0.5555 C.3     1  UNL1       -0.0643
     31 H           0.5164   -2.1201   -2.0710 H       1  UNL1        0.0388
     32 H           2.3568   -2.2174   -0.6996 H       1  UNL1        0.0740
     33 H           0.4861   -1.7290    1.5697 H       1  UNL1        0.0307
     34 H           2.3195   -1.4515    1.7087 H       1  UNL1        0.0307
     35 H           2.6804   -3.6982    0.7119 H       1  UNL1        0.0342
     36 H           1.6578   -5.1158    2.5896 H       1  UNL1        0.0235
     37 H           2.5123   -3.6583    3.2303 H       1  UNL1        0.0235
     38 H           0.7328   -3.5983    3.0902 H       1  UNL1        0.0235
     39 H           0.1792   -5.0714    0.6713 H       1  UNL1        0.0578
     40 H          -1.3782   -5.0223   -1.2390 H       1  UNL1        0.0617
     41 H          -2.8514   -3.5550   -2.3384 H       1  UNL1        0.0575
     42 H          -2.9291   -1.2370   -1.7193 H       1  UNL1        0.0343
     43 H          -0.6057   -0.4903   -3.2393 H       1  UNL1        0.0235
     44 H          -2.2246   -0.9922   -3.9074 H       1  UNL1        0.0235
     45 H          -0.8832   -2.1711   -3.7103 H       1  UNL1        0.0235
     46 H          -1.4290   -1.5292    0.1687 H       1  UNL1        0.0313
     47 H          -0.3279    0.6940   -1.6090 H       1  UNL1        0.0269
     48 H          -0.1901    0.5900    0.2135 H       1  UNL1        0.0269
     49 H          -2.7646    0.9783   -1.3783 H       1  UNL1        0.0301
     50 H          -1.8247    2.0780   -0.3791 H       1  UNL1        0.0301
     51 H          -3.0445   -0.4728    0.8247 H       1  UNL1        0.0734
     52 H          -4.9083    0.8709    1.3621 H       1  UNL1        0.0326
     53 H          -4.5207    1.5637   -0.2418 H       1  UNL1        0.0326
     54 H          -2.7626    3.0638    1.1434 H       1  UNL1        0.0600
     55 H          -5.4051    3.4428    0.5259 H       1  UNL1        0.2098
     56 H          -3.3755    3.3555    3.5003 H       1  UNL1        0.0403
     57 H          -4.7293    2.1172    3.2219 H       1  UNL1        0.0403
     58 H           4.6061    1.4767   -2.3653 H       1  UNL1        0.0240
     59 H           4.6290    3.1049   -1.6744 H       1  UNL1        0.0240
     60 H           5.4220    1.7147   -0.7897 H       1  UNL1        0.0240
     61 H           1.3730    2.7542   -1.0500 H       1  UNL1        0.0240
     62 H           1.7889    1.5676   -2.3776 H       1  UNL1        0.0240
     63 H           2.6341    3.1154   -2.3539 H       1  UNL1        0.0240
     64 H           4.0528    1.8405    1.1616 H       1  UNL1        0.0273
     65 H           2.2144    2.0538    1.1140 H       1  UNL1        0.0273
     66 H           2.5300    4.1803   -0.0805 H       1  UNL1        0.0230
     67 H           3.2507    4.2316    1.5433 H       1  UNL1        0.0230
     68 H           4.2854    4.0830    0.0877 H       1  UNL1        0.0230
@<TRIPOS>BOND
     1     1     2    1
     2     2     3    1
     3     3     4    1
     4     4     5    1
     5     4     6    1
     6     6     7    2
     7     7     8    1
     8     8     9    2
     9     9    10    1
    10    10    11    1
    11    10    12    1
    12    12    13    1
    13    13    14    1
    14    14    15    1
    15    15    16    1
    16    16    17    1
    17    17    18    1
    18    17    19    1
    19    19    20    1
    20    20    21    2
    21    20    22    1
    22     2    23    1
    23    23    24    1
    24    24    25    2
    25    24    26    1
    26    26    27    1
    27    26    28    1
    28    26    29    1
    29    29    30    1
    30     7     1    1
    31    22    15    1
    32    12     1    1
    33     1    31    1
    34     2    32    1
    35     3    33    1
    36     3    34    1
    37     4    35    1
    38     5    36    1
    39     5    37    1
    40     5    38    1
    41     6    39    1
    42     8    40    1
    43     9    41    1
    44    10    42    1
    45    11    43    1
    46    11    44    1
    47    11    45    1
    48    12    46    1
    49    13    47    1
    50    13    48    1
    51    14    49    1
    52    14    50    1
    53    15    51    1
    54    16    52    1
    55    16    53    1
    56    17    54    1
    57    18    55    1
    58    19    56    1
    59    19    57    1
    60    27    58    1
    61    27    59    1
    62    27    60    1
    63    28    61    1
    64    28    62    1
    65    28    63    1
    66    29    64    1
    67    29    65    1
    68    30    66    1
    69    30    67    1
    70    30    68    1
