
     RDKit          3D

 23 24  0  0  0  0  0  0  0  0999 V2000
   -3.8003   -0.4352    0.2528 C   0  0  0  0  0  0  0  0  0  0  0  0
   -2.6505    0.4872    0.0693 N   0  0  0  0  0  0  0  0  0  0  0  0
   -2.8289    2.2227   -0.0228 S   0  0  0  0  0  0  0  0  0  0  0  0
   -1.0998    2.5012   -0.2276 C   0  0  0  0  0  0  0  0  0  0  0  0
   -0.5461    3.6612   -0.3619 O   0  0  0  0  0  0  0  0  0  0  0  0
   -0.5421    1.2631   -0.2085 C   0  0  0  0  0  0  0  0  0  0  0  0
    0.8352    1.0253   -0.3422 C   0  0  0  0  0  0  0  0  0  0  0  0
    1.3801   -0.2283   -0.3207 C   0  0  0  0  0  0  0  0  0  0  0  0
    0.5096   -1.2987   -0.1579 C   0  0  0  0  0  0  0  0  0  0  0  0
   -0.8269   -1.0487   -0.0294 C   0  0  0  0  0  0  0  0  0  0  0  0
   -1.3740    0.2354   -0.0526 C   0  0  0  0  0  0  0  0  0  0  0  0
    3.1012   -0.5152   -0.4884 S   0  0  0  0  0  0  0  0  0  0  0  0
    3.7847   -0.4937    1.1107 N   0  0  0  0  0  0  0  0  0  0  0  0
    3.3520   -1.8798   -1.0652 O   0  0  0  0  0  0  0  0  0  0  0  0
    3.7656    0.5589   -1.2857 O   0  0  0  0  0  0  0  0  0  0  0  0
   -3.9430   -0.7129    1.2983 H   0  0  0  0  0  0  0  0  0  0  0  0
   -3.5374   -1.2779   -0.4209 H   0  0  0  0  0  0  0  0  0  0  0  0
   -4.7262    0.0763   -0.1117 H   0  0  0  0  0  0  0  0  0  0  0  0
    1.5635    1.8139   -0.4715 H   0  0  0  0  0  0  0  0  0  0  0  0
    0.9445   -2.2970   -0.1408 H   0  0  0  0  0  0  0  0  0  0  0  0
   -1.4102   -1.9508    0.0916 H   0  0  0  0  0  0  0  0  0  0  0  0
    3.2473   -1.0782    1.7683 H   0  0  0  0  0  0  0  0  0  0  0  0
    4.8016   -0.6286    1.1169 H   0  0  0  0  0  0  0  0  0  0  0  0
  1  2  1  0
  2  3  1  0
  3  4  1  0
  4  5  2  0
  4  6  1  0
  6  7  2  0
  7  8  1  0
  8  9  2  0
  9 10  1  0
 10 11  2  0
  8 12  1  0
 12 13  1  0
 12 14  2  0
 12 15  2  0
 11  2  1  0
 11  6  1  0
  1 16  1  0
  1 17  1  0
  1 18  1  0
  7 19  1  0
  9 20  1  0
 10 21  1  0
 13 22  1  0
 13 23  1  0
M  END
$$$$
