@<TRIPOS>MOLECULE
*****
 38 38 0 0 0
SMALL
GASTEIGER

@<TRIPOS>ATOM
      1 C          -3.2760   -1.4562   -0.3651 C.3     1  UNL1       -0.0473
      2 C          -2.6767   -0.0522   -0.5868 C.3     1  UNL1        0.0108
      3 C          -3.8216    0.9301   -0.4920 C.3     1  UNL1       -0.0473
      4 C          -2.1171    0.0344   -1.9869 C.3     1  UNL1       -0.0473
      5 N          -1.6930    0.1114    0.4207 N.3     1  UNL1       -0.3086
      6 C          -1.0486    1.3723    0.4779 C.3     1  UNL1        0.0266
      7 C          -0.0312    1.4013    1.6020 C.3     1  UNL1        0.0926
      8 O           0.5626    2.6618    1.6033 O.3     1  UNL1       -0.3859
      9 C           0.9799    0.3240    1.4471 C.ar    1  UNL1       -0.0174
     10 C           1.9097    0.6141    0.4490 C.ar    1  UNL1       -0.0472
     11 C           2.9531   -0.2481    0.1204 C.ar    1  UNL1        0.0195
     12 C           3.9429    0.0458   -0.9317 C.3     1  UNL1        0.0727
     13 O           3.7397   -0.6576   -2.0984 O.3     1  UNL1       -0.3903
     14 C           3.0216   -1.4273    0.8471 C.ar    1  UNL1        0.1222
     15 O           4.0401   -2.3379    0.5720 O.3     1  UNL1       -0.5064
     16 C           2.1117   -1.7423    1.8448 C.ar    1  UNL1       -0.0195
     17 C           1.0849   -0.8656    2.1491 C.ar    1  UNL1       -0.0526
     18 H          -4.1789   -1.6084   -0.9626 H       1  UNL1        0.0247
     19 H          -2.4484   -2.1672   -0.5701 H       1  UNL1        0.0247
     20 H          -3.5036   -1.4946    0.7265 H       1  UNL1        0.0247
     21 H          -3.5888    1.8614   -1.0173 H       1  UNL1        0.0247
     22 H          -4.1612    1.0825    0.5563 H       1  UNL1        0.0247
     23 H          -4.6754    0.4547   -1.0336 H       1  UNL1        0.0247
     24 H          -1.6912   -0.9532   -2.2723 H       1  UNL1        0.0247
     25 H          -2.8722    0.3826   -2.7218 H       1  UNL1        0.0247
     26 H          -1.2771    0.7399   -1.9845 H       1  UNL1        0.0247
     27 H          -1.1151   -0.7294    0.5025 H       1  UNL1        0.1225
     28 H          -1.8319    2.1214    0.8005 H       1  UNL1        0.0453
     29 H          -0.6089    1.7753   -0.4262 H       1  UNL1        0.0453
     30 H          -0.5673    1.3063    2.5659 H       1  UNL1        0.0656
     31 H           0.5361    3.0000    0.6755 H       1  UNL1        0.2103
     32 H           1.9153    1.5259   -0.1626 H       1  UNL1        0.0626
     33 H           3.8483    1.1380   -1.1691 H       1  UNL1        0.0608
     34 H           4.9912   -0.0778   -0.5308 H       1  UNL1        0.0608
     35 H           4.6195   -0.6661   -2.5919 H       1  UNL1        0.2098
     36 H           4.4750   -2.7614    1.3832 H       1  UNL1        0.2921
     37 H           2.1413   -2.6521    2.4266 H       1  UNL1        0.0654
     38 H           0.3111   -0.9857    2.9006 H       1  UNL1        0.0622
@<TRIPOS>BOND
     1     1     2    1
     2     2     3    1
     3     2     4    1
     4     2     5    1
     5     5     6    1
     6     6     7    1
     7     7     8    1
     8     7     9    1
     9     9    10   ar
    10    10    11   ar
    11    11    12    1
    12    12    13    1
    13    11    14   ar
    14    14    15    1
    15    14    16   ar
    16    16    17   ar
    17    17     9   ar
    18     1    18    1
    19     1    19    1
    20     1    20    1
    21     3    21    1
    22     3    22    1
    23     3    23    1
    24     4    24    1
    25     4    25    1
    26     4    26    1
    27     5    27    1
    28     6    28    1
    29     6    29    1
    30     7    30    1
    31     8    31    1
    32    10    32    1
    33    12    33    1
    34    12    34    1
    35    13    35    1
    36    15    36    1
    37    16    37    1
    38    17    38    1
