@<TRIPOS>MOLECULE
*****
 58 60 0 0 0
SMALL
GASTEIGER

@<TRIPOS>ATOM
      1 C           5.6359   -1.1498    2.6362 C.3     1  UNL1       -0.0638
      2 C           4.7604   -2.0126    1.7095 C.3     1  UNL1       -0.0350
      3 C           5.0426   -1.6178    0.3025 C.3     1  UNL1        0.0817
      4 S           4.7978    0.0424   -0.1413 S.O2    1  UNL1        0.0318
      5 O           5.7689    0.8795    0.6801 O.2     1  UNL1       -0.1580
      6 O           5.2738    0.2031   -1.5861 O.2     1  UNL1       -0.1580
      7 N           3.2188    0.6380   -0.0478 N.3     1  UNL1       -0.1811
      8 C           2.7258    1.0177   -1.3619 C.3     1  UNL1        0.0210
      9 C           1.4136    1.7115   -1.2904 C.3     1  UNL1       -0.0260
     10 C           0.3815    0.7680   -0.6917 C.3     1  UNL1        0.0308
     11 C          -0.7585    1.7040   -0.2473 C.3     1  UNL1        0.0230
     12 N          -1.8164    0.9364    0.3468 N.am    1  UNL1       -0.3104
     13 C          -2.9922    1.5734    0.8638 C.2     1  UNL1        0.2446
     14 O          -2.9968    2.8351    0.7484 O.2     1  UNL1       -0.2702
     15 C          -4.0745    0.8130    1.4643 C.ar    1  UNL1        0.0483
     16 C          -3.7771   -0.1042    2.4470 C.ar    1  UNL1       -0.0491
     17 C          -4.7847   -0.8670    3.0342 C.ar    1  UNL1       -0.0610
     18 C          -6.0902   -0.7030    2.6289 C.ar    1  UNL1       -0.0612
     19 C          -6.3547    0.2362    1.6297 C.ar    1  UNL1       -0.0494
     20 C          -5.3728    0.9880    1.0499 C.ar    1  UNL1        0.0669
     21 C          -5.7152    1.9883    0.0124 C.3     1  UNL1        0.4181
     22 F          -7.0843    1.9398   -0.2572 F       1  UNL1       -0.1659
     23 F          -5.0481    1.8359   -1.1632 F       1  UNL1       -0.1659
     24 F          -5.5094    3.2703    0.5606 F       1  UNL1       -0.1659
     25 C          -0.1321   -0.0418   -1.8061 C.ar    1  UNL1        0.0490
     26 C           0.3475   -1.2770   -2.1661 C.ar    1  UNL1       -0.0398
     27 C          -0.1564   -1.9814   -3.2377 C.ar    1  UNL1       -0.0586
     28 C          -1.1796   -1.3841   -3.9439 C.ar    1  UNL1       -0.0436
     29 C          -1.6793   -0.1487   -3.6050 C.ar    1  UNL1        0.0279
     30 N          -1.1363    0.4729   -2.5506 N.ar    1  UNL1       -0.2593
     31 C           0.8646   -0.0126    0.4646 C.3     1  UNL1       -0.0260
     32 C           2.3262   -0.1935    0.6594 C.3     1  UNL1        0.0210
     33 H           6.5689   -0.8488    2.1423 H       1  UNL1        0.0230
     34 H           5.0355   -0.2510    2.9529 H       1  UNL1        0.0230
     35 H           5.8692   -1.7274    3.5469 H       1  UNL1        0.0230
     36 H           5.2051   -3.0759    1.8130 H       1  UNL1        0.0279
     37 H           3.7479   -2.1090    2.0521 H       1  UNL1        0.0279
     38 H           6.1025   -1.9646    0.0903 H       1  UNL1        0.0515
     39 H           4.4348   -2.2952   -0.3795 H       1  UNL1        0.0515
     40 H           2.6238    0.0920   -1.9541 H       1  UNL1        0.0444
     41 H           3.5071    1.6561   -1.8596 H       1  UNL1        0.0444
     42 H           1.0719    1.9483   -2.3194 H       1  UNL1        0.0288
     43 H           1.4563    2.6513   -0.6844 H       1  UNL1        0.0288
     44 H          -1.0800    2.3772   -1.0565 H       1  UNL1        0.0471
     45 H          -0.3345    2.3391    0.5757 H       1  UNL1        0.0471
     46 H          -1.7512   -0.0814    0.4146 H       1  UNL1        0.1490
     47 H          -2.7687   -0.2739    2.8053 H       1  UNL1        0.0625
     48 H          -4.5431   -1.5764    3.7962 H       1  UNL1        0.0618
     49 H          -6.9245   -1.2735    3.0503 H       1  UNL1        0.0618
     50 H          -7.3851    0.3514    1.3275 H       1  UNL1        0.0623
     51 H           1.1438   -1.7141   -1.5869 H       1  UNL1        0.0636
     52 H           0.2676   -2.9521   -3.4678 H       1  UNL1        0.0619
     53 H          -1.5978   -1.9099   -4.7884 H       1  UNL1        0.0633
     54 H          -2.4840    0.2494   -4.2108 H       1  UNL1        0.0829
     55 H           0.3554   -1.0240    0.5433 H       1  UNL1        0.0288
     56 H           0.4764    0.4982    1.4029 H       1  UNL1        0.0288
     57 H           2.5587   -0.1928    1.7710 H       1  UNL1        0.0444
     58 H           2.5453   -1.2530    0.3298 H       1  UNL1        0.0444
@<TRIPOS>BOND
     1     1     2    1
     2     2     3    1
     3     3     4    1
     4     4     5    2
     5     4     6    2
     6     4     7    1
     7     7     8    1
     8     8     9    1
     9     9    10    1
    10    10    11    1
    11    11    12    1
    12    12    13   am
    13    13    14    2
    14    13    15    1
    15    15    16   ar
    16    16    17   ar
    17    17    18   ar
    18    18    19   ar
    19    19    20   ar
    20    20    21    1
    21    21    22    1
    22    21    23    1
    23    21    24    1
    24    10    25    1
    25    25    26   ar
    26    26    27   ar
    27    27    28   ar
    28    28    29   ar
    29    29    30   ar
    30    10    31    1
    31    31    32    1
    32    32     7    1
    33    20    15   ar
    34    30    25   ar
    35     1    33    1
    36     1    34    1
    37     1    35    1
    38     2    36    1
    39     2    37    1
    40     3    38    1
    41     3    39    1
    42     8    40    1
    43     8    41    1
    44     9    42    1
    45     9    43    1
    46    11    44    1
    47    11    45    1
    48    12    46    1
    49    16    47    1
    50    17    48    1
    51    18    49    1
    52    19    50    1
    53    26    51    1
    54    27    52    1
    55    28    53    1
    56    29    54    1
    57    31    55    1
    58    31    56    1
    59    32    57    1
    60    32    58    1
