@<TRIPOS>MOLECULE
*****
 48 50 0 0 0
SMALL
GASTEIGER

@<TRIPOS>ATOM
      1 C           5.5924   -1.7934    0.0805 C.3     1  UNL1       -0.0524
      2 C           4.5204   -1.3283    1.0769 C.3     1  UNL1       -0.0039
      3 N           3.8729   -0.1665    0.5804 N.3     1  UNL1       -0.3014
      4 C           4.6553    1.0052    0.5392 C.3     1  UNL1       -0.0039
      5 C           3.9316    2.2169   -0.0115 C.3     1  UNL1       -0.0524
      6 C           2.4696   -0.0403    0.8212 C.3     1  UNL1        0.0144
      7 C           1.7401   -1.0639   -0.0165 C.3     1  UNL1        0.0219
      8 N           0.3195   -1.0699    0.1283 N.pl3   1  UNL1       -0.3420
      9 C          -0.5719   -0.0587   -0.3864 C.ar    1  UNL1        0.0392
     10 C          -1.9523   -0.0499   -0.2064 C.ar    1  UNL1        0.0570
     11 C          -2.5373   -1.0276    0.5606 C.ar    1  UNL1        0.1970
     12 O          -1.8858   -1.9453    1.1084 O.2     1  UNL1       -0.2865
     13 C          -3.8598   -1.1410    0.8286 C.ar    1  UNL1        0.0361
     14 C          -4.4031   -2.1673    1.6238 C.ar    1  UNL1       -0.0498
     15 C          -5.7419   -2.3038    1.9093 C.ar    1  UNL1       -0.0610
     16 C          -6.6525   -1.4045    1.4090 C.ar    1  UNL1       -0.0607
     17 C          -6.2081   -0.3455    0.6052 C.ar    1  UNL1       -0.0473
     18 C          -4.8514   -0.3045    0.3848 C.ar    1  UNL1        0.0236
     19 S          -4.3345    1.0105   -0.6082 S.2     1  UNL1       -0.0877
     20 C          -2.6221    0.9828   -0.8323 C.ar    1  UNL1        0.0282
     21 C          -2.0373    1.9700   -1.5964 C.ar    1  UNL1       -0.0359
     22 C          -2.9037    3.0290   -2.2181 C.3     1  UNL1       -0.0386
     23 C          -0.6452    1.9304   -1.7568 C.ar    1  UNL1       -0.0560
     24 C           0.0456    0.9111   -1.1426 C.ar    1  UNL1       -0.0398
     25 H           6.4920   -1.2024    0.2790 H       1  UNL1        0.0242
     26 H           5.7534   -2.8979    0.2086 H       1  UNL1        0.0242
     27 H           5.1799   -1.6655   -0.9382 H       1  UNL1        0.0242
     28 H           3.7794   -2.1218    1.2793 H       1  UNL1        0.0424
     29 H           5.0696   -1.0971    2.0502 H       1  UNL1        0.0424
     30 H           5.0546    1.2663    1.5617 H       1  UNL1        0.0424
     31 H           5.5162    0.8140   -0.1427 H       1  UNL1        0.0424
     32 H           4.7019    2.9288   -0.4181 H       1  UNL1        0.0242
     33 H           3.4785    2.7491    0.8564 H       1  UNL1        0.0242
     34 H           3.2192    1.9811   -0.8153 H       1  UNL1        0.0242
     35 H           2.1821    0.9986    0.6260 H       1  UNL1        0.0442
     36 H           2.3263   -0.2825    1.9256 H       1  UNL1        0.0442
     37 H           1.9570   -0.7495   -1.0948 H       1  UNL1        0.0474
     38 H           2.1970   -2.0447    0.0968 H       1  UNL1        0.0474
     39 H           0.1498   -1.9357    0.6665 H       1  UNL1        0.1461
     40 H          -3.7344   -2.9205    2.0549 H       1  UNL1        0.0625
     41 H          -6.0801   -3.1259    2.5330 H       1  UNL1        0.0618
     42 H          -7.6899   -1.4744    1.6007 H       1  UNL1        0.0618
     43 H          -6.8916    0.3629    0.2069 H       1  UNL1        0.0629
     44 H          -2.2802    3.8151   -2.6654 H       1  UNL1        0.0278
     45 H          -3.6190    3.4075   -1.4922 H       1  UNL1        0.0278
     46 H          -3.5016    2.5688   -3.0514 H       1  UNL1        0.0278
     47 H          -0.2873    2.7297   -2.3579 H       1  UNL1        0.0621
     48 H           1.0866    1.0505   -1.3951 H       1  UNL1        0.0636
@<TRIPOS>BOND
     1     1     2    1
     2     2     3    1
     3     3     4    1
     4     4     5    1
     5     3     6    1
     6     6     7    1
     7     7     8    1
     8     8     9    1
     9     9    10   ar
    10    10    11   ar
    11    11    12    2
    12    11    13   ar
    13    13    14   ar
    14    14    15   ar
    15    15    16   ar
    16    16    17   ar
    17    17    18   ar
    18    18    19   ar
    19    19    20   ar
    20    20    21   ar
    21    21    22    1
    22    21    23   ar
    23    23    24   ar
    24    24     9   ar
    25    20    10   ar
    26    18    13   ar
    27     1    25    1
    28     1    26    1
    29     1    27    1
    30     2    28    1
    31     2    29    1
    32     4    30    1
    33     4    31    1
    34     5    32    1
    35     5    33    1
    36     5    34    1
    37     6    35    1
    38     6    36    1
    39     7    37    1
    40     7    38    1
    41     8    39    1
    42    14    40    1
    43    15    41    1
    44    16    42    1
    45    17    43    1
    46    22    44    1
    47    22    45    1
    48    22    46    1
    49    23    47    1
    50    24    48    1
