
     RDKit          3D

 54 59  0  0  0  0  0  0  0  0999 V2000
   -4.4851   -3.2248    2.2838 N   0  0  0  0  0  0  0  0  0  0  0  0
   -3.9279   -2.3967    1.7335 C   0  0  0  0  0  0  0  0  0  0  0  0
   -3.2370   -1.3274    1.0398 C   0  0  0  0  0  0  0  0  0  0  0  0
   -1.8651   -1.3905    0.9110 C   0  0  0  0  0  0  0  0  0  0  0  0
   -1.1642   -0.3940    0.2540 C   0  0  0  0  0  0  0  0  0  0  0  0
    0.2799   -0.4895    0.1362 C   0  0  0  0  0  0  0  0  0  0  0  0
    0.9366    0.0289   -0.9482 C   0  0  0  0  0  0  0  0  0  0  0  0
    2.2764   -0.0660   -1.0448 N   0  0  0  0  0  0  0  0  0  0  0  0
    2.9396   -0.6785   -0.0543 C   0  0  0  0  0  0  0  0  0  0  0  0
    4.2884   -0.8932    0.0678 C   0  0  0  0  0  0  0  0  0  0  0  0
    5.3543   -0.5183   -0.8496 C   0  0  0  0  0  0  0  0  0  0  0  0
    5.7624   -1.3839   -1.8514 C   0  0  0  0  0  0  0  0  0  0  0  0
    6.7691   -1.0374   -2.7264 C   0  0  0  0  0  0  0  0  0  0  0  0
    7.3924    0.1853   -2.6198 C   0  0  0  0  0  0  0  0  0  0  0  0
    7.0092    1.0659   -1.6358 C   0  0  0  0  0  0  0  0  0  0  0  0
    7.6476    2.2460   -1.5765 N   0  0  0  0  0  0  0  0  0  0  0  0
    7.2926    3.1232   -0.6288 C   0  0  0  0  0  0  0  0  0  0  0  0
    6.2881    2.8004    0.2597 C   0  0  0  0  0  0  0  0  0  0  0  0
    5.6363    1.5924    0.1973 C   0  0  0  0  0  0  0  0  0  0  0  0
    5.9976    0.6976   -0.7692 C   0  0  0  0  0  0  0  0  0  0  0  0
    4.4810   -1.5609    1.2562 C   0  0  0  0  0  0  0  0  0  0  0  0
    3.2496   -1.7268    1.8094 N   0  0  0  0  0  0  0  0  0  0  0  0
    2.3328   -1.1964    1.0195 N   0  0  0  0  0  0  0  0  0  0  0  0
    0.9755   -1.1107    1.1364 C   0  0  0  0  0  0  0  0  0  0  0  0
   -1.8627    0.6679   -0.2720 C   0  0  0  0  0  0  0  0  0  0  0  0
   -3.2123    0.7066   -0.1318 C   0  0  0  0  0  0  0  0  0  0  0  0
   -3.9647   -0.2758    0.5232 C   0  0  0  0  0  0  0  0  0  0  0  0
   -5.3781   -0.1760    0.6351 N   0  0  0  0  0  0  0  0  0  0  0  0
   -6.0183   -0.1451    1.9274 C   0  0  0  0  0  0  0  0  0  0  0  0
   -7.2057    0.8268    1.8701 C   0  0  0  0  0  0  0  0  0  0  0  0
   -8.0898    0.2838    0.8541 N   0  0  0  0  0  0  0  0  0  0  0  0
   -7.4780    0.5486   -0.4267 C   0  0  0  0  0  0  0  0  0  0  0  0
   -6.1391   -0.1048   -0.5884 C   0  0  0  0  0  0  0  0  0  0  0  0
   -1.3425   -2.2296    1.3307 H   0  0  0  0  0  0  0  0  0  0  0  0
    0.3283    0.5130   -1.7138 H   0  0  0  0  0  0  0  0  0  0  0  0
    5.2430   -2.3331   -1.8956 H   0  0  0  0  0  0  0  0  0  0  0  0
    7.0573   -1.7419   -3.4942 H   0  0  0  0  0  0  0  0  0  0  0  0
    8.1840    0.4617   -3.3057 H   0  0  0  0  0  0  0  0  0  0  0  0
    7.7848    4.1010   -0.5404 H   0  0  0  0  0  0  0  0  0  0  0  0
    5.9975    3.5084    1.0294 H   0  0  0  0  0  0  0  0  0  0  0  0
    4.8434    1.3121    0.8823 H   0  0  0  0  0  0  0  0  0  0  0  0
    5.3915   -1.9069    1.7089 H   0  0  0  0  0  0  0  0  0  0  0  0
    0.4986   -1.5343    2.0103 H   0  0  0  0  0  0  0  0  0  0  0  0
   -1.3005    1.4304   -0.7780 H   0  0  0  0  0  0  0  0  0  0  0  0
   -3.7388    1.5576   -0.5575 H   0  0  0  0  0  0  0  0  0  0  0  0
   -6.4869   -1.1508    2.0767 H   0  0  0  0  0  0  0  0  0  0  0  0
   -5.3711    0.1597    2.7444 H   0  0  0  0  0  0  0  0  0  0  0  0
   -7.6774    0.8775    2.8546 H   0  0  0  0  0  0  0  0  0  0  0  0
   -6.8451    1.8071    1.5024 H   0  0  0  0  0  0  0  0  0  0  0  0
   -8.1407   -0.7532    0.9650 H   0  0  0  0  0  0  0  0  0  0  0  0
   -8.1371    0.1878   -1.2419 H   0  0  0  0  0  0  0  0  0  0  0  0
   -7.4139    1.6510   -0.5319 H   0  0  0  0  0  0  0  0  0  0  0  0
   -6.2049   -1.1090   -1.0051 H   0  0  0  0  0  0  0  0  0  0  0  0
   -5.5509    0.5150   -1.2967 H   0  0  0  0  0  0  0  0  0  0  0  0
  1  2  3  0
  2  3  1  0
  3  4  2  0
  4  5  1  0
  5  6  1  0
  6  7  1  0
  7  8  2  0
  8  9  1  0
  9 10  2  0
 10 11  1  0
 11 12  2  0
 12 13  1  0
 13 14  2  0
 14 15  1  0
 15 16  2  0
 16 17  1  0
 17 18  2  0
 18 19  1  0
 19 20  2  0
 10 21  1  0
 21 22  2  0
 22 23  1  0
 23 24  1  0
  5 25  2  0
 25 26  1  0
 26 27  2  0
 27 28  1  0
 28 29  1  0
 29 30  1  0
 30 31  1  0
 31 32  1  0
 32 33  1  0
 27  3  1  0
 33 28  1  0
 24  6  2  0
 23  9  1  0
 20 11  1  0
 20 15  1  0
  4 34  1  0
  7 35  1  0
 12 36  1  0
 13 37  1  0
 14 38  1  0
 17 39  1  0
 18 40  1  0
 19 41  1  0
 21 42  1  0
 24 43  1  0
 25 44  1  0
 26 45  1  0
 29 46  1  0
 29 47  1  0
 30 48  1  0
 30 49  1  0
 31 50  1  0
 32 51  1  0
 32 52  1  0
 33 53  1  0
 33 54  1  0
M  END
$$$$
