@<TRIPOS>MOLECULE
*****
 54 59 0 0 0
SMALL
GASTEIGER

@<TRIPOS>ATOM
      1 N          -4.4851   -3.2248    2.2838 N.1     1  UNL1       -0.1908
      2 C          -3.9279   -2.3967    1.7335 C.1     1  UNL1        0.1010
      3 C          -3.2370   -1.3274    1.0398 C.ar    1  UNL1        0.0733
      4 C          -1.8651   -1.3905    0.9110 C.ar    1  UNL1       -0.0347
      5 C          -1.1642   -0.3940    0.2540 C.ar    1  UNL1       -0.0137
      6 C           0.2799   -0.4895    0.1362 C.ar    1  UNL1        0.0185
      7 C           0.9366    0.0289   -0.9482 C.ar    1  UNL1        0.0391
      8 N           2.2764   -0.0660   -1.0448 N.ar    1  UNL1       -0.2350
      9 C           2.9396   -0.6785   -0.0543 C.ar    1  UNL1        0.1632
     10 C           4.2884   -0.8932    0.0678 C.ar    1  UNL1        0.0466
     11 C           5.3543   -0.5183   -0.8496 C.ar    1  UNL1       -0.0037
     12 C           5.7624   -1.3839   -1.8514 C.ar    1  UNL1       -0.0532
     13 C           6.7691   -1.0374   -2.7264 C.ar    1  UNL1       -0.0591
     14 C           7.3924    0.1853   -2.6198 C.ar    1  UNL1       -0.0357
     15 C           7.0092    1.0659   -1.6358 C.ar    1  UNL1        0.0715
     16 N           7.6476    2.2460   -1.5765 N.ar    1  UNL1       -0.2550
     17 C           7.2926    3.1232   -0.6288 C.ar    1  UNL1        0.0283
     18 C           6.2881    2.8004    0.2597 C.ar    1  UNL1       -0.0430
     19 C           5.6363    1.5924    0.1973 C.ar    1  UNL1       -0.0506
     20 C           5.9976    0.6976   -0.7692 C.ar    1  UNL1        0.0082
     21 C           4.4810   -1.5609    1.2562 C.ar    1  UNL1        0.0597
     22 N           3.2496   -1.7268    1.8094 N.ar    1  UNL1       -0.1727
     23 N           2.3328   -1.1964    1.0195 N.ar    1  UNL1       -0.2206
     24 C           0.9755   -1.1107    1.1364 C.ar    1  UNL1        0.0406
     25 C          -1.8627    0.6679   -0.2720 C.ar    1  UNL1       -0.0521
     26 C          -3.2123    0.7066   -0.1318 C.ar    1  UNL1       -0.0388
     27 C          -3.9647   -0.2758    0.5232 C.ar    1  UNL1        0.0474
     28 N          -5.3781   -0.1760    0.6351 N.pl3   1  UNL1       -0.3265
     29 C          -6.0183   -0.1451    1.9274 C.3     1  UNL1        0.0248
     30 C          -7.2057    0.8268    1.8701 C.3     1  UNL1        0.0117
     31 N          -8.0898    0.2838    0.8541 N.3     1  UNL1       -0.3130
     32 C          -7.4780    0.5486   -0.4267 C.3     1  UNL1        0.0117
     33 C          -6.1391   -0.1048   -0.5884 C.3     1  UNL1        0.0248
     34 H          -1.3425   -2.2296    1.3307 H       1  UNL1        0.0637
     35 H           0.3283    0.5130   -1.7138 H       1  UNL1        0.0837
     36 H           5.2430   -2.3331   -1.8956 H       1  UNL1        0.0624
     37 H           7.0573   -1.7419   -3.4942 H       1  UNL1        0.0618
     38 H           8.1840    0.4617   -3.3057 H       1  UNL1        0.0639
     39 H           7.7848    4.1010   -0.5404 H       1  UNL1        0.0830
     40 H           5.9975    3.5084    1.0294 H       1  UNL1        0.0633
     41 H           4.8434    1.3121    0.8823 H       1  UNL1        0.0625
     42 H           5.3915   -1.9069    1.7089 H       1  UNL1        0.0855
     43 H           0.4986   -1.5343    2.0103 H       1  UNL1        0.0837
     44 H          -1.3005    1.4304   -0.7780 H       1  UNL1        0.0624
     45 H          -3.7388    1.5576   -0.5575 H       1  UNL1        0.0637
     46 H          -6.4869   -1.1508    2.0767 H       1  UNL1        0.0476
     47 H          -5.3711    0.1597    2.7444 H       1  UNL1        0.0476
     48 H          -7.6774    0.8775    2.8546 H       1  UNL1        0.0439
     49 H          -6.8451    1.8071    1.5024 H       1  UNL1        0.0439
     50 H          -8.1407   -0.7532    0.9650 H       1  UNL1        0.1220
     51 H          -8.1371    0.1878   -1.2419 H       1  UNL1        0.0439
     52 H          -7.4139    1.6510   -0.5319 H       1  UNL1        0.0439
     53 H          -6.2049   -1.1090   -1.0051 H       1  UNL1        0.0476
     54 H          -5.5509    0.5150   -1.2967 H       1  UNL1        0.0476
@<TRIPOS>BOND
     1     1     2    3
     2     2     3    1
     3     3     4   ar
     4     4     5   ar
     5     5     6    1
     6     6     7   ar
     7     7     8   ar
     8     8     9   ar
     9     9    10   ar
    10    10    11    1
    11    11    12   ar
    12    12    13   ar
    13    13    14   ar
    14    14    15   ar
    15    15    16   ar
    16    16    17   ar
    17    17    18   ar
    18    18    19   ar
    19    19    20   ar
    20    10    21   ar
    21    21    22   ar
    22    22    23   ar
    23    23    24   ar
    24     5    25   ar
    25    25    26   ar
    26    26    27   ar
    27    27    28    1
    28    28    29    1
    29    29    30    1
    30    30    31    1
    31    31    32    1
    32    32    33    1
    33    27     3   ar
    34    33    28    1
    35    24     6   ar
    36    23     9   ar
    37    20    11   ar
    38    20    15   ar
    39     4    34    1
    40     7    35    1
    41    12    36    1
    42    13    37    1
    43    14    38    1
    44    17    39    1
    45    18    40    1
    46    19    41    1
    47    21    42    1
    48    24    43    1
    49    25    44    1
    50    26    45    1
    51    29    46    1
    52    29    47    1
    53    30    48    1
    54    30    49    1
    55    31    50    1
    56    32    51    1
    57    32    52    1
    58    33    53    1
    59    33    54    1
