@<TRIPOS>MOLECULE
*****
 82 86 0 0 0
SMALL
GASTEIGER

@<TRIPOS>ATOM
      1 C          -6.7608   -0.3953    0.1609 C.3     1  UNL1       -0.0405
      2 C          -5.2267   -0.5088   -0.0614 C.3     1  UNL1        0.0795
      3 C          -5.0161   -1.1000   -1.4050 C.3     1  UNL1       -0.0405
      4 C          -4.7576   -1.3698    1.0729 C.3     1  UNL1       -0.0405
      5 S          -4.5358    1.1484    0.0972 S.O2    1  UNL1       -0.0245
      6 O          -5.2685    1.9255   -1.0305 O.2     1  UNL1       -0.1738
      7 O          -5.0477    1.7469    1.3426 O.2     1  UNL1       -0.1738
      8 C          -2.8189    1.2226   -0.2200 C.3     1  UNL1        0.0851
      9 C          -1.9440    0.4522    0.6500 C.3     1  UNL1        0.0488
     10 C          -1.7736    0.7970    2.0856 C.3     1  UNL1       -0.0208
     11 C          -1.1541    1.9596    2.7105 C.3     1  UNL1       -0.0482
     12 C          -2.6032    2.0469    2.5212 C.3     1  UNL1       -0.0482
     13 N          -0.6343    0.1961   -0.0022 N.am    1  UNL1       -0.2885
     14 C           0.2180    1.2909   -0.2600 C.2     1  UNL1        0.2227
     15 O          -0.2764    2.4179   -0.4566 O.2     1  UNL1       -0.2750
     16 C           1.7084    1.1372   -0.3079 C.3     1  UNL1        0.0504
     17 C           2.1655    2.0336   -1.4691 C.3     1  UNL1       -0.0509
     18 C           2.2558    1.8019    0.9367 C.3     1  UNL1        0.0033
     19 C           3.7462    1.6988    0.9955 C.ar    1  UNL1        0.0430
     20 C           4.5894    2.6450    0.4557 C.ar    1  UNL1       -0.0264
     21 C           5.9547    2.4973    0.5401 C.ar    1  UNL1        0.0620
     22 C           6.8741    3.4792   -0.0211 C.2     1  UNL1        0.3369
     23 O           6.4624    4.5096   -0.6089 O.2     1  UNL1       -0.2451
     24 O           8.2613    3.3143    0.0720 O.3     1  UNL1       -0.4771
     25 C           6.4252    1.3733    1.1815 C.ar    1  UNL1       -0.0296
     26 C           5.5658    0.4386    1.7151 C.ar    1  UNL1        0.0286
     27 N           4.2598    0.6221    1.6102 N.ar    1  UNL1       -0.2598
     28 C           2.1228   -0.2716   -0.4604 C.3     1  UNL1       -0.0301
     29 C           1.1318   -1.2439   -1.0013 C.3     1  UNL1        0.0079
     30 C           1.1256   -1.3808   -2.4579 C.ar    1  UNL1       -0.0408
     31 C           0.4311   -0.5190   -3.2619 C.ar    1  UNL1       -0.0582
     32 C           0.4500   -0.6736   -4.6373 C.ar    1  UNL1       -0.0601
     33 C           1.1601   -1.6860   -5.2105 C.ar    1  UNL1       -0.0434
     34 C           1.8667   -2.5677   -4.4432 C.ar    1  UNL1        0.0412
     35 CL          2.7816   -3.8718   -5.1685 Cl      1  UNL1       -0.0835
     36 C           1.8313   -2.3893   -3.0550 C.ar    1  UNL1       -0.0399
     37 C          -0.2115   -1.1213   -0.3801 C.3     1  UNL1        0.0583
     38 C          -0.2104   -1.9952    0.8415 C.ar    1  UNL1       -0.0263
     39 C           0.2979   -1.6054    2.0555 C.ar    1  UNL1       -0.0554
     40 C           0.2836   -2.4431    3.1469 C.ar    1  UNL1       -0.0431
     41 C          -0.2409   -3.7219    3.0870 C.ar    1  UNL1        0.0410
     42 CL         -0.2580   -4.7868    4.4765 Cl      1  UNL1       -0.0835
     43 C          -0.7543   -4.1294    1.8791 C.ar    1  UNL1       -0.0431
     44 C          -0.7439   -3.2960    0.7807 C.ar    1  UNL1       -0.0554
     45 H          -7.2607   -1.2763   -0.2772 H       1  UNL1        0.0251
     46 H          -7.0066   -0.3092    1.2190 H       1  UNL1        0.0251
     47 H          -7.1227    0.5201   -0.3539 H       1  UNL1        0.0251
     48 H          -4.8098   -0.2883   -2.1403 H       1  UNL1        0.0251
     49 H          -4.1733   -1.8208   -1.3398 H       1  UNL1        0.0251
     50 H          -5.9508   -1.5914   -1.7448 H       1  UNL1        0.0251
     51 H          -4.2995   -0.8125    1.8989 H       1  UNL1        0.0251
     52 H          -5.6190   -1.9413    1.5369 H       1  UNL1        0.0251
     53 H          -4.0760   -2.1422    0.7123 H       1  UNL1        0.0251
     54 H          -2.7021    0.8018   -1.2720 H       1  UNL1        0.0519
     55 H          -2.5676    2.3258   -0.2612 H       1  UNL1        0.0519
     56 H          -2.3737   -0.6080    0.6563 H       1  UNL1        0.0519
     57 H          -1.9913   -0.0362    2.8437 H       1  UNL1        0.0319
     58 H          -0.7489    1.8497    3.7710 H       1  UNL1        0.0269
     59 H          -0.5296    2.7176    2.1853 H       1  UNL1        0.0269
     60 H          -3.2498    1.9903    3.3807 H       1  UNL1        0.0269
     61 H          -2.9190    2.7726    1.7278 H       1  UNL1        0.0269
     62 H           3.1898    1.8226   -1.7782 H       1  UNL1        0.0240
     63 H           2.1347    3.1031   -1.1601 H       1  UNL1        0.0240
     64 H           1.4962    1.9674   -2.3427 H       1  UNL1        0.0240
     65 H           1.7616    1.4462    1.8344 H       1  UNL1        0.0338
     66 H           2.0676    2.9150    0.8195 H       1  UNL1        0.0338
     67 H           4.1962    3.5031   -0.0323 H       1  UNL1        0.0644
     68 H           8.8639    3.6014   -0.6899 H       1  UNL1        0.2954
     69 H           7.5057    1.1970    1.2822 H       1  UNL1        0.0641
     70 H           6.0106   -0.4391    2.2162 H       1  UNL1        0.0830
     71 H           2.4613   -0.6309    0.5418 H       1  UNL1        0.0282
     72 H           3.0630   -0.2717   -1.0717 H       1  UNL1        0.0282
     73 H           1.5419   -2.2584   -0.6382 H       1  UNL1        0.0370
     74 H          -0.1563    0.3049   -2.9110 H       1  UNL1        0.0620
     75 H          -0.1109    0.0232   -5.2849 H       1  UNL1        0.0618
     76 H           1.1567   -1.7840   -6.2910 H       1  UNL1        0.0632
     77 H           2.4193   -3.1301   -2.5015 H       1  UNL1        0.0635
     78 H          -1.0105   -1.6029   -1.0271 H       1  UNL1        0.0556
     79 H           0.7164   -0.6299    2.1608 H       1  UNL1        0.0621
     80 H           0.6869   -2.1387    4.1161 H       1  UNL1        0.0632
     81 H          -1.1603   -5.1356    1.8524 H       1  UNL1        0.0632
     82 H          -1.1659   -3.6923   -0.1334 H       1  UNL1        0.0621
@<TRIPOS>BOND
     1     1     2    1
     2     2     3    1
     3     2     4    1
     4     2     5    1
     5     5     6    2
     6     5     7    2
     7     5     8    1
     8     8     9    1
     9     9    10    1
    10    10    11    1
    11    11    12    1
    12     9    13    1
    13    13    14   am
    14    14    15    2
    15    14    16    1
    16    16    17    1
    17    16    18    1
    18    18    19    1
    19    19    20   ar
    20    20    21   ar
    21    21    22    1
    22    22    23    2
    23    22    24    1
    24    21    25   ar
    25    25    26   ar
    26    26    27   ar
    27    16    28    1
    28    28    29    1
    29    29    30    1
    30    30    31   ar
    31    31    32   ar
    32    32    33   ar
    33    33    34   ar
    34    34    35    1
    35    34    36   ar
    36    29    37    1
    37    37    38    1
    38    38    39   ar
    39    39    40   ar
    40    40    41   ar
    41    41    42    1
    42    41    43   ar
    43    43    44   ar
    44    12    10    1
    45    37    13    1
    46    44    38   ar
    47    27    19   ar
    48    36    30   ar
    49     1    45    1
    50     1    46    1
    51     1    47    1
    52     3    48    1
    53     3    49    1
    54     3    50    1
    55     4    51    1
    56     4    52    1
    57     4    53    1
    58     8    54    1
    59     8    55    1
    60     9    56    1
    61    10    57    1
    62    11    58    1
    63    11    59    1
    64    12    60    1
    65    12    61    1
    66    17    62    1
    67    17    63    1
    68    17    64    1
    69    18    65    1
    70    18    66    1
    71    20    67    1
    72    24    68    1
    73    25    69    1
    74    26    70    1
    75    28    71    1
    76    28    72    1
    77    29    73    1
    78    31    74    1
    79    32    75    1
    80    33    76    1
    81    36    77    1
    82    37    78    1
    83    39    79    1
    84    40    80    1
    85    43    81    1
    86    44    82    1
