
     RDKit          3D

 82 86  0  0  0  0  0  0  0  0999 V2000
   -6.7608   -0.3953    0.1609 C   0  0  0  0  0  0  0  0  0  0  0  0
   -5.2267   -0.5088   -0.0614 C   0  0  0  0  0  0  0  0  0  0  0  0
   -5.0161   -1.1000   -1.4050 C   0  0  0  0  0  0  0  0  0  0  0  0
   -4.7576   -1.3698    1.0729 C   0  0  0  0  0  0  0  0  0  0  0  0
   -4.5358    1.1484    0.0972 S   0  0  0  0  0  6  0  0  0  0  0  0
   -5.2685    1.9255   -1.0305 O   0  0  0  0  0  0  0  0  0  0  0  0
   -5.0477    1.7469    1.3426 O   0  0  0  0  0  0  0  0  0  0  0  0
   -2.8189    1.2226   -0.2200 C   0  0  0  0  0  0  0  0  0  0  0  0
   -1.9440    0.4522    0.6500 C   0  0  2  0  0  0  0  0  0  0  0  0
   -1.7736    0.7970    2.0856 C   0  0  0  0  0  0  0  0  0  0  0  0
   -1.1541    1.9596    2.7105 C   0  0  0  0  0  0  0  0  0  0  0  0
   -2.6032    2.0469    2.5212 C   0  0  0  0  0  0  0  0  0  0  0  0
   -0.6343    0.1961   -0.0022 N   0  0  0  0  0  0  0  0  0  0  0  0
    0.2180    1.2909   -0.2600 C   0  0  0  0  0  0  0  0  0  0  0  0
   -0.2764    2.4179   -0.4566 O   0  0  0  0  0  0  0  0  0  0  0  0
    1.7084    1.1372   -0.3079 C   0  0  1  0  0  0  0  0  0  0  0  0
    2.1655    2.0336   -1.4691 C   0  0  0  0  0  0  0  0  0  0  0  0
    2.2558    1.8019    0.9367 C   0  0  0  0  0  0  0  0  0  0  0  0
    3.7462    1.6988    0.9955 C   0  0  0  0  0  0  0  0  0  0  0  0
    4.5894    2.6450    0.4557 C   0  0  0  0  0  0  0  0  0  0  0  0
    5.9547    2.4973    0.5401 C   0  0  0  0  0  0  0  0  0  0  0  0
    6.8741    3.4792   -0.0211 C   0  0  0  0  0  0  0  0  0  0  0  0
    6.4624    4.5096   -0.6089 O   0  0  0  0  0  0  0  0  0  0  0  0
    8.2613    3.3143    0.0720 O   0  0  0  0  0  0  0  0  0  0  0  0
    6.4252    1.3733    1.1815 C   0  0  0  0  0  0  0  0  0  0  0  0
    5.5658    0.4386    1.7151 C   0  0  0  0  0  0  0  0  0  0  0  0
    4.2598    0.6221    1.6102 N   0  0  0  0  0  0  0  0  0  0  0  0
    2.1228   -0.2716   -0.4604 C   0  0  0  0  0  0  0  0  0  0  0  0
    1.1318   -1.2439   -1.0013 C   0  0  2  0  0  0  0  0  0  0  0  0
    1.1256   -1.3808   -2.4579 C   0  0  0  0  0  0  0  0  0  0  0  0
    0.4311   -0.5190   -3.2619 C   0  0  0  0  0  0  0  0  0  0  0  0
    0.4500   -0.6736   -4.6373 C   0  0  0  0  0  0  0  0  0  0  0  0
    1.1601   -1.6860   -5.2105 C   0  0  0  0  0  0  0  0  0  0  0  0
    1.8667   -2.5677   -4.4432 C   0  0  0  0  0  0  0  0  0  0  0  0
    2.7816   -3.8718   -5.1685 Cl  0  0  0  0  0  0  0  0  0  0  0  0
    1.8313   -2.3893   -3.0550 C   0  0  0  0  0  0  0  0  0  0  0  0
   -0.2115   -1.1213   -0.3801 C   0  0  1  0  0  0  0  0  0  0  0  0
   -0.2104   -1.9952    0.8415 C   0  0  0  0  0  0  0  0  0  0  0  0
    0.2979   -1.6054    2.0555 C   0  0  0  0  0  0  0  0  0  0  0  0
    0.2836   -2.4431    3.1469 C   0  0  0  0  0  0  0  0  0  0  0  0
   -0.2409   -3.7219    3.0870 C   0  0  0  0  0  0  0  0  0  0  0  0
   -0.2580   -4.7868    4.4765 Cl  0  0  0  0  0  0  0  0  0  0  0  0
   -0.7543   -4.1294    1.8791 C   0  0  0  0  0  0  0  0  0  0  0  0
   -0.7439   -3.2960    0.7807 C   0  0  0  0  0  0  0  0  0  0  0  0
   -7.2607   -1.2763   -0.2772 H   0  0  0  0  0  0  0  0  0  0  0  0
   -7.0066   -0.3092    1.2190 H   0  0  0  0  0  0  0  0  0  0  0  0
   -7.1227    0.5201   -0.3539 H   0  0  0  0  0  0  0  0  0  0  0  0
   -4.8098   -0.2883   -2.1403 H   0  0  0  0  0  0  0  0  0  0  0  0
   -4.1733   -1.8208   -1.3398 H   0  0  0  0  0  0  0  0  0  0  0  0
   -5.9508   -1.5914   -1.7448 H   0  0  0  0  0  0  0  0  0  0  0  0
   -4.2995   -0.8125    1.8989 H   0  0  0  0  0  0  0  0  0  0  0  0
   -5.6190   -1.9413    1.5369 H   0  0  0  0  0  0  0  0  0  0  0  0
   -4.0760   -2.1422    0.7123 H   0  0  0  0  0  0  0  0  0  0  0  0
   -2.7021    0.8018   -1.2720 H   0  0  0  0  0  0  0  0  0  0  0  0
   -2.5676    2.3258   -0.2612 H   0  0  0  0  0  0  0  0  0  0  0  0
   -2.3737   -0.6080    0.6563 H   0  0  0  0  0  0  0  0  0  0  0  0
   -1.9913   -0.0362    2.8437 H   0  0  0  0  0  0  0  0  0  0  0  0
   -0.7489    1.8497    3.7710 H   0  0  0  0  0  0  0  0  0  0  0  0
   -0.5296    2.7176    2.1853 H   0  0  0  0  0  0  0  0  0  0  0  0
   -3.2498    1.9903    3.3807 H   0  0  0  0  0  0  0  0  0  0  0  0
   -2.9190    2.7726    1.7278 H   0  0  0  0  0  0  0  0  0  0  0  0
    3.1898    1.8226   -1.7782 H   0  0  0  0  0  0  0  0  0  0  0  0
    2.1347    3.1031   -1.1601 H   0  0  0  0  0  0  0  0  0  0  0  0
    1.4962    1.9674   -2.3427 H   0  0  0  0  0  0  0  0  0  0  0  0
    1.7616    1.4462    1.8344 H   0  0  0  0  0  0  0  0  0  0  0  0
    2.0676    2.9150    0.8195 H   0  0  0  0  0  0  0  0  0  0  0  0
    4.1962    3.5031   -0.0323 H   0  0  0  0  0  0  0  0  0  0  0  0
    8.8639    3.6014   -0.6899 H   0  0  0  0  0  0  0  0  0  0  0  0
    7.5057    1.1970    1.2822 H   0  0  0  0  0  0  0  0  0  0  0  0
    6.0106   -0.4391    2.2162 H   0  0  0  0  0  0  0  0  0  0  0  0
    2.4613   -0.6309    0.5418 H   0  0  0  0  0  0  0  0  0  0  0  0
    3.0630   -0.2717   -1.0717 H   0  0  0  0  0  0  0  0  0  0  0  0
    1.5419   -2.2584   -0.6382 H   0  0  0  0  0  0  0  0  0  0  0  0
   -0.1563    0.3049   -2.9110 H   0  0  0  0  0  0  0  0  0  0  0  0
   -0.1109    0.0232   -5.2849 H   0  0  0  0  0  0  0  0  0  0  0  0
    1.1567   -1.7840   -6.2910 H   0  0  0  0  0  0  0  0  0  0  0  0
    2.4193   -3.1301   -2.5015 H   0  0  0  0  0  0  0  0  0  0  0  0
   -1.0105   -1.6029   -1.0271 H   0  0  0  0  0  0  0  0  0  0  0  0
    0.7164   -0.6299    2.1608 H   0  0  0  0  0  0  0  0  0  0  0  0
    0.6869   -2.1387    4.1161 H   0  0  0  0  0  0  0  0  0  0  0  0
   -1.1603   -5.1356    1.8524 H   0  0  0  0  0  0  0  0  0  0  0  0
   -1.1659   -3.6923   -0.1334 H   0  0  0  0  0  0  0  0  0  0  0  0
  1  2  1  0
  2  3  1  0
  2  4  1  0
  2  5  1  0
  5  6  2  0
  5  7  2  0
  5  8  1  0
  8  9  1  0
  9 10  1  0
 10 11  1  0
 11 12  1  0
  9 13  1  0
 13 14  1  0
 14 15  2  0
 14 16  1  0
 16 17  1  6
 16 18  1  0
 18 19  1  0
 19 20  2  0
 20 21  1  0
 21 22  1  0
 22 23  2  0
 22 24  1  0
 21 25  2  0
 25 26  1  0
 26 27  2  0
 16 28  1  0
 28 29  1  0
 29 30  1  0
 30 31  2  0
 31 32  1  0
 32 33  2  0
 33 34  1  0
 34 35  1  0
 34 36  2  0
 29 37  1  0
 37 38  1  0
 38 39  2  0
 39 40  1  0
 40 41  2  0
 41 42  1  0
 41 43  1  0
 43 44  2  0
 12 10  1  0
 37 13  1  0
 44 38  1  0
 27 19  1  0
 36 30  1  0
  1 45  1  0
  1 46  1  0
  1 47  1  0
  3 48  1  0
  3 49  1  0
  3 50  1  0
  4 51  1  0
  4 52  1  0
  4 53  1  0
  8 54  1  0
  8 55  1  0
  9 56  1  1
 10 57  1  0
 11 58  1  0
 11 59  1  0
 12 60  1  0
 12 61  1  0
 17 62  1  0
 17 63  1  0
 17 64  1  0
 18 65  1  0
 18 66  1  0
 20 67  1  0
 24 68  1  0
 25 69  1  0
 26 70  1  0
 28 71  1  0
 28 72  1  0
 29 73  1  1
 31 74  1  0
 32 75  1  0
 33 76  1  0
 36 77  1  0
 37 78  1  6
 39 79  1  0
 40 80  1  0
 43 81  1  0
 44 82  1  0
M  END
$$$$
