@<TRIPOS>MOLECULE
*****
 66 70 0 0 0
SMALL
GASTEIGER

@<TRIPOS>ATOM
      1 C          10.7965    1.7584   -0.7529 C.3     1  UNL1        0.0804
      2 O           9.5959    2.5059   -0.8086 O.3     1  UNL1       -0.4796
      3 C           8.3857    1.9064   -0.5307 C.ar    1  UNL1        0.2144
      4 C           7.2221    2.6374   -0.5868 C.ar    1  UNL1        0.0003
      5 C           6.0311    2.0180   -0.3057 C.ar    1  UNL1       -0.0494
      6 C           5.9434    0.6825    0.0345 C.ar    1  UNL1        0.0022
      7 C           4.6130    0.1230    0.3154 C.3     1  UNL1        0.0924
      8 O           4.0960    0.7796    1.4384 O.3     1  UNL1       -0.3839
      9 C           4.7047   -1.3445    0.6636 C.3     1  UNL1       -0.0184
     10 C           3.3936   -2.0311    0.7973 C.3     1  UNL1       -0.0344
     11 C           2.3409   -1.4258   -0.1083 C.3     1  UNL1        0.0107
     12 N           1.3521   -2.3798   -0.4909 N.3     1  UNL1       -0.2958
     13 C           0.3258   -1.7860   -1.3204 C.3     1  UNL1        0.0189
     14 C          -0.5111   -1.5834   -0.0686 C.3     1  UNL1        0.0486
     15 N          -1.9014   -1.9161   -0.3490 N.am    1  UNL1       -0.3087
     16 C          -2.9691   -1.0432   -0.0104 C.2     1  UNL1        0.2305
     17 O          -2.7379    0.0539    0.5487 O.2     1  UNL1       -0.2741
     18 C          -4.3937   -1.3821   -0.2982 C.3     1  UNL1        0.0870
     19 N          -5.2884   -0.3501    0.1390 N.pl3   1  UNL1       -0.3186
     20 C          -6.6830   -0.5091   -0.0813 C.ar    1  UNL1        0.1486
     21 N          -7.3034   -1.5409   -0.6771 N.ar    1  UNL1       -0.1578
     22 N          -8.6173   -1.3516   -0.7133 N.ar    1  UNL1       -0.2752
     23 C          -8.9102   -0.1697   -0.1331 C.ar    1  UNL1        0.0676
     24 C         -10.0731    0.5310    0.1099 C.ar    1  UNL1       -0.0357
     25 C         -10.0086    1.7646    0.7535 C.ar    1  UNL1       -0.0481
     26 C          -8.8067    2.2764    1.1404 C.ar    1  UNL1        0.0556
     27 C          -8.6812    3.5989    1.8379 C.3     1  UNL1        0.4174
     28 F          -7.4405    4.1387    1.5695 F       1  UNL1       -0.1659
     29 F          -8.6955    3.3133    3.2113 F       1  UNL1       -0.1659
     30 F          -9.7196    4.4064    1.4730 F       1  UNL1       -0.1659
     31 C          -7.6312    1.5885    0.9049 C.ar    1  UNL1       -0.0376
     32 C          -7.7049    0.3720    0.2693 C.ar    1  UNL1        0.0417
     33 C           0.3314   -2.6781    0.4942 C.3     1  UNL1        0.0189
     34 C           3.0860   -0.9458   -1.3415 C.3     1  UNL1       -0.0344
     35 C           3.7618    0.3475   -0.9210 C.3     1  UNL1       -0.0184
     36 C           7.1282   -0.0179    0.0811 C.ar    1  UNL1        0.0373
     37 N           8.2957    0.5897   -0.1952 N.ar    1  UNL1       -0.2210
     38 H          11.4914    2.2809   -0.0781 H       1  UNL1        0.0660
     39 H          10.6342    0.7232   -0.3977 H       1  UNL1        0.0660
     40 H          11.2243    1.7112   -1.7813 H       1  UNL1        0.0660
     41 H           7.2725    3.6817   -0.8505 H       1  UNL1        0.0671
     42 H           5.1302    2.6185   -0.3578 H       1  UNL1        0.0623
     43 H           4.8373    0.7122    2.1237 H       1  UNL1        0.2106
     44 H           5.3111   -1.9096   -0.0750 H       1  UNL1        0.0297
     45 H           5.2436   -1.4075    1.6317 H       1  UNL1        0.0297
     46 H           3.0195   -2.0296    1.8630 H       1  UNL1        0.0281
     47 H           3.4663   -3.1062    0.5272 H       1  UNL1        0.0281
     48 H           1.8499   -0.5481    0.3412 H       1  UNL1        0.0462
     49 H           0.5243   -0.8124   -1.7662 H       1  UNL1        0.0445
     50 H          -0.1549   -2.5088   -2.0280 H       1  UNL1        0.0445
     51 H          -0.4087   -0.6094    0.4163 H       1  UNL1        0.0523
     52 H          -2.1685   -2.8157   -0.8122 H       1  UNL1        0.1491
     53 H          -4.6120   -2.2772    0.3588 H       1  UNL1        0.0557
     54 H          -4.5366   -1.6798   -1.3357 H       1  UNL1        0.0557
     55 H          -4.9105    0.4929    0.6055 H       1  UNL1        0.1480
     56 H          -9.3207   -2.0111   -1.1259 H       1  UNL1        0.1890
     57 H         -11.0309    0.1342   -0.1925 H       1  UNL1        0.0639
     58 H         -10.9010    2.3550    0.9680 H       1  UNL1        0.0624
     59 H          -6.6833    1.9845    1.2054 H       1  UNL1        0.0631
     60 H          -0.0780   -3.7012    0.3608 H       1  UNL1        0.0445
     61 H           0.6900   -2.4866    1.5249 H       1  UNL1        0.0445
     62 H           2.4871   -0.8508   -2.2359 H       1  UNL1        0.0281
     63 H           3.9305   -1.6490   -1.5935 H       1  UNL1        0.0281
     64 H           4.3124    0.7690   -1.7667 H       1  UNL1        0.0297
     65 H           2.9498    1.0486   -0.6286 H       1  UNL1        0.0297
     66 H           7.1038   -1.0456    0.3394 H       1  UNL1        0.0834
@<TRIPOS>BOND
     1     1     2    1
     2     2     3    1
     3     3     4   ar
     4     4     5   ar
     5     5     6   ar
     6     6     7    1
     7     7     8    1
     8     7     9    1
     9     9    10    1
    10    10    11    1
    11    11    12    1
    12    12    13    1
    13    13    14    1
    14    14    15    1
    15    15    16   am
    16    16    17    2
    17    16    18    1
    18    18    19    1
    19    19    20    1
    20    20    21   ar
    21    21    22   ar
    22    22    23   ar
    23    23    24   ar
    24    24    25   ar
    25    25    26   ar
    26    26    27    1
    27    27    28    1
    28    27    29    1
    29    27    30    1
    30    26    31   ar
    31    31    32   ar
    32    14    33    1
    33    11    34    1
    34    34    35    1
    35     6    36   ar
    36    36    37   ar
    37    37     3   ar
    38    35     7    1
    39    33    12    1
    40    32    20   ar
    41    32    23   ar
    42     1    38    1
    43     1    39    1
    44     1    40    1
    45     4    41    1
    46     5    42    1
    47     8    43    1
    48     9    44    1
    49     9    45    1
    50    10    46    1
    51    10    47    1
    52    11    48    1
    53    13    49    1
    54    13    50    1
    55    14    51    1
    56    15    52    1
    57    18    53    1
    58    18    54    1
    59    19    55    1
    60    22    56    1
    61    24    57    1
    62    25    58    1
    63    31    59    1
    64    33    60    1
    65    33    61    1
    66    34    62    1
    67    34    63    1
    68    35    64    1
    69    35    65    1
    70    36    66    1
