
     RDKit          3D

 59 63  0  0  0  0  0  0  0  0999 V2000
    3.9722   -3.8517    0.5996 C   0  0  0  0  0  0  0  0  0  0  0  0
    3.6630   -2.4037    0.5151 C   0  0  0  0  0  0  0  0  0  0  0  0
    4.6131   -1.4110    0.4786 C   0  0  0  0  0  0  0  0  0  0  0  0
    4.2907   -0.0739    0.3999 C   0  0  0  0  0  0  0  0  0  0  0  0
    5.3453    0.9356    0.3647 C   0  0  0  0  0  0  0  0  0  0  0  0
    6.5894    0.6535    0.4003 N   0  0  0  0  0  0  0  0  0  0  0  0
    7.6908    1.5768    0.3707 C   0  0  0  0  0  0  0  0  0  0  0  0
    7.3728    2.9686   -0.0316 C   0  0  0  0  0  0  0  0  0  0  0  0
    5.9457    3.2713   -0.3299 C   0  0  0  0  0  0  0  0  0  0  0  0
    5.0118    2.3281    0.2829 N   0  0  0  0  0  0  0  0  0  0  0  0
    2.9498    0.2691    0.3566 C   0  0  0  0  0  0  0  0  0  0  0  0
    1.9680   -0.6824    0.3902 C   0  0  0  0  0  0  0  0  0  0  0  0
    0.5955   -0.6756    0.3640 N   0  0  0  0  0  0  0  0  0  0  0  0
    0.1060   -1.9039    0.4238 C   0  0  0  0  0  0  0  0  0  0  0  0
   -1.2202   -2.4927    0.3547 C   0  0  0  0  0  0  0  0  0  0  0  0
   -2.4016   -1.8037    0.3365 C   0  0  0  0  0  0  0  0  0  0  0  0
   -2.4943   -0.4515    0.7367 N   0  0  0  0  0  0  0  0  0  0  0  0
   -3.6794    0.3627    0.6608 C   0  0  0  0  0  0  0  0  0  0  0  0
   -3.9918    0.9068   -0.6933 C   0  0  0  0  0  0  0  0  0  0  0  0
   -4.1757   -0.0487   -1.6598 O   0  0  0  0  0  0  0  0  0  0  0  0
   -5.2746    1.6900   -0.5395 C   0  0  0  0  0  0  0  0  0  0  0  0
   -6.4740    1.0267   -0.4799 C   0  0  0  0  0  0  0  0  0  0  0  0
   -7.6641    1.7159   -0.3397 C   0  0  0  0  0  0  0  0  0  0  0  0
   -7.6352    3.1053   -0.2586 C   0  0  0  0  0  0  0  0  0  0  0  0
   -6.4431    3.7678   -0.3177 C   0  0  0  0  0  0  0  0  0  0  0  0
   -6.4258    5.5219   -0.2138 Cl  0  0  0  0  0  0  0  0  0  0  0  0
   -5.2514    3.0469   -0.4599 C   0  0  0  0  0  0  0  0  0  0  0  0
   -3.6223   -2.4455    0.1042 C   0  0  0  0  0  0  0  0  0  0  0  0
   -3.6793   -3.8079   -0.1126 C   0  0  0  0  0  0  0  0  0  0  0  0
   -2.5235   -4.4741   -0.0884 N   0  0  0  0  0  0  0  0  0  0  0  0
   -1.3614   -3.8757    0.1292 C   0  0  0  0  0  0  0  0  0  0  0  0
   -0.3096   -4.5551    0.1409 O   0  0  0  0  0  0  0  0  0  0  0  0
    1.2133   -2.7087    0.4872 N   0  0  0  0  0  0  0  0  0  0  0  0
    2.3247   -1.9955    0.4683 C   0  0  0  0  0  0  0  0  0  0  0  0
    4.1161   -4.3331   -0.3693 H   0  0  0  0  0  0  0  0  0  0  0  0
    4.8852   -3.9959    1.2363 H   0  0  0  0  0  0  0  0  0  0  0  0
    3.1448   -4.3578    1.1623 H   0  0  0  0  0  0  0  0  0  0  0  0
    5.6566   -1.6932    0.5132 H   0  0  0  0  0  0  0  0  0  0  0  0
    8.1515    1.5876    1.3897 H   0  0  0  0  0  0  0  0  0  0  0  0
    8.5227    1.1831   -0.2900 H   0  0  0  0  0  0  0  0  0  0  0  0
    7.7689    3.7239    0.7036 H   0  0  0  0  0  0  0  0  0  0  0  0
    7.9447    3.2132   -0.9768 H   0  0  0  0  0  0  0  0  0  0  0  0
    5.6771    4.3020   -0.0449 H   0  0  0  0  0  0  0  0  0  0  0  0
    5.7392    3.1916   -1.4374 H   0  0  0  0  0  0  0  0  0  0  0  0
    4.1169    2.6708    0.6527 H   0  0  0  0  0  0  0  0  0  0  0  0
    2.6430    1.3079    0.2944 H   0  0  0  0  0  0  0  0  0  0  0  0
    0.0763    0.2119    0.2698 H   0  0  0  0  0  0  0  0  0  0  0  0
   -1.6508   -0.0370    1.1689 H   0  0  0  0  0  0  0  0  0  0  0  0
   -3.5130    1.2447    1.3522 H   0  0  0  0  0  0  0  0  0  0  0  0
   -4.5781   -0.1760    1.0325 H   0  0  0  0  0  0  0  0  0  0  0  0
   -3.1859    1.5904   -1.0748 H   0  0  0  0  0  0  0  0  0  0  0  0
   -4.7821    0.2220   -2.3849 H   0  0  0  0  0  0  0  0  0  0  0  0
   -6.5217   -0.0512   -0.5408 H   0  0  0  0  0  0  0  0  0  0  0  0
   -8.6303    1.2314   -0.2886 H   0  0  0  0  0  0  0  0  0  0  0  0
   -8.5664    3.6460   -0.1488 H   0  0  0  0  0  0  0  0  0  0  0  0
   -4.3470    3.6052   -0.5014 H   0  0  0  0  0  0  0  0  0  0  0  0
   -4.5619   -1.9400    0.0982 H   0  0  0  0  0  0  0  0  0  0  0  0
   -4.5980   -4.3309   -0.2943 H   0  0  0  0  0  0  0  0  0  0  0  0
   -2.5327   -5.5025   -0.2469 H   0  0  0  0  0  0  0  0  0  0  0  0
  1  2  1  0
  2  3  2  0
  3  4  1  0
  4  5  1  0
  5  6  2  0
  6  7  1  0
  7  8  1  0
  8  9  1  0
  9 10  1  0
  4 11  2  0
 11 12  1  0
 12 13  1  0
 13 14  1  0
 14 15  1  0
 15 16  2  0
 16 17  1  0
 17 18  1  0
 18 19  1  0
 19 20  1  0
 19 21  1  0
 21 22  2  0
 22 23  1  0
 23 24  2  0
 24 25  1  0
 25 26  1  0
 25 27  2  0
 16 28  1  0
 28 29  2  0
 29 30  1  0
 30 31  1  0
 31 32  2  0
 14 33  2  0
 33 34  1  0
 34  2  1  0
 10  5  1  0
 34 12  2  0
 31 15  1  0
 27 21  1  0
  1 35  1  0
  1 36  1  0
  1 37  1  0
  3 38  1  0
  7 39  1  0
  7 40  1  0
  8 41  1  0
  8 42  1  0
  9 43  1  0
  9 44  1  0
 10 45  1  0
 11 46  1  0
 13 47  1  0
 17 48  1  0
 18 49  1  0
 18 50  1  0
 19 51  1  0
 20 52  1  0
 22 53  1  0
 23 54  1  0
 24 55  1  0
 27 56  1  0
 28 57  1  0
 29 58  1  0
 30 59  1  0
M  END
$$$$
