@<TRIPOS>MOLECULE
*****
 59 63 0 0 0
SMALL
GASTEIGER

@<TRIPOS>ATOM
      1 C           3.9722   -3.8517    0.5996 C.3     1  UNL1       -0.0376
      2 C           3.6630   -2.4037    0.5151 C.ar    1  UNL1       -0.0222
      3 C           4.6131   -1.4110    0.4786 C.ar    1  UNL1       -0.0418
      4 C           4.2907   -0.0739    0.3999 C.ar    1  UNL1        0.0673
      5 C           5.3453    0.9356    0.3647 C.2     1  UNL1        0.3127
      6 N           6.5894    0.6535    0.4003 N.2     1  UNL1       -0.0828
      7 C           7.6908    1.5768    0.3707 C.3     1  UNL1        0.1355
      8 C           7.3728    2.9686   -0.0316 C.3     1  UNL1        0.0251
      9 C           5.9457    3.2713   -0.3299 C.3     1  UNL1        0.0819
     10 N           5.0118    2.3281    0.2829 N.pl3   1  UNL1       -0.2334
     11 C           2.9498    0.2691    0.3566 C.ar    1  UNL1       -0.0214
     12 C           1.9680   -0.6824    0.3902 C.ar    1  UNL1        0.0675
     13 N           0.5955   -0.6756    0.3640 N.ar    1  UNL1       -0.3377
     14 C           0.1060   -1.9039    0.4238 C.ar    1  UNL1        0.1463
     15 C          -1.2202   -2.4927    0.3547 C.ar    1  UNL1        0.1022
     16 C          -2.4016   -1.8037    0.3365 C.ar    1  UNL1        0.0446
     17 N          -2.4943   -0.4515    0.7367 N.pl3   1  UNL1       -0.3403
     18 C          -3.6794    0.3627    0.6608 C.3     1  UNL1        0.0393
     19 C          -3.9918    0.9068   -0.6933 C.3     1  UNL1        0.0956
     20 O          -4.1757   -0.0487   -1.6598 O.3     1  UNL1       -0.3856
     21 C          -5.2746    1.6900   -0.5395 C.ar    1  UNL1       -0.0163
     22 C          -6.4740    1.0267   -0.4799 C.ar    1  UNL1       -0.0560
     23 C          -7.6641    1.7159   -0.3397 C.ar    1  UNL1       -0.0600
     24 C          -7.6352    3.1053   -0.2586 C.ar    1  UNL1       -0.0434
     25 C          -6.4431    3.7678   -0.3177 C.ar    1  UNL1        0.0413
     26 CL         -6.4258    5.5219   -0.2138 Cl      1  UNL1       -0.0835
     27 C          -5.2514    3.0469   -0.4599 C.ar    1  UNL1       -0.0377
     28 C          -3.6223   -2.4455    0.1042 C.ar    1  UNL1       -0.0239
     29 C          -3.6793   -3.8079   -0.1126 C.ar    1  UNL1        0.0067
     30 N          -2.5235   -4.4741   -0.0884 N.ar    1  UNL1       -0.3284
     31 C          -1.3614   -3.8757    0.1292 C.ar    1  UNL1        0.2612
     32 O          -0.3096   -4.5551    0.1409 O.2     1  UNL1       -0.2671
     33 N           1.2133   -2.7087    0.4872 N.ar    1  UNL1       -0.2272
     34 C           2.3247   -1.9955    0.4683 C.ar    1  UNL1        0.0924
     35 H           4.1161   -4.3331   -0.3693 H       1  UNL1        0.0278
     36 H           4.8852   -3.9959    1.2363 H       1  UNL1        0.0278
     37 H           3.1448   -4.3578    1.1623 H       1  UNL1        0.0278
     38 H           5.6566   -1.6932    0.5132 H       1  UNL1        0.0629
     39 H           8.1515    1.5876    1.3897 H       1  UNL1        0.0792
     40 H           8.5227    1.1831   -0.2900 H       1  UNL1        0.0792
     41 H           7.7689    3.7239    0.7036 H       1  UNL1        0.0341
     42 H           7.9447    3.2132   -0.9768 H       1  UNL1        0.0341
     43 H           5.6771    4.3020   -0.0449 H       1  UNL1        0.0726
     44 H           5.7392    3.1916   -1.4374 H       1  UNL1        0.0726
     45 H           4.1169    2.6708    0.6527 H       1  UNL1        0.2913
     46 H           2.6430    1.3079    0.2944 H       1  UNL1        0.0647
     47 H           0.0763    0.2119    0.2698 H       1  UNL1        0.1674
     48 H          -1.6508   -0.0370    1.1689 H       1  UNL1        0.1462
     49 H          -3.5130    1.2447    1.3522 H       1  UNL1        0.0490
     50 H          -4.5781   -0.1760    1.0325 H       1  UNL1        0.0490
     51 H          -3.1859    1.5904   -1.0748 H       1  UNL1        0.0659
     52 H          -4.7821    0.2220   -2.3849 H       1  UNL1        0.2103
     53 H          -6.5217   -0.0512   -0.5408 H       1  UNL1        0.0621
     54 H          -8.6303    1.2314   -0.2886 H       1  UNL1        0.0618
     55 H          -8.5664    3.6460   -0.1488 H       1  UNL1        0.0632
     56 H          -4.3470    3.6052   -0.5014 H       1  UNL1        0.0636
     57 H          -4.5619   -1.9400    0.0982 H       1  UNL1        0.0651
     58 H          -4.5980   -4.3309   -0.2943 H       1  UNL1        0.0808
     59 H          -2.5327   -5.5025   -0.2469 H       1  UNL1        0.1683
@<TRIPOS>BOND
     1     1     2    1
     2     2     3   ar
     3     3     4   ar
     4     4     5    1
     5     5     6    2
     6     6     7    1
     7     7     8    1
     8     8     9    1
     9     9    10    1
    10     4    11   ar
    11    11    12   ar
    12    12    13   ar
    13    13    14   ar
    14    14    15    1
    15    15    16   ar
    16    16    17    1
    17    17    18    1
    18    18    19    1
    19    19    20    1
    20    19    21    1
    21    21    22   ar
    22    22    23   ar
    23    23    24   ar
    24    24    25   ar
    25    25    26    1
    26    25    27   ar
    27    16    28   ar
    28    28    29   ar
    29    29    30   ar
    30    30    31   ar
    31    31    32    2
    32    14    33   ar
    33    33    34   ar
    34    34     2   ar
    35    10     5    1
    36    34    12   ar
    37    31    15   ar
    38    27    21   ar
    39     1    35    1
    40     1    36    1
    41     1    37    1
    42     3    38    1
    43     7    39    1
    44     7    40    1
    45     8    41    1
    46     8    42    1
    47     9    43    1
    48     9    44    1
    49    10    45    1
    50    11    46    1
    51    13    47    1
    52    17    48    1
    53    18    49    1
    54    18    50    1
    55    19    51    1
    56    20    52    1
    57    22    53    1
    58    23    54    1
    59    24    55    1
    60    27    56    1
    61    28    57    1
    62    29    58    1
    63    30    59    1
