@<TRIPOS>MOLECULE
*****
 59 64 0 0 0
SMALL
GASTEIGER

@<TRIPOS>ATOM
      1 C          -1.0845   -6.1703    1.6246 C.3     1  UNL1        0.0168
      2 N          -0.8105   -4.8849    1.0236 N.ar    1  UNL1       -0.2934
      3 C          -1.2634   -3.7063    1.4427 C.ar    1  UNL1        0.3345
      4 O          -2.0485   -3.5120    2.3762 O.2     1  UNL1       -0.2459
      5 N          -0.7129   -2.7367    0.6789 N.ar    1  UNL1       -0.2601
      6 C          -0.8799   -1.3228    1.0830 C.ar    1  UNL1        0.0515
      7 C          -1.9871   -0.6097    0.3485 C.ar    1  UNL1       -0.0374
      8 C          -2.1458    0.6702    0.8096 C.ar    1  UNL1       -0.0551
      9 C          -1.4047    1.2686    1.8124 C.ar    1  UNL1       -0.0279
     10 C          -1.7856    2.6247    2.2212 C.3     1  UNL1        0.0766
     11 C          -0.9272    3.2262    3.2501 C.3     1  UNL1       -0.0428
     12 C          -3.2612    2.6317    2.6706 C.3     1  UNL1       -0.0428
     13 C          -1.7517    3.4998    1.0315 C.1     1  UNL1        0.0734
     14 N          -1.7355    4.1887    0.1146 N.1     1  UNL1       -0.1957
     15 C          -0.3433    0.6000    2.5225 C.ar    1  UNL1       -0.0551
     16 C          -0.4113   -0.7632    1.8087 C.ar    1  UNL1       -0.0374
     17 C           0.0583   -3.2816   -0.2146 C.ar    1  UNL1        0.0856
     18 C           0.8878   -2.8231   -1.2546 C.ar    1  UNL1        0.0269
     19 C           0.8858   -1.4445   -1.4800 C.ar    1  UNL1       -0.0427
     20 C           1.6780   -0.9212   -2.5441 C.ar    1  UNL1       -0.0157
     21 C           1.6197    0.5138   -2.7447 C.ar    1  UNL1        0.0008
     22 C           1.7113    1.1678   -3.9311 C.ar    1  UNL1        0.0360
     23 N           1.6752    2.5656   -3.9319 N.ar    1  UNL1       -0.2544
     24 C           1.5565    3.3171   -2.8425 C.ar    1  UNL1        0.0710
     25 C           1.5355    4.6735   -2.8627 C.ar    1  UNL1       -0.0357
     26 C           1.4321    5.4435   -1.7131 C.ar    1  UNL1       -0.0597
     27 C           1.3482    4.7753   -0.5019 C.ar    1  UNL1       -0.0611
     28 C           1.3680    3.4030   -0.4518 C.ar    1  UNL1       -0.0525
     29 C           1.4659    2.6574   -1.6289 C.ar    1  UNL1        0.0010
     30 C           1.4920    1.3002   -1.5663 C.ar    1  UNL1       -0.0434
     31 C           2.3840   -1.7641   -3.2706 C.ar    1  UNL1       -0.0519
     32 C           2.4061   -3.1700   -3.0561 C.ar    1  UNL1       -0.0351
     33 C           1.6288   -3.6680   -2.0246 C.ar    1  UNL1        0.0731
     34 N           1.6005   -5.0023   -1.8390 N.ar    1  UNL1       -0.2528
     35 C           0.7776   -5.4512   -0.8391 C.ar    1  UNL1        0.0539
     36 C           0.0335   -4.6873   -0.0349 C.ar    1  UNL1        0.0886
     37 H          -2.0098   -6.1128    2.2043 H       1  UNL1        0.0457
     38 H          -1.0476   -7.0153    0.9128 H       1  UNL1        0.0457
     39 H          -0.2671   -6.3820    2.4121 H       1  UNL1        0.0457
     40 H          -2.5098   -1.1320   -0.3755 H       1  UNL1        0.0638
     41 H          -2.9591    1.2923    0.3606 H       1  UNL1        0.0621
     42 H          -0.6350    4.2831    2.8808 H       1  UNL1        0.0248
     43 H          -1.5808    3.4641    4.1567 H       1  UNL1        0.0248
     44 H          -0.0591    2.6685    3.5909 H       1  UNL1        0.0248
     45 H          -3.6553    3.6186    2.4408 H       1  UNL1        0.0248
     46 H          -3.7739    1.8153    2.1406 H       1  UNL1        0.0248
     47 H          -3.2752    2.4820    3.7593 H       1  UNL1        0.0248
     48 H           0.2701    0.8448    3.1949 H       1  UNL1        0.0621
     49 H           0.6522   -1.2028    2.4285 H       1  UNL1        0.0638
     50 H           0.3110   -0.7814   -0.8972 H       1  UNL1        0.0631
     51 H           1.8457    0.6072   -4.8203 H       1  UNL1        0.0836
     52 H           1.5970    5.1922   -3.8408 H       1  UNL1        0.0639
     53 H           1.4080    6.5191   -1.7812 H       1  UNL1        0.0618
     54 H           1.2534    5.3588    0.4119 H       1  UNL1        0.0618
     55 H           1.3057    2.9177    0.5009 H       1  UNL1        0.0624
     56 H           1.4180    0.7851   -0.6403 H       1  UNL1        0.0631
     57 H           2.9926   -1.4350   -4.1213 H       1  UNL1        0.0624
     58 H           2.9823   -3.8214   -3.6852 H       1  UNL1        0.0639
     59 H           0.7449   -6.5742   -0.7331 H       1  UNL1        0.0851
@<TRIPOS>BOND
     1     1     2    1
     2     2     3   ar
     3     3     4    2
     4     3     5   ar
     5     5     6    1
     6     6     7   ar
     7     7     8   ar
     8     8     9   ar
     9     9    10    1
    10    10    11    1
    11    10    12    1
    12    10    13    1
    13    13    14    3
    14     9    15   ar
    15    15    16   ar
    16     5    17   ar
    17    17    18   ar
    18    18    19   ar
    19    19    20   ar
    20    20    21    1
    21    21    22   ar
    22    22    23   ar
    23    23    24   ar
    24    24    25   ar
    25    25    26   ar
    26    26    27   ar
    27    27    28   ar
    28    28    29   ar
    29    29    30   ar
    30    20    31   ar
    31    31    32   ar
    32    32    33   ar
    33    33    34   ar
    34    34    35   ar
    35    35    36   ar
    36    36     2   ar
    37    16     6   ar
    38    36    17   ar
    39    33    18   ar
    40    30    21   ar
    41    29    24   ar
    42     1    37    1
    43     1    38    1
    44     1    39    1
    45     7    40    1
    46     8    41    1
    47    11    42    1
    48    11    43    1
    49    11    44    1
    50    12    45    1
    51    12    46    1
    52    12    47    1
    53    15    48    1
    54    16    49    1
    55    19    50    1
    56    22    51    1
    57    25    52    1
    58    26    53    1
    59    27    54    1
    60    28    55    1
    61    30    56    1
    62    31    57    1
    63    32    58    1
    64    35    59    1
