
     RDKit          3D

 59 64  0  0  0  0  0  0  0  0999 V2000
   -1.0845   -6.1703    1.6246 C   0  0  0  0  0  0  0  0  0  0  0  0
   -0.8105   -4.8849    1.0236 N   0  0  0  0  0  0  0  0  0  0  0  0
   -1.2634   -3.7063    1.4427 C   0  0  0  0  0  0  0  0  0  0  0  0
   -2.0485   -3.5120    2.3762 O   0  0  0  0  0  0  0  0  0  0  0  0
   -0.7129   -2.7367    0.6789 N   0  0  0  0  0  0  0  0  0  0  0  0
   -0.8799   -1.3228    1.0830 C   0  0  0  0  0  0  0  0  0  0  0  0
   -1.9871   -0.6097    0.3485 C   0  0  0  0  0  0  0  0  0  0  0  0
   -2.1458    0.6702    0.8096 C   0  0  0  0  0  0  0  0  0  0  0  0
   -1.4047    1.2686    1.8124 C   0  0  0  0  0  0  0  0  0  0  0  0
   -1.7856    2.6247    2.2212 C   0  0  0  0  0  0  0  0  0  0  0  0
   -0.9272    3.2262    3.2501 C   0  0  0  0  0  0  0  0  0  0  0  0
   -3.2612    2.6317    2.6706 C   0  0  0  0  0  0  0  0  0  0  0  0
   -1.7517    3.4998    1.0315 C   0  0  0  0  0  0  0  0  0  0  0  0
   -1.7355    4.1887    0.1146 N   0  0  0  0  0  0  0  0  0  0  0  0
   -0.3433    0.6000    2.5225 C   0  0  0  0  0  0  0  0  0  0  0  0
   -0.4113   -0.7632    1.8087 C   0  0  0  0  0  0  0  0  0  0  0  0
    0.0583   -3.2816   -0.2146 C   0  0  0  0  0  0  0  0  0  0  0  0
    0.8878   -2.8231   -1.2546 C   0  0  0  0  0  0  0  0  0  0  0  0
    0.8858   -1.4445   -1.4800 C   0  0  0  0  0  0  0  0  0  0  0  0
    1.6780   -0.9212   -2.5441 C   0  0  0  0  0  0  0  0  0  0  0  0
    1.6197    0.5138   -2.7447 C   0  0  0  0  0  0  0  0  0  0  0  0
    1.7113    1.1678   -3.9311 C   0  0  0  0  0  0  0  0  0  0  0  0
    1.6752    2.5656   -3.9319 N   0  0  0  0  0  0  0  0  0  0  0  0
    1.5565    3.3171   -2.8425 C   0  0  0  0  0  0  0  0  0  0  0  0
    1.5355    4.6735   -2.8627 C   0  0  0  0  0  0  0  0  0  0  0  0
    1.4321    5.4435   -1.7131 C   0  0  0  0  0  0  0  0  0  0  0  0
    1.3482    4.7753   -0.5019 C   0  0  0  0  0  0  0  0  0  0  0  0
    1.3680    3.4030   -0.4518 C   0  0  0  0  0  0  0  0  0  0  0  0
    1.4659    2.6574   -1.6289 C   0  0  0  0  0  0  0  0  0  0  0  0
    1.4920    1.3002   -1.5663 C   0  0  0  0  0  0  0  0  0  0  0  0
    2.3840   -1.7641   -3.2706 C   0  0  0  0  0  0  0  0  0  0  0  0
    2.4061   -3.1700   -3.0561 C   0  0  0  0  0  0  0  0  0  0  0  0
    1.6288   -3.6680   -2.0246 C   0  0  0  0  0  0  0  0  0  0  0  0
    1.6005   -5.0023   -1.8390 N   0  0  0  0  0  0  0  0  0  0  0  0
    0.7776   -5.4512   -0.8391 C   0  0  0  0  0  0  0  0  0  0  0  0
    0.0335   -4.6873   -0.0349 C   0  0  0  0  0  0  0  0  0  0  0  0
   -2.0098   -6.1128    2.2043 H   0  0  0  0  0  0  0  0  0  0  0  0
   -1.0476   -7.0153    0.9128 H   0  0  0  0  0  0  0  0  0  0  0  0
   -0.2671   -6.3820    2.4121 H   0  0  0  0  0  0  0  0  0  0  0  0
   -2.5098   -1.1320   -0.3755 H   0  0  0  0  0  0  0  0  0  0  0  0
   -2.9591    1.2923    0.3606 H   0  0  0  0  0  0  0  0  0  0  0  0
   -0.6350    4.2831    2.8808 H   0  0  0  0  0  0  0  0  0  0  0  0
   -1.5808    3.4641    4.1567 H   0  0  0  0  0  0  0  0  0  0  0  0
   -0.0591    2.6685    3.5909 H   0  0  0  0  0  0  0  0  0  0  0  0
   -3.6553    3.6186    2.4408 H   0  0  0  0  0  0  0  0  0  0  0  0
   -3.7739    1.8153    2.1406 H   0  0  0  0  0  0  0  0  0  0  0  0
   -3.2752    2.4820    3.7593 H   0  0  0  0  0  0  0  0  0  0  0  0
    0.2701    0.8448    3.1949 H   0  0  0  0  0  0  0  0  0  0  0  0
    0.6522   -1.2028    2.4285 H   0  0  0  0  0  0  0  0  0  0  0  0
    0.3110   -0.7814   -0.8972 H   0  0  0  0  0  0  0  0  0  0  0  0
    1.8457    0.6072   -4.8203 H   0  0  0  0  0  0  0  0  0  0  0  0
    1.5970    5.1922   -3.8408 H   0  0  0  0  0  0  0  0  0  0  0  0
    1.4080    6.5191   -1.7812 H   0  0  0  0  0  0  0  0  0  0  0  0
    1.2534    5.3588    0.4119 H   0  0  0  0  0  0  0  0  0  0  0  0
    1.3057    2.9177    0.5009 H   0  0  0  0  0  0  0  0  0  0  0  0
    1.4180    0.7851   -0.6403 H   0  0  0  0  0  0  0  0  0  0  0  0
    2.9926   -1.4350   -4.1213 H   0  0  0  0  0  0  0  0  0  0  0  0
    2.9823   -3.8214   -3.6852 H   0  0  0  0  0  0  0  0  0  0  0  0
    0.7449   -6.5742   -0.7331 H   0  0  0  0  0  0  0  0  0  0  0  0
  1  2  1  0
  2  3  1  0
  3  4  2  0
  3  5  1  0
  5  6  1  0
  6  7  2  0
  7  8  1  0
  8  9  2  0
  9 10  1  0
 10 11  1  0
 10 12  1  0
 10 13  1  0
 13 14  3  0
  9 15  1  0
 15 16  2  0
  5 17  1  0
 17 18  2  0
 18 19  1  0
 19 20  2  0
 20 21  1  0
 21 22  2  0
 22 23  1  0
 23 24  2  0
 24 25  1  0
 25 26  2  0
 26 27  1  0
 27 28  2  0
 28 29  1  0
 29 30  2  0
 20 31  1  0
 31 32  2  0
 32 33  1  0
 33 34  2  0
 34 35  1  0
 35 36  2  0
 36  2  1  0
 16  6  1  0
 36 17  1  0
 33 18  1  0
 30 21  1  0
 29 24  1  0
  1 37  1  0
  1 38  1  0
  1 39  1  0
  7 40  1  0
  8 41  1  0
 11 42  1  0
 11 43  1  0
 11 44  1  0
 12 45  1  0
 12 46  1  0
 12 47  1  0
 15 48  1  0
 16 49  1  0
 19 50  1  0
 22 51  1  0
 25 52  1  0
 26 53  1  0
 27 54  1  0
 28 55  1  0
 30 56  1  0
 31 57  1  0
 32 58  1  0
 35 59  1  0
M  END
$$$$
