
     RDKit          3D

 55 58  0  0  0  0  0  0  0  0999 V2000
    8.6817   -1.1779   -3.4557 C   0  0  0  0  0  0  0  0  0  0  0  0
    7.7341   -0.1257   -4.0225 C   0  0  0  0  0  0  0  0  0  0  0  0
    6.6852    0.0307   -3.0905 O   0  0  0  0  0  0  0  0  0  0  0  0
    6.8362    0.4316   -1.7851 C   0  0  0  0  0  0  0  0  0  0  0  0
    7.9919    0.6850   -1.3666 O   0  0  0  0  0  0  0  0  0  0  0  0
    5.7250    0.5798   -0.8554 C   0  0  0  0  0  0  0  0  0  0  0  0
    4.3933    0.3486   -1.1210 C   0  0  0  0  0  0  0  0  0  0  0  0
    3.6628    0.6002    0.0177 C   0  0  0  0  0  0  0  0  0  0  0  0
    2.3023    0.5314    0.3174 C   0  0  0  0  0  0  0  0  0  0  0  0
    1.8324    0.8460    1.5713 C   0  0  0  0  0  0  0  0  0  0  0  0
    0.4072    0.7517    1.8234 C   0  0  0  0  0  0  0  0  0  0  0  0
   -0.4577   -0.2858    1.4542 C   0  0  0  0  0  0  0  0  0  0  0  0
   -1.7333    0.0080    1.8838 C   0  0  0  0  0  0  0  0  0  0  0  0
   -2.9181   -0.8389    1.6860 C   0  0  0  0  0  0  0  0  0  0  0  0
   -2.8046   -1.9245    1.0725 O   0  0  0  0  0  0  0  0  0  0  0  0
   -4.1944   -0.4767    2.1645 N   0  0  0  0  0  0  0  0  0  0  0  0
   -5.4051   -1.2186    2.0292 C   0  0  0  0  0  0  0  0  0  0  0  0
   -6.0543   -1.1707    0.7216 C   0  0  0  0  0  0  0  0  0  0  0  0
   -6.9697   -0.1716    0.4125 C   0  0  0  0  0  0  0  0  0  0  0  0
   -7.5587   -0.1755   -0.8333 C   0  0  0  0  0  0  0  0  0  0  0  0
   -7.2850   -1.1288   -1.8002 C   0  0  0  0  0  0  0  0  0  0  0  0
   -7.9410   -1.0876   -3.1126 C   0  0  0  0  0  0  0  0  0  0  0  0
   -7.6525   -1.9768   -3.9470 O   0  0  0  0  0  0  0  0  0  0  0  0
   -8.8495   -0.1288   -3.4689 O   0  0  0  0  0  0  0  0  0  0  0  0
   -6.3768   -2.1125   -1.4809 C   0  0  0  0  0  0  0  0  0  0  0  0
   -5.7672   -2.1274   -0.2222 C   0  0  0  0  0  0  0  0  0  0  0  0
   -1.6364    1.1980    2.4983 N   0  0  0  0  0  0  0  0  0  0  0  0
   -0.3805    1.6436    2.4678 N   0  0  0  0  0  0  0  0  0  0  0  0
    0.1333    2.8870    3.0216 C   0  0  0  0  0  0  0  0  0  0  0  0
    2.7380    1.2326    2.5294 C   0  0  0  0  0  0  0  0  0  0  0  0
    4.0980    1.3129    2.2690 C   0  0  0  0  0  0  0  0  0  0  0  0
    4.5492    0.9884    0.9894 C   0  0  0  0  0  0  0  0  0  0  0  0
    5.7694    0.9638    0.4301 N   0  0  0  0  0  0  0  0  0  0  0  0
    8.1375   -1.8567   -2.7402 H   0  0  0  0  0  0  0  0  0  0  0  0
    9.5301   -0.7236   -2.9218 H   0  0  0  0  0  0  0  0  0  0  0  0
    9.0489   -1.8542   -4.2644 H   0  0  0  0  0  0  0  0  0  0  0  0
    8.2462    0.8054   -4.2760 H   0  0  0  0  0  0  0  0  0  0  0  0
    7.2676   -0.6165   -4.9235 H   0  0  0  0  0  0  0  0  0  0  0  0
    3.9529    0.0176   -2.0726 H   0  0  0  0  0  0  0  0  0  0  0  0
    1.6048    0.2293   -0.4358 H   0  0  0  0  0  0  0  0  0  0  0  0
   -0.1274   -1.1630    0.9152 H   0  0  0  0  0  0  0  0  0  0  0  0
   -4.2255    0.4580    2.6779 H   0  0  0  0  0  0  0  0  0  0  0  0
   -5.2841   -2.3010    2.2910 H   0  0  0  0  0  0  0  0  0  0  0  0
   -6.1478   -0.8429    2.7891 H   0  0  0  0  0  0  0  0  0  0  0  0
   -7.1677    0.5532    1.1690 H   0  0  0  0  0  0  0  0  0  0  0  0
   -8.2756    0.5950   -1.0940 H   0  0  0  0  0  0  0  0  0  0  0  0
   -9.6207   -0.3021   -4.1329 H   0  0  0  0  0  0  0  0  0  0  0  0
   -6.1439   -2.8776   -2.2292 H   0  0  0  0  0  0  0  0  0  0  0  0
   -5.0642   -2.9407   -0.0466 H   0  0  0  0  0  0  0  0  0  0  0  0
   -0.6337    3.6886    3.0091 H   0  0  0  0  0  0  0  0  0  0  0  0
    1.0366    3.1951    2.4570 H   0  0  0  0  0  0  0  0  0  0  0  0
    0.4106    2.7130    4.0992 H   0  0  0  0  0  0  0  0  0  0  0  0
    2.3935    1.4872    3.5301 H   0  0  0  0  0  0  0  0  0  0  0  0
    4.8235    1.6134    3.0056 H   0  0  0  0  0  0  0  0  0  0  0  0
    6.6830    1.2110    0.9131 H   0  0  0  0  0  0  0  0  0  0  0  0
  1  2  1  0
  2  3  1  0
  3  4  1  0
  4  5  2  0
  4  6  1  0
  6  7  2  0
  7  8  1  0
  8  9  2  0
  9 10  1  0
 10 11  1  0
 11 12  2  0
 12 13  1  0
 13 14  1  0
 14 15  2  0
 14 16  1  0
 16 17  1  0
 17 18  1  0
 18 19  2  0
 19 20  1  0
 20 21  2  0
 21 22  1  0
 22 23  2  0
 22 24  1  0
 21 25  1  0
 25 26  2  0
 13 27  2  0
 27 28  1  0
 28 29  1  0
 10 30  2  0
 30 31  1  0
 31 32  2  0
 32 33  1  0
 33  6  1  0
 32  8  1  0
 28 11  1  0
 26 18  1  0
  1 34  1  0
  1 35  1  0
  1 36  1  0
  2 37  1  0
  2 38  1  0
  7 39  1  0
  9 40  1  0
 12 41  1  0
 16 42  1  0
 17 43  1  0
 17 44  1  0
 19 45  1  0
 20 46  1  0
 24 47  1  0
 25 48  1  0
 26 49  1  0
 29 50  1  0
 29 51  1  0
 29 52  1  0
 30 53  1  0
 31 54  1  0
 33 55  1  0
M  END
$$$$
