@<TRIPOS>MOLECULE
*****
 55 58 0 0 0
SMALL
GASTEIGER

@<TRIPOS>ATOM
      1 C           8.6817   -1.1779   -3.4557 C.3     1  UNL1       -0.0306
      2 C           7.7341   -0.1257   -4.0225 C.3     1  UNL1        0.0900
      3 O           6.6852    0.0307   -3.0905 O.3     1  UNL1       -0.4604
      4 C           6.8362    0.4316   -1.7851 C.2     1  UNL1        0.3557
      5 O           7.9919    0.6850   -1.3666 O.2     1  UNL1       -0.2433
      6 C           5.7250    0.5798   -0.8554 C.ar    1  UNL1        0.1254
      7 C           4.3933    0.3486   -1.1210 C.ar    1  UNL1       -0.0222
      8 C           3.6628    0.6002    0.0177 C.ar    1  UNL1        0.0011
      9 C           2.3023    0.5314    0.3174 C.ar    1  UNL1       -0.0434
     10 C           1.8324    0.8460    1.5713 C.ar    1  UNL1        0.0007
     11 C           0.4072    0.7517    1.8234 C.ar    1  UNL1        0.0693
     12 C          -0.4577   -0.2858    1.4542 C.ar    1  UNL1       -0.0039
     13 C          -1.7333    0.0080    1.8838 C.ar    1  UNL1        0.1476
     14 C          -2.9181   -0.8389    1.6860 C.2     1  UNL1        0.2644
     15 O          -2.8046   -1.9245    1.0725 O.2     1  UNL1       -0.2685
     16 N          -4.1944   -0.4767    2.1645 N.am    1  UNL1       -0.3059
     17 C          -5.4051   -1.2186    2.0292 C.3     1  UNL1        0.0372
     18 C          -6.0543   -1.1707    0.7216 C.ar    1  UNL1       -0.0303
     19 C          -6.9697   -0.1716    0.4125 C.ar    1  UNL1       -0.0563
     20 C          -7.5587   -0.1755   -0.8333 C.ar    1  UNL1       -0.0475
     21 C          -7.2850   -1.1288   -1.8002 C.ar    1  UNL1        0.0589
     22 C          -7.9410   -1.0876   -3.1126 C.2     1  UNL1        0.3368
     23 O          -7.6525   -1.9768   -3.9470 O.2     1  UNL1       -0.2451
     24 O          -8.8495   -0.1288   -3.4689 O.3     1  UNL1       -0.4771
     25 C          -6.3768   -2.1125   -1.4809 C.ar    1  UNL1       -0.0475
     26 C          -5.7672   -2.1274   -0.2222 C.ar    1  UNL1       -0.0563
     27 N          -1.6364    1.1980    2.4983 N.ar    1  UNL1       -0.1662
     28 N          -0.3805    1.6436    2.4678 N.ar    1  UNL1       -0.2660
     29 C           0.1333    2.8870    3.0216 C.3     1  UNL1        0.0309
     30 C           2.7380    1.2326    2.5294 C.ar    1  UNL1       -0.0506
     31 C           4.0980    1.3129    2.2690 C.ar    1  UNL1       -0.0372
     32 C           4.5492    0.9884    0.9894 C.ar    1  UNL1        0.0471
     33 N           5.7694    0.9638    0.4301 N.ar    1  UNL1       -0.3490
     34 H           8.1375   -1.8567   -2.7402 H       1  UNL1        0.0262
     35 H           9.5301   -0.7236   -2.9218 H       1  UNL1        0.0262
     36 H           9.0489   -1.8542   -4.2644 H       1  UNL1        0.0262
     37 H           8.2462    0.8054   -4.2760 H       1  UNL1        0.0695
     38 H           7.2676   -0.6165   -4.9235 H       1  UNL1        0.0695
     39 H           3.9529    0.0176   -2.0726 H       1  UNL1        0.0647
     40 H           1.6048    0.2293   -0.4358 H       1  UNL1        0.0631
     41 H          -0.1274   -1.1630    0.9152 H       1  UNL1        0.0662
     42 H          -4.2255    0.4580    2.6779 H       1  UNL1        0.1494
     43 H          -5.2841   -2.3010    2.2910 H       1  UNL1        0.0512
     44 H          -6.1478   -0.8429    2.7891 H       1  UNL1        0.0512
     45 H          -7.1677    0.5532    1.1690 H       1  UNL1        0.0621
     46 H          -8.2756    0.5950   -1.0940 H       1  UNL1        0.0626
     47 H          -9.6207   -0.3021   -4.1329 H       1  UNL1        0.2954
     48 H          -6.1439   -2.8776   -2.2292 H       1  UNL1        0.0626
     49 H          -5.0642   -2.9407   -0.0466 H       1  UNL1        0.0621
     50 H          -0.6337    3.6886    3.0091 H       1  UNL1        0.0473
     51 H           1.0366    3.1951    2.4570 H       1  UNL1        0.0473
     52 H           0.4106    2.7130    4.0992 H       1  UNL1        0.0473
     53 H           2.3935    1.4872    3.5301 H       1  UNL1        0.0625
     54 H           4.8235    1.6134    3.0056 H       1  UNL1        0.0638
     55 H           6.6830    1.2110    0.9131 H       1  UNL1        0.1661
@<TRIPOS>BOND
     1     1     2    1
     2     2     3    1
     3     3     4    1
     4     4     5    2
     5     4     6    1
     6     6     7   ar
     7     7     8   ar
     8     8     9   ar
     9     9    10   ar
    10    10    11    1
    11    11    12   ar
    12    12    13   ar
    13    13    14    1
    14    14    15    2
    15    14    16   am
    16    16    17    1
    17    17    18    1
    18    18    19   ar
    19    19    20   ar
    20    20    21   ar
    21    21    22    1
    22    22    23    2
    23    22    24    1
    24    21    25   ar
    25    25    26   ar
    26    13    27   ar
    27    27    28   ar
    28    28    29    1
    29    10    30   ar
    30    30    31   ar
    31    31    32   ar
    32    32    33   ar
    33    33     6   ar
    34    32     8   ar
    35    28    11   ar
    36    26    18   ar
    37     1    34    1
    38     1    35    1
    39     1    36    1
    40     2    37    1
    41     2    38    1
    42     7    39    1
    43     9    40    1
    44    12    41    1
    45    16    42    1
    46    17    43    1
    47    17    44    1
    48    19    45    1
    49    20    46    1
    50    24    47    1
    51    25    48    1
    52    26    49    1
    53    29    50    1
    54    29    51    1
    55    29    52    1
    56    30    53    1
    57    31    54    1
    58    33    55    1
