@<TRIPOS>MOLECULE
*****
 41 44 0 0 0
SMALL
GASTEIGER

@<TRIPOS>ATOM
      1 C           7.1679   -1.4361    0.2123 C.3     1  UNL1        0.0596
      2 S           6.6678    0.2383   -0.1962 S.O2    1  UNL1       -0.0059
      3 O           7.2858    1.2001    0.7500 O.2     1  UNL1       -0.1696
      4 O           7.1295    0.4855   -1.6085 O.2     1  UNL1       -0.1696
      5 C           4.9261    0.2610   -0.1566 C.ar    1  UNL1        0.0879
      6 C           4.2385   -0.0133   -1.3174 C.ar    1  UNL1       -0.0363
      7 C           2.8337   -0.0040   -1.3125 C.ar    1  UNL1       -0.0521
      8 C           2.1585    0.2787   -0.1491 C.ar    1  UNL1       -0.0128
      9 C           0.7119    0.2847   -0.1628 C.ar    1  UNL1        0.0449
     10 C           0.0300   -0.7257   -0.8337 C.ar    1  UNL1        0.0424
     11 N          -1.3278   -0.7691   -0.8833 N.ar    1  UNL1       -0.2233
     12 C          -2.0431    0.1972   -0.2628 C.ar    1  UNL1        0.2028
     13 N          -3.4685    0.1110   -0.3486 N.pl3   1  UNL1       -0.3074
     14 C          -4.1796   -0.6822    0.6301 C.3     1  UNL1        0.0699
     15 C          -5.6431   -0.5978    0.3468 C.ar    1  UNL1        0.1218
     16 C          -6.3415   -1.4470   -0.4863 C.ar    1  UNL1       -0.0192
     17 C          -7.6510   -1.0079   -0.4547 C.ar    1  UNL1       -0.0236
     18 C          -7.6727    0.0769    0.3913 C.ar    1  UNL1        0.0921
     19 O          -6.4715    0.2742    0.8332 O.2     1  UNL1       -0.4662
     20 N          -1.4252    1.1914    0.3968 N.ar    1  UNL1       -0.2530
     21 C          -1.9276    2.2368    1.0719 C.ar    1  UNL1        0.1267
     22 N          -0.8708    2.9240    1.5372 N.ar    1  UNL1       -0.1371
     23 N           0.2629    2.3170    1.1582 N.ar    1  UNL1       -0.1289
     24 C          -0.0707    1.2399    0.4495 C.ar    1  UNL1        0.1726
     25 C           2.8677    0.5488    0.9943 C.ar    1  UNL1       -0.0521
     26 C           4.2640    0.5444    1.0089 C.ar    1  UNL1       -0.0363
     27 H           6.7278   -1.6212    1.2271 H       1  UNL1        0.0468
     28 H           6.6369   -2.1013   -0.5206 H       1  UNL1        0.0468
     29 H           8.2508   -1.5720    0.1728 H       1  UNL1        0.0468
     30 H           4.7875   -0.2325   -2.2174 H       1  UNL1        0.0637
     31 H           2.3414   -0.2253   -2.2474 H       1  UNL1        0.0624
     32 H           0.5730   -1.5018   -1.3324 H       1  UNL1        0.0838
     33 H          -4.0080    0.6017   -1.0930 H       1  UNL1        0.1493
     34 H          -3.9922   -0.3622    1.6761 H       1  UNL1        0.0543
     35 H          -3.8927   -1.7652    0.4945 H       1  UNL1        0.0543
     36 H          -5.9990   -2.2887   -1.0656 H       1  UNL1        0.0652
     37 H          -8.5290   -1.3859   -0.9611 H       1  UNL1        0.0649
     38 H          -8.5341    0.6810    0.6596 H       1  UNL1        0.1029
     39 H          -2.9564    2.5160    1.2386 H       1  UNL1        0.1052
     40 H           2.3343    0.7699    1.9030 H       1  UNL1        0.0624
     41 H           4.8084    0.7607    1.9208 H       1  UNL1        0.0637
@<TRIPOS>BOND
     1     1     2    1
     2     2     3    2
     3     2     4    2
     4     2     5    1
     5     5     6   ar
     6     6     7   ar
     7     7     8   ar
     8     8     9    1
     9     9    10   ar
    10    10    11   ar
    11    11    12   ar
    12    12    13    1
    13    13    14    1
    14    14    15    1
    15    15    16   ar
    16    16    17   ar
    17    17    18   ar
    18    18    19   ar
    19    12    20   ar
    20    20    21   ar
    21    21    22   ar
    22    22    23   ar
    23    23    24   ar
    24     8    25   ar
    25    25    26   ar
    26    26     5   ar
    27    24     9   ar
    28    19    15   ar
    29    24    20   ar
    30     1    27    1
    31     1    28    1
    32     1    29    1
    33     6    30    1
    34     7    31    1
    35    10    32    1
    36    13    33    1
    37    14    34    1
    38    14    35    1
    39    16    36    1
    40    17    37    1
    41    18    38    1
    42    21    39    1
    43    25    40    1
    44    26    41    1
