
     RDKit          3D

 41 44  0  0  0  0  0  0  0  0999 V2000
    7.1679   -1.4361    0.2123 C   0  0  0  0  0  0  0  0  0  0  0  0
    6.6678    0.2383   -0.1962 S   0  0  0  0  0  6  0  0  0  0  0  0
    7.2858    1.2001    0.7500 O   0  0  0  0  0  0  0  0  0  0  0  0
    7.1295    0.4855   -1.6085 O   0  0  0  0  0  0  0  0  0  0  0  0
    4.9261    0.2610   -0.1566 C   0  0  0  0  0  0  0  0  0  0  0  0
    4.2385   -0.0133   -1.3174 C   0  0  0  0  0  0  0  0  0  0  0  0
    2.8337   -0.0040   -1.3125 C   0  0  0  0  0  0  0  0  0  0  0  0
    2.1585    0.2787   -0.1491 C   0  0  0  0  0  0  0  0  0  0  0  0
    0.7119    0.2847   -0.1628 C   0  0  0  0  0  0  0  0  0  0  0  0
    0.0300   -0.7257   -0.8337 C   0  0  0  0  0  0  0  0  0  0  0  0
   -1.3278   -0.7691   -0.8833 N   0  0  0  0  0  0  0  0  0  0  0  0
   -2.0431    0.1972   -0.2628 C   0  0  0  0  0  0  0  0  0  0  0  0
   -3.4685    0.1110   -0.3486 N   0  0  0  0  0  0  0  0  0  0  0  0
   -4.1796   -0.6822    0.6301 C   0  0  0  0  0  0  0  0  0  0  0  0
   -5.6431   -0.5978    0.3468 C   0  0  0  0  0  0  0  0  0  0  0  0
   -6.3415   -1.4470   -0.4863 C   0  0  0  0  0  0  0  0  0  0  0  0
   -7.6510   -1.0079   -0.4547 C   0  0  0  0  0  0  0  0  0  0  0  0
   -7.6727    0.0769    0.3913 C   0  0  0  0  0  0  0  0  0  0  0  0
   -6.4715    0.2742    0.8332 O   0  0  0  0  0  0  0  0  0  0  0  0
   -1.4252    1.1914    0.3968 N   0  0  0  0  0  0  0  0  0  0  0  0
   -1.9276    2.2368    1.0719 C   0  0  0  0  0  0  0  0  0  0  0  0
   -0.8708    2.9240    1.5372 N   0  0  0  0  0  0  0  0  0  0  0  0
    0.2629    2.3170    1.1582 N   0  0  0  0  0  0  0  0  0  0  0  0
   -0.0707    1.2399    0.4495 C   0  0  0  0  0  0  0  0  0  0  0  0
    2.8677    0.5488    0.9943 C   0  0  0  0  0  0  0  0  0  0  0  0
    4.2640    0.5444    1.0089 C   0  0  0  0  0  0  0  0  0  0  0  0
    6.7278   -1.6212    1.2271 H   0  0  0  0  0  0  0  0  0  0  0  0
    6.6369   -2.1013   -0.5206 H   0  0  0  0  0  0  0  0  0  0  0  0
    8.2508   -1.5720    0.1728 H   0  0  0  0  0  0  0  0  0  0  0  0
    4.7875   -0.2325   -2.2174 H   0  0  0  0  0  0  0  0  0  0  0  0
    2.3414   -0.2253   -2.2474 H   0  0  0  0  0  0  0  0  0  0  0  0
    0.5730   -1.5018   -1.3324 H   0  0  0  0  0  0  0  0  0  0  0  0
   -4.0080    0.6017   -1.0930 H   0  0  0  0  0  0  0  0  0  0  0  0
   -3.9922   -0.3622    1.6761 H   0  0  0  0  0  0  0  0  0  0  0  0
   -3.8927   -1.7652    0.4945 H   0  0  0  0  0  0  0  0  0  0  0  0
   -5.9990   -2.2887   -1.0656 H   0  0  0  0  0  0  0  0  0  0  0  0
   -8.5290   -1.3859   -0.9611 H   0  0  0  0  0  0  0  0  0  0  0  0
   -8.5341    0.6810    0.6596 H   0  0  0  0  0  0  0  0  0  0  0  0
   -2.9564    2.5160    1.2386 H   0  0  0  0  0  0  0  0  0  0  0  0
    2.3343    0.7699    1.9030 H   0  0  0  0  0  0  0  0  0  0  0  0
    4.8084    0.7607    1.9208 H   0  0  0  0  0  0  0  0  0  0  0  0
  1  2  1  0
  2  3  2  0
  2  4  2  0
  2  5  1  0
  5  6  2  0
  6  7  1  0
  7  8  2  0
  8  9  1  0
  9 10  2  0
 10 11  1  0
 11 12  2  0
 12 13  1  0
 13 14  1  0
 14 15  1  0
 15 16  2  0
 16 17  1  0
 17 18  2  0
 18 19  1  0
 12 20  1  0
 20 21  1  0
 21 22  2  0
 22 23  1  0
 23 24  2  0
  8 25  1  0
 25 26  2  0
 26  5  1  0
 24  9  1  0
 19 15  1  0
 24 20  1  0
  1 27  1  0
  1 28  1  0
  1 29  1  0
  6 30  1  0
  7 31  1  0
 10 32  1  0
 13 33  1  0
 14 34  1  0
 14 35  1  0
 16 36  1  0
 17 37  1  0
 18 38  1  0
 21 39  1  0
 25 40  1  0
 26 41  1  0
M  END
$$$$
