@<TRIPOS>MOLECULE
*****
 51 54 0 0 0
SMALL
GASTEIGER

@<TRIPOS>ATOM
      1 C          -0.2735   -3.1941    0.1573 C.3     1  UNL1       -0.0390
      2 C          -0.8604   -1.8346    0.2017 C.ar    1  UNL1       -0.0380
      3 C          -2.1744   -1.6097   -0.1655 C.ar    1  UNL1       -0.0182
      4 C          -2.6960   -0.3314   -0.1159 C.ar    1  UNL1        0.1223
      5 N          -4.0321   -0.0674   -0.4885 N.pl3   1  UNL1       -0.3108
      6 C          -4.6186    1.2540   -0.3899 C.3     1  UNL1        0.0370
      7 C          -6.0500    1.0494    0.1016 C.3     1  UNL1        0.0634
      8 O          -6.8050    0.3724   -0.8252 O.3     1  UNL1       -0.3767
      9 C          -6.0440   -0.3611   -1.7197 C.3     1  UNL1        0.0634
     10 C          -4.9108   -1.1084   -1.0023 C.3     1  UNL1        0.0370
     11 N          -1.9446    0.7227    0.2881 N.ar    1  UNL1       -0.2318
     12 C          -0.6709    0.5297    0.6477 C.ar    1  UNL1        0.0763
     13 C           0.1111    1.5915    1.0575 C.ar    1  UNL1       -0.0242
     14 C          -0.4405    2.9852    1.1157 C.3     1  UNL1       -0.0377
     15 C           1.4190    1.3610    1.4164 C.ar    1  UNL1       -0.0533
     16 C           1.9939    0.1047    1.3867 C.ar    1  UNL1       -0.0420
     17 C           3.3837   -0.1007    1.7792 C.3     1  UNL1        0.0023
     18 C           4.3849    0.1735    0.7203 C.ar    1  UNL1        0.0146
     19 C           5.0916    1.3824    0.7105 C.ar    1  UNL1        0.0379
     20 N           5.9896    1.6593   -0.2475 N.ar    1  UNL1       -0.2227
     21 C           6.2631    0.8027   -1.2468 C.ar    1  UNL1        0.2142
     22 N           7.2145    1.1057   -2.2606 N.pl3   1  UNL1       -0.3274
     23 N           5.5972   -0.3621   -1.2566 N.ar    1  UNL1       -0.1999
     24 C           4.6736   -0.6937   -0.3058 C.ar    1  UNL1        0.1247
     25 N           4.0064   -1.9482   -0.3592 N.pl3   1  UNL1       -0.3428
     26 C           1.2071   -0.9413    0.9789 C.ar    1  UNL1       -0.0488
     27 C          -0.1298   -0.7446    0.6051 C.ar    1  UNL1        0.0039
     28 H           0.1267   -3.4014    1.1856 H       1  UNL1        0.0278
     29 H          -1.0276   -3.9324   -0.1456 H       1  UNL1        0.0278
     30 H           0.5644   -3.1830   -0.6003 H       1  UNL1        0.0278
     31 H          -2.8274   -2.4101   -0.4976 H       1  UNL1        0.0655
     32 H          -4.1110    1.8207    0.4335 H       1  UNL1        0.0487
     33 H          -4.5908    1.8172   -1.3384 H       1  UNL1        0.0487
     34 H          -5.9481    0.3833    1.0064 H       1  UNL1        0.0575
     35 H          -6.4779    2.0306    0.3697 H       1  UNL1        0.0575
     36 H          -5.5182    0.3541   -2.4118 H       1  UNL1        0.0575
     37 H          -6.6411   -1.0706   -2.3033 H       1  UNL1        0.0575
     38 H          -4.4198   -1.7040   -1.8040 H       1  UNL1        0.0487
     39 H          -5.2768   -1.7981   -0.2442 H       1  UNL1        0.0487
     40 H          -0.0705    3.6047    0.2821 H       1  UNL1        0.0278
     41 H          -0.2552    3.4494    2.1024 H       1  UNL1        0.0278
     42 H          -1.5489    2.9118    1.0091 H       1  UNL1        0.0278
     43 H           2.0079    2.2365    1.7373 H       1  UNL1        0.0624
     44 H           3.5877   -1.1566    2.1237 H       1  UNL1        0.0363
     45 H           3.6229    0.5224    2.6839 H       1  UNL1        0.0363
     46 H           4.8826    2.0807    1.5049 H       1  UNL1        0.0834
     47 H           7.9368    1.8482   -2.1685 H       1  UNL1        0.1452
     48 H           7.1960    0.5608   -3.1480 H       1  UNL1        0.1452
     49 H           4.2800   -2.7592    0.2382 H       1  UNL1        0.1437
     50 H           3.2113   -2.0665   -1.0210 H       1  UNL1        0.1437
     51 H           1.6121   -1.9353    0.9517 H       1  UNL1        0.0627
@<TRIPOS>BOND
     1     1     2    1
     2     2     3   ar
     3     3     4   ar
     4     4     5    1
     5     5     6    1
     6     6     7    1
     7     7     8    1
     8     8     9    1
     9     9    10    1
    10     4    11   ar
    11    11    12   ar
    12    12    13   ar
    13    13    14    1
    14    13    15   ar
    15    15    16   ar
    16    16    17    1
    17    17    18    1
    18    18    19   ar
    19    19    20   ar
    20    20    21   ar
    21    21    22    1
    22    21    23   ar
    23    23    24   ar
    24    24    25    1
    25    16    26   ar
    26    26    27   ar
    27    27     2   ar
    28    10     5    1
    29    27    12   ar
    30    24    18   ar
    31     1    28    1
    32     1    29    1
    33     1    30    1
    34     3    31    1
    35     6    32    1
    36     6    33    1
    37     7    34    1
    38     7    35    1
    39     9    36    1
    40     9    37    1
    41    10    38    1
    42    10    39    1
    43    14    40    1
    44    14    41    1
    45    14    42    1
    46    15    43    1
    47    17    44    1
    48    17    45    1
    49    19    46    1
    50    22    47    1
    51    22    48    1
    52    25    49    1
    53    25    50    1
    54    26    51    1
