
     RDKit          3D

 51 54  0  0  0  0  0  0  0  0999 V2000
   -0.2735   -3.1941    0.1573 C   0  0  0  0  0  0  0  0  0  0  0  0
   -0.8604   -1.8346    0.2017 C   0  0  0  0  0  0  0  0  0  0  0  0
   -2.1744   -1.6097   -0.1655 C   0  0  0  0  0  0  0  0  0  0  0  0
   -2.6960   -0.3314   -0.1159 C   0  0  0  0  0  0  0  0  0  0  0  0
   -4.0321   -0.0674   -0.4885 N   0  0  0  0  0  0  0  0  0  0  0  0
   -4.6186    1.2540   -0.3899 C   0  0  0  0  0  0  0  0  0  0  0  0
   -6.0500    1.0494    0.1016 C   0  0  0  0  0  0  0  0  0  0  0  0
   -6.8050    0.3724   -0.8252 O   0  0  0  0  0  0  0  0  0  0  0  0
   -6.0440   -0.3611   -1.7197 C   0  0  0  0  0  0  0  0  0  0  0  0
   -4.9108   -1.1084   -1.0023 C   0  0  0  0  0  0  0  0  0  0  0  0
   -1.9446    0.7227    0.2881 N   0  0  0  0  0  0  0  0  0  0  0  0
   -0.6709    0.5297    0.6477 C   0  0  0  0  0  0  0  0  0  0  0  0
    0.1111    1.5915    1.0575 C   0  0  0  0  0  0  0  0  0  0  0  0
   -0.4405    2.9852    1.1157 C   0  0  0  0  0  0  0  0  0  0  0  0
    1.4190    1.3610    1.4164 C   0  0  0  0  0  0  0  0  0  0  0  0
    1.9939    0.1047    1.3867 C   0  0  0  0  0  0  0  0  0  0  0  0
    3.3837   -0.1007    1.7792 C   0  0  0  0  0  0  0  0  0  0  0  0
    4.3849    0.1735    0.7203 C   0  0  0  0  0  0  0  0  0  0  0  0
    5.0916    1.3824    0.7105 C   0  0  0  0  0  0  0  0  0  0  0  0
    5.9896    1.6593   -0.2475 N   0  0  0  0  0  0  0  0  0  0  0  0
    6.2631    0.8027   -1.2468 C   0  0  0  0  0  0  0  0  0  0  0  0
    7.2145    1.1057   -2.2606 N   0  0  0  0  0  0  0  0  0  0  0  0
    5.5972   -0.3621   -1.2566 N   0  0  0  0  0  0  0  0  0  0  0  0
    4.6736   -0.6937   -0.3058 C   0  0  0  0  0  0  0  0  0  0  0  0
    4.0064   -1.9482   -0.3592 N   0  0  0  0  0  0  0  0  0  0  0  0
    1.2071   -0.9413    0.9789 C   0  0  0  0  0  0  0  0  0  0  0  0
   -0.1298   -0.7446    0.6051 C   0  0  0  0  0  0  0  0  0  0  0  0
    0.1267   -3.4014    1.1856 H   0  0  0  0  0  0  0  0  0  0  0  0
   -1.0276   -3.9324   -0.1456 H   0  0  0  0  0  0  0  0  0  0  0  0
    0.5644   -3.1830   -0.6003 H   0  0  0  0  0  0  0  0  0  0  0  0
   -2.8274   -2.4101   -0.4976 H   0  0  0  0  0  0  0  0  0  0  0  0
   -4.1110    1.8207    0.4335 H   0  0  0  0  0  0  0  0  0  0  0  0
   -4.5908    1.8172   -1.3384 H   0  0  0  0  0  0  0  0  0  0  0  0
   -5.9481    0.3833    1.0064 H   0  0  0  0  0  0  0  0  0  0  0  0
   -6.4779    2.0306    0.3697 H   0  0  0  0  0  0  0  0  0  0  0  0
   -5.5182    0.3541   -2.4118 H   0  0  0  0  0  0  0  0  0  0  0  0
   -6.6411   -1.0706   -2.3033 H   0  0  0  0  0  0  0  0  0  0  0  0
   -4.4198   -1.7040   -1.8040 H   0  0  0  0  0  0  0  0  0  0  0  0
   -5.2768   -1.7981   -0.2442 H   0  0  0  0  0  0  0  0  0  0  0  0
   -0.0705    3.6047    0.2821 H   0  0  0  0  0  0  0  0  0  0  0  0
   -0.2552    3.4494    2.1024 H   0  0  0  0  0  0  0  0  0  0  0  0
   -1.5489    2.9118    1.0091 H   0  0  0  0  0  0  0  0  0  0  0  0
    2.0079    2.2365    1.7373 H   0  0  0  0  0  0  0  0  0  0  0  0
    3.5877   -1.1566    2.1237 H   0  0  0  0  0  0  0  0  0  0  0  0
    3.6229    0.5224    2.6839 H   0  0  0  0  0  0  0  0  0  0  0  0
    4.8826    2.0807    1.5049 H   0  0  0  0  0  0  0  0  0  0  0  0
    7.9368    1.8482   -2.1685 H   0  0  0  0  0  0  0  0  0  0  0  0
    7.1960    0.5608   -3.1480 H   0  0  0  0  0  0  0  0  0  0  0  0
    4.2800   -2.7592    0.2382 H   0  0  0  0  0  0  0  0  0  0  0  0
    3.2113   -2.0665   -1.0210 H   0  0  0  0  0  0  0  0  0  0  0  0
    1.6121   -1.9353    0.9517 H   0  0  0  0  0  0  0  0  0  0  0  0
  1  2  1  0
  2  3  2  0
  3  4  1  0
  4  5  1  0
  5  6  1  0
  6  7  1  0
  7  8  1  0
  8  9  1  0
  9 10  1  0
  4 11  2  0
 11 12  1  0
 12 13  2  0
 13 14  1  0
 13 15  1  0
 15 16  2  0
 16 17  1  0
 17 18  1  0
 18 19  2  0
 19 20  1  0
 20 21  2  0
 21 22  1  0
 21 23  1  0
 23 24  2  0
 24 25  1  0
 16 26  1  0
 26 27  2  0
 27  2  1  0
 10  5  1  0
 27 12  1  0
 24 18  1  0
  1 28  1  0
  1 29  1  0
  1 30  1  0
  3 31  1  0
  6 32  1  0
  6 33  1  0
  7 34  1  0
  7 35  1  0
  9 36  1  0
  9 37  1  0
 10 38  1  0
 10 39  1  0
 14 40  1  0
 14 41  1  0
 14 42  1  0
 15 43  1  0
 17 44  1  0
 17 45  1  0
 19 46  1  0
 22 47  1  0
 22 48  1  0
 25 49  1  0
 25 50  1  0
 26 51  1  0
M  END
$$$$
