@<TRIPOS>MOLECULE
*****
 68 71 0 0 0
SMALL
GASTEIGER

@<TRIPOS>ATOM
      1 C          -5.1671    2.3937   -1.5496 C.3     1  UNL1       -0.0126
      2 N          -5.3580    1.0065   -1.2005 N.3     1  UNL1       -0.3024
      3 C          -4.6744    0.0985   -2.0603 C.3     1  UNL1        0.0145
      4 C          -3.7315   -0.8469   -1.3429 C.3     1  UNL1        0.0275
      5 N          -3.0623   -0.0407   -0.3300 N.am    1  UNL1       -0.2975
      6 C          -1.7052    0.2591   -0.3912 C.2     1  UNL1        0.2382
      7 O          -1.0639   -0.1824   -1.4045 O.2     1  UNL1       -0.2735
      8 C          -0.9402    1.0584    0.6296 C.3     1  UNL1        0.1232
      9 C          -0.8281    0.1742    1.8565 C.3     1  UNL1        0.0746
     10 O          -0.3532   -1.0376    1.4910 O.3     1  UNL1       -0.3769
     11 C          -0.1549   -2.0095    2.4035 C.3     1  UNL1        0.0531
     12 C          -1.3255   -2.4689    3.2022 C.3     1  UNL1       -0.0086
     13 C          -2.0818   -1.5421    4.1183 C.3     1  UNL1       -0.0575
     14 C          -2.1907   -3.5624    2.5451 C.3     1  UNL1       -0.0450
     15 C          -1.2880   -3.9154    3.6548 C.3     1  UNL1       -0.0450
     16 N           0.3735    1.3075    0.0040 N.am    1  UNL1       -0.2979
     17 C           0.6795    2.6019   -0.4591 C.2     1  UNL1        0.2499
     18 O          -0.2588    3.4752   -0.2769 O.2     1  UNL1       -0.2700
     19 C           1.8901    3.0470   -1.0973 C.ar    1  UNL1        0.0985
     20 C           1.9095    4.3856   -1.5605 C.ar    1  UNL1       -0.0430
     21 C           2.9897    4.8601   -2.2241 C.ar    1  UNL1       -0.0426
     22 C           4.0990    4.0559   -2.4660 C.ar    1  UNL1        0.0314
     23 N           4.0328    2.8109   -2.0107 N.ar    1  UNL1       -0.2203
     24 C           2.9922    2.2688   -1.3422 C.ar    1  UNL1        0.2327
     25 O           3.0653    0.9690   -0.9197 O.3     1  UNL1       -0.4358
     26 C           4.0438    0.0406   -1.1572 C.ar    1  UNL1        0.1486
     27 C           5.0655    0.2585   -2.0306 C.ar    1  UNL1       -0.0173
     28 C           6.0680   -0.7019   -2.2586 C.ar    1  UNL1       -0.0466
     29 C           6.0275   -1.8955   -1.5900 C.ar    1  UNL1        0.0564
     30 C           7.1044   -2.9073   -1.8501 C.3     1  UNL1        0.4175
     31 F           6.5804   -3.9064   -2.6791 F       1  UNL1       -0.1659
     32 F           7.5689   -3.4481   -0.6563 F       1  UNL1       -0.1659
     33 F           8.1499   -2.2792   -2.5058 F       1  UNL1       -0.1659
     34 C           5.0198   -2.1408   -0.7143 C.ar    1  UNL1       -0.0282
     35 C           4.0302   -1.1704   -0.4999 C.ar    1  UNL1        0.0837
     36 CL          2.8018   -1.5955    0.6755 Cl      1  UNL1       -0.0797
     37 C          -3.9151    0.4590    0.7217 C.3     1  UNL1        0.0275
     38 C          -5.3180    0.7303    0.1951 C.3     1  UNL1        0.0145
     39 H          -6.0700    3.0154   -1.3953 H       1  UNL1        0.0391
     40 H          -4.3905    2.8098   -0.8600 H       1  UNL1        0.0391
     41 H          -4.8220    2.4360   -2.6009 H       1  UNL1        0.0391
     42 H          -5.4268   -0.5277   -2.5825 H       1  UNL1        0.0442
     43 H          -4.0995    0.5996   -2.8677 H       1  UNL1        0.0442
     44 H          -4.2610   -1.7054   -0.8912 H       1  UNL1        0.0477
     45 H          -2.9641   -1.1627   -2.0723 H       1  UNL1        0.0477
     46 H          -1.5205    1.9676    0.7696 H       1  UNL1        0.0618
     47 H          -0.2358    0.6762    2.6577 H       1  UNL1        0.0583
     48 H          -1.8460    0.0617    2.2489 H       1  UNL1        0.0583
     49 H           0.7226   -1.7420    3.0466 H       1  UNL1        0.0565
     50 H           0.2061   -2.9229    1.8329 H       1  UNL1        0.0565
     51 H          -3.0724   -1.2889    3.7195 H       1  UNL1        0.0236
     52 H          -2.2839   -2.0912    5.0948 H       1  UNL1        0.0236
     53 H          -1.4389   -0.7082    4.4152 H       1  UNL1        0.0236
     54 H          -3.2921   -3.5207    2.7534 H       1  UNL1        0.0271
     55 H          -1.9425   -3.8404    1.5131 H       1  UNL1        0.0271
     56 H          -0.4041   -4.5295    3.4048 H       1  UNL1        0.0271
     57 H          -1.7105   -4.1762    4.6572 H       1  UNL1        0.0271
     58 H           1.0285    0.5464   -0.0903 H       1  UNL1        0.1499
     59 H           1.0477    5.0008   -1.3672 H       1  UNL1        0.0627
     60 H           2.9920    5.8771   -2.5730 H       1  UNL1        0.0633
     61 H           4.9341    4.4624   -2.9935 H       1  UNL1        0.0831
     62 H           5.1445    1.1553   -2.5927 H       1  UNL1        0.0655
     63 H           6.8526   -0.4887   -2.9553 H       1  UNL1        0.0624
     64 H           4.9965   -3.0856   -0.1906 H       1  UNL1        0.0639
     65 H          -3.5205    1.3550    1.2394 H       1  UNL1        0.0477
     66 H          -4.0261   -0.3387    1.4793 H       1  UNL1        0.0477
     67 H          -5.6781    1.6452    0.7308 H       1  UNL1        0.0442
     68 H          -5.9944   -0.0893    0.4789 H       1  UNL1        0.0442
@<TRIPOS>BOND
     1     1     2    1
     2     2     3    1
     3     3     4    1
     4     4     5    1
     5     5     6   am
     6     6     7    2
     7     6     8    1
     8     8     9    1
     9     9    10    1
    10    10    11    1
    11    11    12    1
    12    12    13    1
    13    12    14    1
    14    14    15    1
    15     8    16    1
    16    16    17   am
    17    17    18    2
    18    17    19    1
    19    19    20   ar
    20    20    21   ar
    21    21    22   ar
    22    22    23   ar
    23    23    24   ar
    24    24    25    1
    25    25    26    1
    26    26    27   ar
    27    27    28   ar
    28    28    29   ar
    29    29    30    1
    30    30    31    1
    31    30    32    1
    32    30    33    1
    33    29    34   ar
    34    34    35   ar
    35    35    36    1
    36     5    37    1
    37    37    38    1
    38    38     2    1
    39    15    12    1
    40    24    19   ar
    41    35    26   ar
    42     1    39    1
    43     1    40    1
    44     1    41    1
    45     3    42    1
    46     3    43    1
    47     4    44    1
    48     4    45    1
    49     8    46    1
    50     9    47    1
    51     9    48    1
    52    11    49    1
    53    11    50    1
    54    13    51    1
    55    13    52    1
    56    13    53    1
    57    14    54    1
    58    14    55    1
    59    15    56    1
    60    15    57    1
    61    16    58    1
    62    20    59    1
    63    21    60    1
    64    22    61    1
    65    27    62    1
    66    28    63    1
    67    34    64    1
    68    37    65    1
    69    37    66    1
    70    38    67    1
    71    38    68    1
