
     RDKit          3D

 68 71  0  0  0  0  0  0  0  0999 V2000
   -5.1671    2.3937   -1.5496 C   0  0  0  0  0  0  0  0  0  0  0  0
   -5.3580    1.0065   -1.2005 N   0  0  0  0  0  0  0  0  0  0  0  0
   -4.6744    0.0985   -2.0603 C   0  0  0  0  0  0  0  0  0  0  0  0
   -3.7315   -0.8469   -1.3429 C   0  0  0  0  0  0  0  0  0  0  0  0
   -3.0623   -0.0407   -0.3300 N   0  0  0  0  0  0  0  0  0  0  0  0
   -1.7052    0.2591   -0.3912 C   0  0  0  0  0  0  0  0  0  0  0  0
   -1.0639   -0.1824   -1.4045 O   0  0  0  0  0  0  0  0  0  0  0  0
   -0.9402    1.0584    0.6296 C   0  0  1  0  0  0  0  0  0  0  0  0
   -0.8281    0.1742    1.8565 C   0  0  0  0  0  0  0  0  0  0  0  0
   -0.3532   -1.0376    1.4910 O   0  0  0  0  0  0  0  0  0  0  0  0
   -0.1549   -2.0095    2.4035 C   0  0  0  0  0  0  0  0  0  0  0  0
   -1.3255   -2.4689    3.2022 C   0  0  0  0  0  0  0  0  0  0  0  0
   -2.0818   -1.5421    4.1183 C   0  0  0  0  0  0  0  0  0  0  0  0
   -2.1907   -3.5624    2.5451 C   0  0  0  0  0  0  0  0  0  0  0  0
   -1.2880   -3.9154    3.6548 C   0  0  0  0  0  0  0  0  0  0  0  0
    0.3735    1.3075    0.0040 N   0  0  0  0  0  0  0  0  0  0  0  0
    0.6795    2.6019   -0.4591 C   0  0  0  0  0  0  0  0  0  0  0  0
   -0.2588    3.4752   -0.2769 O   0  0  0  0  0  0  0  0  0  0  0  0
    1.8901    3.0470   -1.0973 C   0  0  0  0  0  0  0  0  0  0  0  0
    1.9095    4.3856   -1.5605 C   0  0  0  0  0  0  0  0  0  0  0  0
    2.9897    4.8601   -2.2241 C   0  0  0  0  0  0  0  0  0  0  0  0
    4.0990    4.0559   -2.4660 C   0  0  0  0  0  0  0  0  0  0  0  0
    4.0328    2.8109   -2.0107 N   0  0  0  0  0  0  0  0  0  0  0  0
    2.9922    2.2688   -1.3422 C   0  0  0  0  0  0  0  0  0  0  0  0
    3.0653    0.9690   -0.9197 O   0  0  0  0  0  0  0  0  0  0  0  0
    4.0438    0.0406   -1.1572 C   0  0  0  0  0  0  0  0  0  0  0  0
    5.0655    0.2585   -2.0306 C   0  0  0  0  0  0  0  0  0  0  0  0
    6.0680   -0.7019   -2.2586 C   0  0  0  0  0  0  0  0  0  0  0  0
    6.0275   -1.8955   -1.5900 C   0  0  0  0  0  0  0  0  0  0  0  0
    7.1044   -2.9073   -1.8501 C   0  0  0  0  0  0  0  0  0  0  0  0
    6.5804   -3.9064   -2.6791 F   0  0  0  0  0  0  0  0  0  0  0  0
    7.5689   -3.4481   -0.6563 F   0  0  0  0  0  0  0  0  0  0  0  0
    8.1499   -2.2792   -2.5058 F   0  0  0  0  0  0  0  0  0  0  0  0
    5.0198   -2.1408   -0.7143 C   0  0  0  0  0  0  0  0  0  0  0  0
    4.0302   -1.1704   -0.4999 C   0  0  0  0  0  0  0  0  0  0  0  0
    2.8018   -1.5955    0.6755 Cl  0  0  0  0  0  0  0  0  0  0  0  0
   -3.9151    0.4590    0.7217 C   0  0  0  0  0  0  0  0  0  0  0  0
   -5.3180    0.7303    0.1951 C   0  0  0  0  0  0  0  0  0  0  0  0
   -6.0700    3.0154   -1.3953 H   0  0  0  0  0  0  0  0  0  0  0  0
   -4.3905    2.8098   -0.8600 H   0  0  0  0  0  0  0  0  0  0  0  0
   -4.8220    2.4360   -2.6009 H   0  0  0  0  0  0  0  0  0  0  0  0
   -5.4268   -0.5277   -2.5825 H   0  0  0  0  0  0  0  0  0  0  0  0
   -4.0995    0.5996   -2.8677 H   0  0  0  0  0  0  0  0  0  0  0  0
   -4.2610   -1.7054   -0.8912 H   0  0  0  0  0  0  0  0  0  0  0  0
   -2.9641   -1.1627   -2.0723 H   0  0  0  0  0  0  0  0  0  0  0  0
   -1.5205    1.9676    0.7696 H   0  0  0  0  0  0  0  0  0  0  0  0
   -0.2358    0.6762    2.6577 H   0  0  0  0  0  0  0  0  0  0  0  0
   -1.8460    0.0617    2.2489 H   0  0  0  0  0  0  0  0  0  0  0  0
    0.7226   -1.7420    3.0466 H   0  0  0  0  0  0  0  0  0  0  0  0
    0.2061   -2.9229    1.8329 H   0  0  0  0  0  0  0  0  0  0  0  0
   -3.0724   -1.2889    3.7195 H   0  0  0  0  0  0  0  0  0  0  0  0
   -2.2839   -2.0912    5.0948 H   0  0  0  0  0  0  0  0  0  0  0  0
   -1.4389   -0.7082    4.4152 H   0  0  0  0  0  0  0  0  0  0  0  0
   -3.2921   -3.5207    2.7534 H   0  0  0  0  0  0  0  0  0  0  0  0
   -1.9425   -3.8404    1.5131 H   0  0  0  0  0  0  0  0  0  0  0  0
   -0.4041   -4.5295    3.4048 H   0  0  0  0  0  0  0  0  0  0  0  0
   -1.7105   -4.1762    4.6572 H   0  0  0  0  0  0  0  0  0  0  0  0
    1.0285    0.5464   -0.0903 H   0  0  0  0  0  0  0  0  0  0  0  0
    1.0477    5.0008   -1.3672 H   0  0  0  0  0  0  0  0  0  0  0  0
    2.9920    5.8771   -2.5730 H   0  0  0  0  0  0  0  0  0  0  0  0
    4.9341    4.4624   -2.9935 H   0  0  0  0  0  0  0  0  0  0  0  0
    5.1445    1.1553   -2.5927 H   0  0  0  0  0  0  0  0  0  0  0  0
    6.8526   -0.4887   -2.9553 H   0  0  0  0  0  0  0  0  0  0  0  0
    4.9965   -3.0856   -0.1906 H   0  0  0  0  0  0  0  0  0  0  0  0
   -3.5205    1.3550    1.2394 H   0  0  0  0  0  0  0  0  0  0  0  0
   -4.0261   -0.3387    1.4793 H   0  0  0  0  0  0  0  0  0  0  0  0
   -5.6781    1.6452    0.7308 H   0  0  0  0  0  0  0  0  0  0  0  0
   -5.9944   -0.0893    0.4789 H   0  0  0  0  0  0  0  0  0  0  0  0
  1  2  1  0
  2  3  1  0
  3  4  1  0
  4  5  1  0
  5  6  1  0
  6  7  2  0
  6  8  1  0
  8  9  1  0
  9 10  1  0
 10 11  1  0
 11 12  1  0
 12 13  1  0
 12 14  1  0
 14 15  1  0
  8 16  1  0
 16 17  1  0
 17 18  2  0
 17 19  1  0
 19 20  2  0
 20 21  1  0
 21 22  2  0
 22 23  1  0
 23 24  2  0
 24 25  1  0
 25 26  1  0
 26 27  2  0
 27 28  1  0
 28 29  2  0
 29 30  1  0
 30 31  1  0
 30 32  1  0
 30 33  1  0
 29 34  1  0
 34 35  2  0
 35 36  1  0
  5 37  1  0
 37 38  1  0
 38  2  1  0
 15 12  1  0
 24 19  1  0
 35 26  1  0
  1 39  1  0
  1 40  1  0
  1 41  1  0
  3 42  1  0
  3 43  1  0
  4 44  1  0
  4 45  1  0
  8 46  1  1
  9 47  1  0
  9 48  1  0
 11 49  1  0
 11 50  1  0
 13 51  1  0
 13 52  1  0
 13 53  1  0
 14 54  1  0
 14 55  1  0
 15 56  1  0
 15 57  1  0
 16 58  1  0
 20 59  1  0
 21 60  1  0
 22 61  1  0
 27 62  1  0
 28 63  1  0
 34 64  1  0
 37 65  1  0
 37 66  1  0
 38 67  1  0
 38 68  1  0
M  END
$$$$
