@<TRIPOS>MOLECULE
*****
 46 50 0 0 0
SMALL
GASTEIGER

@<TRIPOS>ATOM
      1 C          -6.6924   -0.2699    2.8216 C.3     1  UNL1        0.0789
      2 O          -5.3430    0.1399    2.9214 O.3     1  UNL1       -0.4935
      3 C          -4.5491    0.3168    1.7853 C.ar    1  UNL1        0.1402
      4 C          -3.2355    0.7171    1.9076 C.ar    1  UNL1        0.0701
      5 N          -2.4519    0.8937    0.8219 N.ar    1  UNL1       -0.2480
      6 C          -2.8887    0.6953   -0.4366 C.ar    1  UNL1        0.1101
      7 C          -2.0321    0.8934   -1.5297 C.ar    1  UNL1        0.0567
      8 N          -0.7169    1.3263   -1.3007 N.pl3   1  UNL1       -0.3349
      9 C           0.3054    1.5572   -2.2813 C.3     1  UNL1        0.0710
     10 C           0.8011    0.2250   -2.7713 C.ar    1  UNL1        0.1719
     11 N           0.4075   -0.5241   -3.8045 N.ar    1  UNL1       -0.1306
     12 N           1.1570   -1.6062   -3.8117 N.ar    1  UNL1       -0.1279
     13 C           2.0360   -1.5397   -2.7689 C.ar    1  UNL1        0.1780
     14 C           3.0271   -2.4021   -2.3307 C.ar    1  UNL1       -0.0136
     15 C           3.7599   -2.0190   -1.2034 C.ar    1  UNL1       -0.0305
     16 C           3.5301   -0.8433   -0.5369 C.ar    1  UNL1        0.0921
     17 C           4.2790   -0.4183    0.6415 C.ar    1  UNL1        0.0077
     18 C           4.0047    0.7803    1.2759 C.ar    1  UNL1       -0.0142
     19 C           4.6893    1.2125    2.3876 C.ar    1  UNL1        0.1619
     20 F           4.4065    2.3933    2.9984 F       1  UNL1       -0.2024
     21 C           5.7077    0.4412    2.9282 C.ar    1  UNL1        0.1934
     22 F           6.3866    0.8608    4.0235 F       1  UNL1       -0.1995
     23 C           5.9884   -0.7530    2.3045 C.ar    1  UNL1        0.1619
     24 F           6.9845   -1.5049    2.8352 F       1  UNL1       -0.2024
     25 C           5.2834   -1.1837    1.1709 C.ar    1  UNL1       -0.0142
     26 N           2.5360   -0.0647   -1.0444 N.ar    1  UNL1       -0.1633
     27 N           1.8240   -0.3961   -2.1076 N.ar    1  UNL1       -0.1949
     28 C          -2.5081    0.6833   -2.7997 C.ar    1  UNL1       -0.0206
     29 C          -3.8287    0.2803   -2.9256 C.ar    1  UNL1        0.0301
     30 N          -4.6309    0.0972   -1.8506 N.ar    1  UNL1       -0.2532
     31 C          -4.1954    0.2951   -0.5947 C.ar    1  UNL1        0.0944
     32 C          -5.0154    0.1083    0.5029 C.ar    1  UNL1        0.0091
     33 H          -7.2065    0.5185    2.1979 H       1  UNL1        0.0660
     34 H          -7.1189   -0.3640    3.8189 H       1  UNL1        0.0660
     35 H          -6.7852   -1.2034    2.2025 H       1  UNL1        0.0660
     36 H          -2.8272    0.8926    2.8972 H       1  UNL1        0.0867
     37 H          -0.4031    1.5165   -0.2914 H       1  UNL1        0.1466
     38 H           1.1270    2.1868   -1.9266 H       1  UNL1        0.0543
     39 H          -0.1246    2.0666   -3.1865 H       1  UNL1        0.0543
     40 H           3.1916   -3.3101   -2.8602 H       1  UNL1        0.0656
     41 H           4.5289   -2.6923   -0.8668 H       1  UNL1        0.0641
     42 H           3.2175    1.3906    0.8692 H       1  UNL1        0.0654
     43 H           5.5543   -2.1243    0.7358 H       1  UNL1        0.0654
     44 H          -1.9233    0.8261   -3.6920 H       1  UNL1        0.0652
     45 H          -4.2105    0.1114   -3.9409 H       1  UNL1        0.0830
     46 H          -6.0463   -0.2071    0.3839 H       1  UNL1        0.0677
@<TRIPOS>BOND
     1     1     2    1
     2     2     3    1
     3     3     4   ar
     4     4     5   ar
     5     5     6   ar
     6     6     7   ar
     7     7     8    1
     8     8     9    1
     9     9    10    1
    10    10    11   ar
    11    11    12   ar
    12    12    13   ar
    13    13    14   ar
    14    14    15   ar
    15    15    16   ar
    16    16    17    1
    17    17    18   ar
    18    18    19   ar
    19    19    20    1
    20    19    21   ar
    21    21    22    1
    22    21    23   ar
    23    23    24    1
    24    23    25   ar
    25    16    26   ar
    26    26    27   ar
    27     7    28   ar
    28    28    29   ar
    29    29    30   ar
    30    30    31   ar
    31    31    32   ar
    32    32     3   ar
    33    31     6   ar
    34    27    10   ar
    35    27    13   ar
    36    25    17   ar
    37     1    33    1
    38     1    34    1
    39     1    35    1
    40     4    36    1
    41     8    37    1
    42     9    38    1
    43     9    39    1
    44    14    40    1
    45    15    41    1
    46    18    42    1
    47    25    43    1
    48    28    44    1
    49    29    45    1
    50    32    46    1
