@<TRIPOS>MOLECULE
*****
 44 48 0 0 0
SMALL
GASTEIGER

@<TRIPOS>ATOM
      1 C           0.3758   -2.0653   -1.0855 C.3     1  UNL1        0.1701
      2 O           1.6995   -1.5662   -1.3425 O.3     1  UNL1       -0.4764
      3 C           1.9359   -0.4670   -0.5304 C.ar    1  UNL1        0.1671
      4 C           3.0055    0.1974    0.0369 C.ar    1  UNL1        0.1618
      5 O           4.2586   -0.3078   -0.2239 O.3     1  UNL1       -0.4914
      6 C           5.4670    0.2290    0.2629 C.3     1  UNL1        0.0790
      7 C           2.7478    1.3111    0.8186 C.ar    1  UNL1       -0.0160
      8 C           1.4537    1.7752    1.0464 C.ar    1  UNL1       -0.0546
      9 C           0.3890    1.1324    0.4951 C.ar    1  UNL1       -0.0382
     10 C           0.6786    0.0426   -0.2668 C.ar    1  UNL1        0.0141
     11 C          -0.3744   -0.7761   -0.9440 C.3     1  UNL1        0.0746
     12 C          -0.7365   -0.2028   -2.2751 C.3     1  UNL1       -0.0238
     13 C          -1.3974    1.1366   -2.1469 C.3     1  UNL1        0.0000
     14 N          -2.4553    1.0743   -1.1700 N.3     1  UNL1       -0.2993
     15 C          -3.2702    2.2548   -1.1337 C.3     1  UNL1       -0.0124
     16 C          -2.0023    0.6424    0.1319 C.3     1  UNL1        0.0438
     17 C          -1.0035    1.5865    0.7076 C.3     1  UNL1       -0.0089
     18 C          -1.5390   -0.7769   -0.0288 C.3     1  UNL1        0.0957
     19 O          -2.5917   -1.4473   -0.6876 O.3     1  UNL1       -0.3860
     20 C          -1.3142   -1.5168    1.2467 C.3     1  UNL1       -0.0147
     21 C          -0.9555   -2.9441    0.8576 C.3     1  UNL1        0.0123
     22 C           0.3626   -2.8757    0.1617 C.2     1  UNL1        0.1745
     23 O           1.3301   -3.4620    0.6261 O.2     1  UNL1       -0.2934
     24 H          -0.0220   -2.6036   -1.9691 H       1  UNL1        0.0824
     25 H           6.1218   -0.6574    0.4916 H       1  UNL1        0.0660
     26 H           5.9792    0.8277   -0.5288 H       1  UNL1        0.0660
     27 H           5.3589    0.7864    1.2021 H       1  UNL1        0.0660
     28 H           3.6084    1.8325    1.2656 H       1  UNL1        0.0655
     29 H           1.2965    2.6618    1.6727 H       1  UNL1        0.0622
     30 H           0.2063   -0.0723   -2.8598 H       1  UNL1        0.0288
     31 H          -1.4266   -0.9096   -2.7658 H       1  UNL1        0.0288
     32 H          -0.6830    1.9692   -1.9799 H       1  UNL1        0.0427
     33 H          -1.8923    1.3554   -3.1253 H       1  UNL1        0.0427
     34 H          -2.8757    3.0581   -1.7974 H       1  UNL1        0.0391
     35 H          -3.4340    2.6290   -0.0920 H       1  UNL1        0.0391
     36 H          -4.2696    1.9819   -1.5323 H       1  UNL1        0.0391
     37 H          -2.9075    0.6785    0.7878 H       1  UNL1        0.0494
     38 H          -1.1276    2.5750    0.2480 H       1  UNL1        0.0329
     39 H          -1.1270    1.7061    1.8039 H       1  UNL1        0.0329
     40 H          -3.4600   -1.2604   -0.2506 H       1  UNL1        0.2103
     41 H          -0.4957   -1.0831    1.8742 H       1  UNL1        0.0298
     42 H          -2.2751   -1.5523    1.8014 H       1  UNL1        0.0298
     43 H          -0.9457   -3.6323    1.7168 H       1  UNL1        0.0344
     44 H          -1.6936   -3.2643    0.0889 H       1  UNL1        0.0344
@<TRIPOS>BOND
     1     1     2    1
     2     2     3    1
     3     3     4   ar
     4     4     5    1
     5     5     6    1
     6     4     7   ar
     7     7     8   ar
     8     8     9   ar
     9     9    10   ar
    10    10    11    1
    11    11    12    1
    12    12    13    1
    13    13    14    1
    14    14    15    1
    15    14    16    1
    16    16    17    1
    17    16    18    1
    18    18    19    1
    19    18    20    1
    20    20    21    1
    21    21    22    1
    22    22    23    2
    23    11     1    1
    24    18    11    1
    25    22     1    1
    26    10     3   ar
    27    17     9    1
    28     1    24    1
    29     6    25    1
    30     6    26    1
    31     6    27    1
    32     7    28    1
    33     8    29    1
    34    12    30    1
    35    12    31    1
    36    13    32    1
    37    13    33    1
    38    15    34    1
    39    15    35    1
    40    15    36    1
    41    16    37    1
    42    17    38    1
    43    17    39    1
    44    19    40    1
    45    20    41    1
    46    20    42    1
    47    21    43    1
    48    21    44    1
