
     RDKit          3D

 41 42  0  0  0  0  0  0  0  0999 V2000
    2.5400   -0.6633    1.7599 C   0  0  0  0  0  0  0  0  0  0  0  0
    1.8951   -0.1353    0.5471 C   0  0  0  0  0  0  0  0  0  0  0  0
    2.5810    0.3117   -0.5494 C   0  0  0  0  0  0  0  0  0  0  0  0
    3.9903    0.3930   -0.8659 C   0  0  0  0  0  0  0  0  0  0  0  0
    4.7040    1.6077   -0.3804 C   0  0  0  0  0  0  0  0  0  0  0  0
    4.7097   -0.8330   -0.3544 C   0  0  0  0  0  0  0  0  0  0  0  0
    1.5822    0.7237   -1.4419 C   0  0  0  0  0  0  0  0  0  0  0  0
    1.7533    1.2109   -2.5940 O   0  0  0  0  0  0  0  0  0  0  0  0
    0.4260    0.5280   -0.9009 O   0  0  0  0  0  0  0  0  0  0  0  0
    0.5934    0.0164    0.2844 N   0  0  0  0  0  0  0  0  0  0  0  0
   -0.4644   -0.3264    1.1544 C   0  0  0  0  0  0  0  0  0  0  0  0
   -0.1834   -0.8200    2.2787 O   0  0  0  0  0  0  0  0  0  0  0  0
   -1.8141   -0.1129    0.7558 N   0  0  0  0  0  0  0  0  0  0  0  0
   -2.8673   -0.4746    1.6695 C   0  0  0  0  0  0  0  0  0  0  0  0
   -3.8068   -1.4276    0.9967 C   0  0  0  0  0  0  0  0  0  0  0  0
   -4.2000   -0.8923   -0.3408 C   0  0  0  0  0  0  0  0  0  0  0  0
   -3.6709    0.4936   -0.6156 C   0  0  2  0  0  0  0  0  0  0  0  0
   -4.1299    0.9234   -1.9933 C   0  0  0  0  0  0  0  0  0  0  0  0
   -2.1605    0.4498   -0.5243 C   0  0  0  0  0  0  0  0  0  0  0  0
    2.4886   -1.7426    1.8877 H   0  0  0  0  0  0  0  0  0  0  0  0
    2.0073   -0.2246    2.6584 H   0  0  0  0  0  0  0  0  0  0  0  0
    3.5814   -0.2413    1.8926 H   0  0  0  0  0  0  0  0  0  0  0  0
    4.1384    0.3695   -1.9896 H   0  0  0  0  0  0  0  0  0  0  0  0
    4.6078    1.7567    0.7142 H   0  0  0  0  0  0  0  0  0  0  0  0
    5.8049    1.4259   -0.5527 H   0  0  0  0  0  0  0  0  0  0  0  0
    4.4702    2.5114   -0.9708 H   0  0  0  0  0  0  0  0  0  0  0  0
    3.9810   -1.6035   -0.0216 H   0  0  0  0  0  0  0  0  0  0  0  0
    5.3213   -1.3332   -1.1445 H   0  0  0  0  0  0  0  0  0  0  0  0
    5.4459   -0.5651    0.4464 H   0  0  0  0  0  0  0  0  0  0  0  0
   -2.4565   -0.8914    2.6114 H   0  0  0  0  0  0  0  0  0  0  0  0
   -3.4403    0.4473    1.9034 H   0  0  0  0  0  0  0  0  0  0  0  0
   -4.7155   -1.5446    1.6228 H   0  0  0  0  0  0  0  0  0  0  0  0
   -3.2988   -2.4303    0.9115 H   0  0  0  0  0  0  0  0  0  0  0  0
   -5.3095   -0.8684   -0.4458 H   0  0  0  0  0  0  0  0  0  0  0  0
   -3.7670   -1.5546   -1.1387 H   0  0  0  0  0  0  0  0  0  0  0  0
   -4.0376    1.2376    0.1214 H   0  0  0  0  0  0  0  0  0  0  0  0
   -4.2753    0.0061   -2.6153 H   0  0  0  0  0  0  0  0  0  0  0  0
   -5.1188    1.4180   -1.8548 H   0  0  0  0  0  0  0  0  0  0  0  0
   -3.4366    1.6316   -2.4466 H   0  0  0  0  0  0  0  0  0  0  0  0
   -1.7117    1.4539   -0.6826 H   0  0  0  0  0  0  0  0  0  0  0  0
   -1.7571   -0.2314   -1.3188 H   0  0  0  0  0  0  0  0  0  0  0  0
  1  2  1  0
  2  3  2  0
  3  4  1  0
  4  5  1  0
  4  6  1  0
  3  7  1  0
  7  8  2  0
  7  9  1  0
  9 10  1  0
 10 11  1  0
 11 12  2  0
 11 13  1  0
 13 14  1  0
 14 15  1  0
 15 16  1  0
 16 17  1  0
 17 18  1  0
 17 19  1  0
 10  2  1  0
 19 13  1  0
  1 20  1  0
  1 21  1  0
  1 22  1  0
  4 23  1  0
  5 24  1  0
  5 25  1  0
  5 26  1  0
  6 27  1  0
  6 28  1  0
  6 29  1  0
 14 30  1  0
 14 31  1  0
 15 32  1  0
 15 33  1  0
 16 34  1  0
 16 35  1  0
 17 36  1  1
 18 37  1  0
 18 38  1  0
 18 39  1  0
 19 40  1  0
 19 41  1  0
M  END
$$$$
