@<TRIPOS>MOLECULE
*****
 41 42 0 0 0
SMALL
GASTEIGER

@<TRIPOS>ATOM
      1 C           2.5400   -0.6633    1.7599 C.3     1  UNL1       -0.0203
      2 C           1.8951   -0.1353    0.5471 C.ar    1  UNL1        0.0709
      3 C           2.5810    0.3117   -0.5494 C.ar    1  UNL1        0.0638
      4 C           3.9903    0.3930   -0.8659 C.3     1  UNL1       -0.0129
      5 C           4.7040    1.6077   -0.3804 C.3     1  UNL1       -0.0584
      6 C           4.7097   -0.8330   -0.3544 C.3     1  UNL1       -0.0584
      7 C           1.5822    0.7237   -1.4419 C.ar    1  UNL1        0.3625
      8 O           1.7533    1.2109   -2.5940 O.2     1  UNL1       -0.2429
      9 O           0.4260    0.5280   -0.9009 O.2     1  UNL1       -0.3260
     10 N           0.5934    0.0164    0.2844 N.ar    1  UNL1       -0.1250
     11 C          -0.4644   -0.3264    1.1544 C.2     1  UNL1        0.3503
     12 O          -0.1834   -0.8200    2.2787 O.2     1  UNL1       -0.2463
     13 N          -1.8141   -0.1129    0.7558 N.am    1  UNL1       -0.2808
     14 C          -2.8673   -0.4746    1.6695 C.3     1  UNL1        0.0164
     15 C          -3.8068   -1.4276    0.9967 C.3     1  UNL1       -0.0368
     16 C          -4.2000   -0.8923   -0.3408 C.3     1  UNL1       -0.0476
     17 C          -3.6709    0.4936   -0.6156 C.3     1  UNL1       -0.0279
     18 C          -4.1299    0.9234   -1.9933 C.3     1  UNL1       -0.0610
     19 C          -2.1605    0.4498   -0.5243 C.3     1  UNL1        0.0190
     20 H           2.4886   -1.7426    1.8877 H       1  UNL1        0.0293
     21 H           2.0073   -0.2246    2.6584 H       1  UNL1        0.0293
     22 H           3.5814   -0.2413    1.8926 H       1  UNL1        0.0293
     23 H           4.1384    0.3695   -1.9896 H       1  UNL1        0.0346
     24 H           4.6078    1.7567    0.7142 H       1  UNL1        0.0235
     25 H           5.8049    1.4259   -0.5527 H       1  UNL1        0.0235
     26 H           4.4702    2.5114   -0.9708 H       1  UNL1        0.0235
     27 H           3.9810   -1.6035   -0.0216 H       1  UNL1        0.0235
     28 H           5.3213   -1.3332   -1.1445 H       1  UNL1        0.0235
     29 H           5.4459   -0.5651    0.4464 H       1  UNL1        0.0235
     30 H          -2.4565   -0.8914    2.6114 H       1  UNL1        0.0465
     31 H          -3.4403    0.4473    1.9034 H       1  UNL1        0.0465
     32 H          -4.7155   -1.5446    1.6228 H       1  UNL1        0.0280
     33 H          -3.2988   -2.4303    0.9115 H       1  UNL1        0.0280
     34 H          -5.3095   -0.8684   -0.4458 H       1  UNL1        0.0269
     35 H          -3.7670   -1.5546   -1.1387 H       1  UNL1        0.0269
     36 H          -4.0376    1.2376    0.1214 H       1  UNL1        0.0313
     37 H          -4.2753    0.0061   -2.6153 H       1  UNL1        0.0233
     38 H          -5.1188    1.4180   -1.8548 H       1  UNL1        0.0233
     39 H          -3.4366    1.6316   -2.4466 H       1  UNL1        0.0233
     40 H          -1.7117    1.4539   -0.6826 H       1  UNL1        0.0468
     41 H          -1.7571   -0.2314   -1.3188 H       1  UNL1        0.0468
@<TRIPOS>BOND
     1     1     2    1
     2     2     3   ar
     3     3     4    1
     4     4     5    1
     5     4     6    1
     6     3     7   ar
     7     7     8    2
     8     7     9   ar
     9     9    10   ar
    10    10    11   am
    11    11    12    2
    12    11    13   am
    13    13    14    1
    14    14    15    1
    15    15    16    1
    16    16    17    1
    17    17    18    1
    18    17    19    1
    19    10     2   ar
    20    19    13    1
    21     1    20    1
    22     1    21    1
    23     1    22    1
    24     4    23    1
    25     5    24    1
    26     5    25    1
    27     5    26    1
    28     6    27    1
    29     6    28    1
    30     6    29    1
    31    14    30    1
    32    14    31    1
    33    15    32    1
    34    15    33    1
    35    16    34    1
    36    16    35    1
    37    17    36    1
    38    18    37    1
    39    18    38    1
    40    18    39    1
    41    19    40    1
    42    19    41    1
