@<TRIPOS>MOLECULE
*****
 50 54 0 0 0
SMALL
GASTEIGER

@<TRIPOS>ATOM
      1 O           6.3386    0.7858    0.9512 O.2     1  UNL1       -0.2698
      2 C           5.1639    0.4671    0.6512 C.2     1  UNL1        0.2490
      3 N           3.9766    1.0421    1.1512 N.am    1  UNL1       -0.2809
      4 C           2.8617    0.3812    0.5505 C.ar    1  UNL1        0.0433
      5 C           1.5041    0.5731    0.7080 C.ar    1  UNL1       -0.0186
      6 C           0.6141   -0.1964    0.0134 C.ar    1  UNL1        0.0355
      7 N          -0.8053   -0.0062    0.1699 N.am    1  UNL1       -0.2813
      8 C          -1.5347   -0.6999    1.1440 C.2     1  UNL1        0.2534
      9 O          -0.8992   -1.4990    1.8804 O.2     1  UNL1       -0.2697
     10 C          -2.9619   -0.5235    1.3176 C.ar    1  UNL1        0.1000
     11 C          -3.6210   -1.2606    2.3209 C.ar    1  UNL1        0.0176
     12 N          -4.9282   -1.1750    2.5641 N.ar    1  UNL1       -0.3656
     13 C          -5.7112   -0.3579    1.8454 C.ar    1  UNL1        0.0132
     14 C          -5.1250    0.3878    0.8515 C.ar    1  UNL1        0.0482
     15 C          -6.0003    1.2768    0.0751 C.ar    1  UNL1        0.0224
     16 C          -6.2367    2.5788    0.4624 C.ar    1  UNL1       -0.0511
     17 C          -7.0601    3.4094   -0.2673 C.ar    1  UNL1       -0.0610
     18 C          -7.6852    2.9821   -1.4150 C.ar    1  UNL1       -0.0590
     19 C          -7.4640    1.6770   -1.8261 C.ar    1  UNL1       -0.0258
     20 C          -6.6281    0.8500   -1.0763 C.ar    1  UNL1        0.1312
     21 F          -6.4008   -0.4399   -1.4717 F       1  UNL1       -0.2048
     22 C          -3.7663    0.3093    0.5870 C.ar    1  UNL1        0.2016
     23 O          -3.3148    1.0233   -0.3361 O.2     1  UNL1       -0.2864
     24 C           1.0373   -1.1636   -0.8445 C.ar    1  UNL1       -0.0398
     25 C           2.3907   -1.3601   -1.0061 C.ar    1  UNL1       -0.0503
     26 C           3.3031   -0.5922   -0.3128 C.ar    1  UNL1        0.0085
     27 C           4.7726   -0.5691   -0.2776 C.2     1  UNL1        0.0479
     28 C           5.4891   -1.3774   -1.0170 C.2     1  UNL1       -0.0256
     29 C           6.9372   -1.3175   -0.9919 C.ar    1  UNL1        0.0400
     30 C           7.6963   -2.4740   -0.7817 C.ar    1  UNL1       -0.0370
     31 C           9.0043   -2.0751   -0.8596 C.ar    1  UNL1       -0.0438
     32 C           9.0486   -0.7419   -1.1053 C.ar    1  UNL1        0.0022
     33 N           7.7701   -0.3073   -1.1815 N.ar    1  UNL1       -0.3611
     34 H           3.9335    1.8156    1.8397 H       1  UNL1        0.1552
     35 H           1.1929    1.3555    1.4021 H       1  UNL1        0.0655
     36 H          -1.2062    0.6800   -0.5013 H       1  UNL1        0.1551
     37 H          -2.9812   -1.9315    2.9109 H       1  UNL1        0.0815
     38 H          -5.3605   -1.7409    3.3149 H       1  UNL1        0.1648
     39 H          -6.7796   -0.2621    2.0155 H       1  UNL1        0.0814
     40 H          -5.7366    2.9226    1.3817 H       1  UNL1        0.0625
     41 H          -7.2237    4.4235    0.0657 H       1  UNL1        0.0618
     42 H          -8.3338    3.5709   -2.0265 H       1  UNL1        0.0618
     43 H          -7.9468    1.3057   -2.7361 H       1  UNL1        0.0646
     44 H           0.3455   -1.7978   -1.4174 H       1  UNL1        0.0636
     45 H           2.7043   -2.1414   -1.6981 H       1  UNL1        0.0625
     46 H           5.0432   -2.1212   -1.6762 H       1  UNL1        0.0646
     47 H           7.3093   -3.4747   -0.5963 H       1  UNL1        0.0638
     48 H           9.8324   -2.7672   -0.7349 H       1  UNL1        0.0633
     49 H           9.9179   -0.1253   -1.2214 H       1  UNL1        0.0807
     50 H           7.5243    0.6812   -1.3813 H       1  UNL1        0.1653
@<TRIPOS>BOND
     1     1     2    2
     2     2     3   am
     3     3     4    1
     4     4     5   ar
     5     5     6   ar
     6     6     7    1
     7     7     8   am
     8     8     9    2
     9     8    10    1
    10    10    11   ar
    11    11    12   ar
    12    12    13   ar
    13    13    14   ar
    14    14    15    1
    15    15    16   ar
    16    16    17   ar
    17    17    18   ar
    18    18    19   ar
    19    19    20   ar
    20    20    21    1
    21    14    22   ar
    22    22    23    2
    23     6    24   ar
    24    24    25   ar
    25    25    26   ar
    26    26    27    1
    27    27    28    2
    28    28    29    1
    29    29    30   ar
    30    30    31   ar
    31    31    32   ar
    32    32    33   ar
    33    27     2    1
    34    33    29   ar
    35    26     4   ar
    36    22    10   ar
    37    20    15   ar
    38     3    34    1
    39     5    35    1
    40     7    36    1
    41    11    37    1
    42    12    38    1
    43    13    39    1
    44    16    40    1
    45    17    41    1
    46    18    42    1
    47    19    43    1
    48    24    44    1
    49    25    45    1
    50    28    46    1
    51    30    47    1
    52    31    48    1
    53    32    49    1
    54    33    50    1
