
     RDKit          3D

 39 40  0  0  0  0  0  0  0  0999 V2000
   -4.9600   -2.9378   -1.8191 C   0  0  0  0  0  0  0  0  0  0  0  0
   -4.9508   -2.0961   -0.6875 O   0  0  0  0  0  0  0  0  0  0  0  0
   -3.8020   -1.7143   -0.0647 N   0  0  0  0  0  0  0  0  0  0  0  0
   -3.2620   -0.5507   -0.1839 C   0  0  0  0  0  0  0  0  0  0  0  0
   -2.0304   -0.1989    0.5078 C   0  0  0  0  0  0  0  0  0  0  0  0
   -1.5477    0.9523    0.3547 O   0  0  0  0  0  0  0  0  0  0  0  0
   -1.3349   -1.0916    1.3553 N   0  0  0  0  0  0  0  0  0  0  0  0
   -0.1252   -0.7789    2.0479 C   0  0  0  0  0  0  0  0  0  0  0  0
    1.2297   -0.3343    0.9372 P   0  0  0  0  0  5  0  0  0  0  0  0
    0.7677   -0.0114   -0.4497 O   0  0  0  0  0  0  0  0  0  0  0  0
    2.2632   -1.6894    0.8092 O   0  0  0  0  0  0  0  0  0  0  0  0
    2.1542    0.9500    1.5910 O   0  0  0  0  0  0  0  0  0  0  0  0
    3.5388    0.9542    1.4257 C   0  0  0  0  0  0  0  0  0  0  0  0
    4.0520    0.3577    0.2894 C   0  0  0  0  0  0  0  0  0  0  0  0
    5.4127    0.3279    0.0662 C   0  0  0  0  0  0  0  0  0  0  0  0
    6.2825    0.8871    0.9630 C   0  0  0  0  0  0  0  0  0  0  0  0
    7.7008    0.8337    0.6900 C   0  0  0  0  0  0  0  0  0  0  0  0
    8.8401    0.7967    0.4508 N   0  0  0  0  0  0  0  0  0  0  0  0
    5.7872    1.4810    2.0924 C   0  0  0  0  0  0  0  0  0  0  0  0
    6.6683    2.0268    2.9633 F   0  0  0  0  0  0  0  0  0  0  0  0
    4.4146    1.5053    2.3072 C   0  0  0  0  0  0  0  0  0  0  0  0
   -3.9402    0.4118   -1.0495 C   0  0  0  0  0  0  0  0  0  0  0  0
   -3.4699    1.4376   -1.7778 C   0  0  0  0  0  0  0  0  0  0  0  0
   -4.2933    2.1966   -2.5071 C   0  0  0  0  0  0  0  0  0  0  0  0
   -5.6733    1.8302   -2.4438 C   0  0  0  0  0  0  0  0  0  0  0  0
   -7.0672    2.5923   -3.2682 Cl  0  0  0  0  0  0  0  0  0  0  0  0
   -5.6442    0.4331   -1.3432 S   0  0  0  0  0  0  0  0  0  0  0  0
   -3.9035   -3.1738   -2.0959 H   0  0  0  0  0  0  0  0  0  0  0  0
   -5.4677   -3.9025   -1.6204 H   0  0  0  0  0  0  0  0  0  0  0  0
   -5.4352   -2.4355   -2.7001 H   0  0  0  0  0  0  0  0  0  0  0  0
   -1.7687   -2.0490    1.4609 H   0  0  0  0  0  0  0  0  0  0  0  0
   -0.2466    0.0780    2.7661 H   0  0  0  0  0  0  0  0  0  0  0  0
    0.1770   -1.6389    2.6785 H   0  0  0  0  0  0  0  0  0  0  0  0
    2.6845   -1.8809    1.6998 H   0  0  0  0  0  0  0  0  0  0  0  0
    3.4252   -0.0991   -0.4539 H   0  0  0  0  0  0  0  0  0  0  0  0
    5.8243   -0.1362   -0.8194 H   0  0  0  0  0  0  0  0  0  0  0  0
    4.0123    1.9779    3.2075 H   0  0  0  0  0  0  0  0  0  0  0  0
   -2.3536    1.6300   -1.7473 H   0  0  0  0  0  0  0  0  0  0  0  0
   -3.9589    3.0589   -3.1292 H   0  0  0  0  0  0  0  0  0  0  0  0
  1  2  1  0
  2  3  1  0
  3  4  2  0
  4  5  1  0
  5  6  2  0
  5  7  1  0
  7  8  1  0
  8  9  1  0
  9 10  2  0
  9 11  1  0
  9 12  1  0
 12 13  1  0
 13 14  2  0
 14 15  1  0
 15 16  2  0
 16 17  1  0
 17 18  3  0
 16 19  1  0
 19 20  1  0
 19 21  2  0
  4 22  1  0
 22 23  2  0
 23 24  1  0
 24 25  2  0
 25 26  1  0
 25 27  1  0
 21 13  1  0
 27 22  1  0
  1 28  1  0
  1 29  1  0
  1 30  1  0
  7 31  1  0
  8 32  1  0
  8 33  1  0
 11 34  1  0
 14 35  1  0
 15 36  1  0
 21 37  1  0
 23 38  1  0
 24 39  1  0
M  END
$$$$
