@<TRIPOS>MOLECULE
*****
 39 40 0 0 0
SMALL
GASTEIGER

@<TRIPOS>ATOM
      1 C          -4.9600   -2.9378   -1.8191 C.3     1  UNL1        0.1072
      2 O          -4.9508   -2.0961   -0.6875 O.2     1  UNL1       -0.3965
      3 N          -3.8020   -1.7143   -0.0647 N.2     1  UNL1       -0.0790
      4 C          -3.2620   -0.5507   -0.1839 C.2     1  UNL1        0.1777
      5 C          -2.0304   -0.1989    0.5078 C.2     1  UNL1        0.2672
      6 O          -1.5477    0.9523    0.3547 O.2     1  UNL1       -0.2684
      7 N          -1.3349   -1.0916    1.3553 N.am    1  UNL1       -0.2978
      8 C          -0.1252   -0.7789    2.0479 C.3     1  UNL1        0.1250
      9 P           1.2297   -0.3343    0.9372 P.3     1  UNL1        0.3960
     10 O           0.7677   -0.0114   -0.4497 O.2     1  UNL1       -0.2426
     11 O           2.2632   -1.6894    0.8092 O.3     1  UNL1       -0.3141
     12 O           2.1542    0.9500    1.5910 O.3     1  UNL1       -0.4229
     13 C           3.5388    0.9542    1.4257 C.ar    1  UNL1        0.1327
     14 C           4.0520    0.3577    0.2894 C.ar    1  UNL1       -0.0181
     15 C           5.4127    0.3279    0.0662 C.ar    1  UNL1       -0.0381
     16 C           6.2825    0.8871    0.9630 C.ar    1  UNL1        0.0871
     17 C           7.7008    0.8337    0.6900 C.1     1  UNL1        0.1020
     18 N           8.8401    0.7967    0.4508 N.1     1  UNL1       -0.1908
     19 C           5.7872    1.4810    2.0924 C.ar    1  UNL1        0.1442
     20 F           6.6683    2.0268    2.9633 F       1  UNL1       -0.2040
     21 C           4.4146    1.5053    2.3072 C.ar    1  UNL1        0.0170
     22 C          -3.9402    0.4118   -1.0495 C.ar    1  UNL1        0.0472
     23 C          -3.4699    1.4376   -1.7778 C.ar    1  UNL1       -0.0438
     24 C          -4.2933    2.1966   -2.5071 C.ar    1  UNL1       -0.0356
     25 C          -5.6733    1.8302   -2.4438 C.ar    1  UNL1        0.0786
     26 CL         -7.0672    2.5923   -3.2682 Cl      1  UNL1       -0.0758
     27 S          -5.6442    0.4331   -1.3432 S.2     1  UNL1       -0.0750
     28 H          -3.9035   -3.1738   -2.0959 H       1  UNL1        0.0687
     29 H          -5.4677   -3.9025   -1.6204 H       1  UNL1        0.0687
     30 H          -5.4352   -2.4355   -2.7001 H       1  UNL1        0.0687
     31 H          -1.7687   -2.0490    1.4609 H       1  UNL1        0.1497
     32 H          -0.2466    0.0780    2.7661 H       1  UNL1        0.0599
     33 H           0.1770   -1.6389    2.6785 H       1  UNL1        0.0599
     34 H           2.6845   -1.8809    1.6998 H       1  UNL1        0.2208
     35 H           3.4252   -0.0991   -0.4539 H       1  UNL1        0.0655
     36 H           5.8243   -0.1362   -0.8194 H       1  UNL1        0.0632
     37 H           4.0123    1.9779    3.2075 H       1  UNL1        0.0683
     38 H          -2.3536    1.6300   -1.7473 H       1  UNL1        0.0630
     39 H          -3.9589    3.0589   -3.1292 H       1  UNL1        0.0638
@<TRIPOS>BOND
     1     1     2    1
     2     2     3    1
     3     3     4    2
     4     4     5    1
     5     5     6    2
     6     5     7   am
     7     7     8    1
     8     8     9    1
     9     9    10    2
    10     9    11    1
    11     9    12    1
    12    12    13    1
    13    13    14   ar
    14    14    15   ar
    15    15    16   ar
    16    16    17    1
    17    17    18    3
    18    16    19   ar
    19    19    20    1
    20    19    21   ar
    21     4    22    1
    22    22    23   ar
    23    23    24   ar
    24    24    25   ar
    25    25    26    1
    26    25    27   ar
    27    21    13   ar
    28    27    22   ar
    29     1    28    1
    30     1    29    1
    31     1    30    1
    32     7    31    1
    33     8    32    1
    34     8    33    1
    35    11    34    1
    36    14    35    1
    37    15    36    1
    38    21    37    1
    39    23    38    1
    40    24    39    1
