@<TRIPOS>MOLECULE
*****
 39 40 0 0 0
SMALL
GASTEIGER

@<TRIPOS>ATOM
      1 C          -1.4972    3.6480   -0.4218 C.3     1  UNL1       -0.0585
      2 C          -1.2104    2.3894    0.3277 C.3     1  UNL1        0.0039
      3 C          -0.2717    1.5277   -0.4611 C.2     1  UNL1        0.1436
      4 O           0.0959    1.9804   -1.5562 O.2     1  UNL1       -0.2965
      5 C           0.1692    0.2090    0.0778 C.3     1  UNL1        0.0562
      6 C           0.9993   -0.4332   -1.0293 C.3     1  UNL1       -0.0237
      7 C           2.0134   -1.4017   -0.4937 C.3     1  UNL1       -0.0002
      8 N           2.8866   -0.8360    0.4994 N.3     1  UNL1       -0.3053
      9 C           4.2829   -0.9920    0.1545 C.3     1  UNL1       -0.0128
     10 C           2.5004    0.5350    0.7200 C.3     1  UNL1       -0.0002
     11 C           1.0511    0.4812    1.2262 C.3     1  UNL1       -0.0237
     12 C          -0.9959   -0.6375    0.2856 C.ar    1  UNL1       -0.0305
     13 C          -1.9130   -0.6276   -0.7750 C.ar    1  UNL1       -0.0161
     14 C          -3.0662   -1.4116   -0.6669 C.ar    1  UNL1        0.1171
     15 O          -3.9773   -1.3985   -1.7265 O.3     1  UNL1       -0.5068
     16 C          -3.3156   -2.1926    0.4634 C.ar    1  UNL1       -0.0202
     17 C          -2.4124   -2.1992    1.5024 C.ar    1  UNL1       -0.0580
     18 C          -1.2836   -1.4147    1.3655 C.ar    1  UNL1       -0.0574
     19 H          -2.5540    3.9517   -0.2824 H       1  UNL1        0.0234
     20 H          -1.3760    3.4669   -1.5256 H       1  UNL1        0.0234
     21 H          -0.7963    4.4729   -0.1837 H       1  UNL1        0.0234
     22 H          -0.7612    2.6915    1.3010 H       1  UNL1        0.0339
     23 H          -2.1573    1.9037    0.5716 H       1  UNL1        0.0339
     24 H           0.3287   -1.0419   -1.6902 H       1  UNL1        0.0290
     25 H           1.4509    0.3306   -1.6958 H       1  UNL1        0.0290
     26 H           2.6528   -1.6881   -1.3548 H       1  UNL1        0.0427
     27 H           1.5241   -2.3366   -0.1669 H       1  UNL1        0.0427
     28 H           4.3660   -1.1086   -0.9462 H       1  UNL1        0.0391
     29 H           4.8922   -0.1605    0.5444 H       1  UNL1        0.0391
     30 H           4.6166   -1.9639    0.5859 H       1  UNL1        0.0391
     31 H           3.1386    0.9967    1.5024 H       1  UNL1        0.0427
     32 H           2.6198    1.1066   -0.1943 H       1  UNL1        0.0427
     33 H           1.0928   -0.2465    2.0343 H       1  UNL1        0.0290
     34 H           0.8363    1.4794    1.6901 H       1  UNL1        0.0290
     35 H          -1.7873   -0.0465   -1.6840 H       1  UNL1        0.0657
     36 H          -4.7499   -2.0281   -1.7028 H       1  UNL1        0.2921
     37 H          -4.2345   -2.7907    0.5013 H       1  UNL1        0.0654
     38 H          -2.5810   -2.8027    2.4033 H       1  UNL1        0.0619
     39 H          -0.5766   -1.4121    2.1646 H       1  UNL1        0.0621
@<TRIPOS>BOND
     1     1     2    1
     2     2     3    1
     3     3     4    2
     4     3     5    1
     5     5     6    1
     6     6     7    1
     7     7     8    1
     8     8     9    1
     9     8    10    1
    10    10    11    1
    11     5    12    1
    12    12    13   ar
    13    13    14   ar
    14    14    15    1
    15    14    16   ar
    16    16    17   ar
    17    17    18   ar
    18    11     5    1
    19    18    12   ar
    20     1    19    1
    21     1    20    1
    22     1    21    1
    23     2    22    1
    24     2    23    1
    25     6    24    1
    26     6    25    1
    27     7    26    1
    28     7    27    1
    29     9    28    1
    30     9    29    1
    31     9    30    1
    32    10    31    1
    33    10    32    1
    34    11    33    1
    35    11    34    1
    36    13    35    1
    37    15    36    1
    38    16    37    1
    39    17    38    1
    40    18    39    1
