@<TRIPOS>MOLECULE
*****
 48 50 0 0 0
SMALL
GASTEIGER

@<TRIPOS>ATOM
      1 O          -5.8413   -0.7863   -0.7574 O.3     1  UNL1       -0.4804
      2 C          -4.9519   -1.7871   -0.3935 C.2     1  UNL1        0.3079
      3 O          -6.0733   -2.3593   -0.3693 O.2     1  UNL1       -0.2507
      4 C          -3.7085   -2.5286   -0.0565 C.3     1  UNL1        0.0591
      5 C          -3.1238   -1.8600    1.1276 C.3     1  UNL1       -0.0242
      6 C          -1.9212   -1.0048    0.9022 C.3     1  UNL1        0.0130
      7 N          -2.0037   -0.5034   -0.4565 N.pl3   1  UNL1       -0.3284
      8 C          -1.9965   -1.4269   -1.5754 C.3     1  UNL1        0.0130
      9 C          -2.8664   -2.5812   -1.2671 C.3     1  UNL1       -0.0242
     10 C          -2.0813    0.9020   -0.5952 C.ar    1  UNL1        0.0514
     11 C          -1.1076    1.7534   -0.1223 C.ar    1  UNL1        0.0586
     12 N           0.1124    1.2949    0.5160 N.am    1  UNL1       -0.2674
     13 C           1.2512    1.1877   -0.3986 C.2     1  UNL1        0.3104
     14 O           1.2609    1.4456   -1.6070 O.2     1  UNL1       -0.2521
     15 N           2.1297    0.7381    0.6015 N.am    1  UNL1       -0.2359
     16 C           3.4941    0.5744   -0.0011 C.2     1  UNL1        0.2529
     17 O           3.7056    0.7953   -1.2542 O.2     1  UNL1       -0.2697
     18 C           4.8918    0.2057    0.3533 C.ar    1  UNL1        0.0583
     19 C           5.8234    1.2239    0.4381 C.ar    1  UNL1       -0.0101
     20 C           7.1266    0.9702    0.8118 C.ar    1  UNL1        0.1592
     21 F           8.0688    1.9320    0.9096 F       1  UNL1       -0.2025
     22 C           7.3874   -0.3423    1.0782 C.ar    1  UNL1        0.1598
     23 F           8.6497   -0.6862    1.4566 F       1  UNL1       -0.2024
     24 C           6.5318   -1.4480    1.0246 C.ar    1  UNL1       -0.0045
     25 C           5.2325   -1.1237    0.6407 C.ar    1  UNL1        0.0560
     26 CL          4.0324   -2.3961    0.5160 Cl      1  UNL1       -0.0827
     27 C          -1.1753    3.1331   -0.2418 C.ar    1  UNL1       -0.0034
     28 C          -2.2351    3.7513   -0.8501 C.ar    1  UNL1        0.1253
     29 F          -2.3312    5.0877   -0.9837 F       1  UNL1       -0.2054
     30 C          -3.2514    2.9275   -1.3480 C.ar    1  UNL1       -0.0246
     31 C          -3.1179    1.5693   -1.1931 C.ar    1  UNL1       -0.0361
     32 H          -5.8618    0.0857   -0.2307 H       1  UNL1        0.2951
     33 H          -4.0283   -3.5703    0.2252 H       1  UNL1        0.0414
     34 H          -3.8879   -1.2836    1.7305 H       1  UNL1        0.0288
     35 H          -2.7951   -2.6580    1.8560 H       1  UNL1        0.0288
     36 H          -0.9917   -1.5859    0.9729 H       1  UNL1        0.0464
     37 H          -1.9560   -0.1882    1.6620 H       1  UNL1        0.0464
     38 H          -0.9558   -1.7320   -1.8387 H       1  UNL1        0.0464
     39 H          -2.4113   -0.9066   -2.4919 H       1  UNL1        0.0464
     40 H          -2.1746   -3.4715   -1.1331 H       1  UNL1        0.0288
     41 H          -3.4667   -2.8782   -2.1621 H       1  UNL1        0.0288
     42 H           0.0002    1.1031    1.5629 H       1  UNL1        0.1564
     43 H           2.7534    0.4192    1.3097 H       1  UNL1        0.1594
     44 H           5.5056    2.2326    0.1969 H       1  UNL1        0.0655
     45 H           6.8466   -2.4354    1.2632 H       1  UNL1        0.0662
     46 H          -0.4275    3.8237    0.1234 H       1  UNL1        0.0665
     47 H          -4.0976    3.3847   -1.8368 H       1  UNL1        0.0647
     48 H          -3.9634    1.0028   -1.6107 H       1  UNL1        0.0637
@<TRIPOS>BOND
     1     1     2    1
     2     2     3    2
     3     2     4    1
     4     4     5    1
     5     5     6    1
     6     6     7    1
     7     7     8    1
     8     8     9    1
     9     7    10    1
    10    10    11   ar
    11    11    12    1
    12    12    13   am
    13    13    14    2
    14    13    15   am
    15    15    16   am
    16    16    17    2
    17    16    18    1
    18    18    19   ar
    19    19    20   ar
    20    20    21    1
    21    20    22   ar
    22    22    23    1
    23    22    24   ar
    24    24    25   ar
    25    25    26    1
    26    11    27   ar
    27    27    28   ar
    28    28    29    1
    29    28    30   ar
    30    30    31   ar
    31     9     4    1
    32    31    10   ar
    33    25    18   ar
    34     1    32    1
    35     4    33    1
    36     5    34    1
    37     5    35    1
    38     6    36    1
    39     6    37    1
    40     8    38    1
    41     8    39    1
    42     9    40    1
    43     9    41    1
    44    12    42    1
    45    15    43    1
    46    19    44    1
    47    24    45    1
    48    27    46    1
    49    30    47    1
    50    31    48    1
