
     RDKit          3D

 17 18  0  0  0  0  0  0  0  0999 V2000
   -3.0823   -2.0058    0.9786 O   0  0  0  0  0  0  0  0  0  0  0  0
   -1.9156   -1.6145    0.3711 N   0  0  0  0  0  0  0  0  0  0  0  0
   -1.5539   -2.7450   -0.0689 O   0  0  0  0  0  0  0  0  0  0  0  0
   -1.1414   -0.4416    0.1504 C   0  0  0  0  0  0  0  0  0  0  0  0
   -1.7538    0.7877    0.0216 C   0  0  0  0  0  0  0  0  0  0  0  0
   -0.9608    1.9002   -0.1915 C   0  0  0  0  0  0  0  0  0  0  0  0
    0.4097    1.7534   -0.2695 C   0  0  0  0  0  0  0  0  0  0  0  0
    0.9731    0.5075   -0.1351 C   0  0  0  0  0  0  0  0  0  0  0  0
    2.2966    0.1089   -0.1750 C   0  0  0  0  0  0  0  0  0  0  0  0
    2.3266   -1.2281    0.0105 N   0  0  0  0  0  0  0  0  0  0  0  0
    1.0700   -1.6745    0.1638 N   0  0  0  0  0  0  0  0  0  0  0  0
    0.2152   -0.6484    0.0817 C   0  0  0  0  0  0  0  0  0  0  0  0
   -2.8295    0.8889    0.0851 H   0  0  0  0  0  0  0  0  0  0  0  0
   -1.4181    2.8802   -0.2954 H   0  0  0  0  0  0  0  0  0  0  0  0
    1.0522    2.6117   -0.4356 H   0  0  0  0  0  0  0  0  0  0  0  0
    3.1225    0.7664   -0.3269 H   0  0  0  0  0  0  0  0  0  0  0  0
    3.1896   -1.8470    0.0354 H   0  0  0  0  0  0  0  0  0  0  0  0
  1  2  1  0
  2  3  2  0
  2  4  1  0
  4  5  2  0
  5  6  1  0
  6  7  2  0
  7  8  1  0
  8  9  2  0
  9 10  1  0
 10 11  1  0
 11 12  2  0
 12  4  1  0
 12  8  1  0
  5 13  1  0
  6 14  1  0
  7 15  1  0
  9 16  1  0
 10 17  1  0
M  CHG  2   1  -1   2   1
M  END
$$$$
