@<TRIPOS>MOLECULE
*****
 17 18 0 0 0
SMALL
GASTEIGER

@<TRIPOS>ATOM
      1 O          -3.0823   -2.0058    0.9786 O.co2   1  UNL1       -0.5760
      2 N          -1.9156   -1.6145    0.3711 N.pl3   1  UNL1        0.0819
      3 O          -1.5539   -2.7450   -0.0689 O.2     1  UNL1        0.0415
      4 C          -1.1414   -0.4416    0.1504 C.ar    1  UNL1        0.3005
      5 C          -1.7538    0.7877    0.0216 C.ar    1  UNL1        0.0179
      6 C          -0.9608    1.9002   -0.1915 C.ar    1  UNL1       -0.0546
      7 C           0.4097    1.7534   -0.2695 C.ar    1  UNL1       -0.0506
      8 C           0.9731    0.5075   -0.1351 C.ar    1  UNL1        0.0262
      9 C           2.2966    0.1089   -0.1750 C.ar    1  UNL1        0.0303
     10 N           2.3266   -1.2281    0.0105 N.ar    1  UNL1       -0.2834
     11 N           1.0700   -1.6745    0.1638 N.ar    1  UNL1       -0.1670
     12 C           0.2152   -0.6484    0.0817 C.ar    1  UNL1        0.1691
     13 H          -2.8295    0.8889    0.0851 H       1  UNL1        0.0686
     14 H          -1.4181    2.8802   -0.2954 H       1  UNL1        0.0620
     15 H           1.0522    2.6117   -0.4356 H       1  UNL1        0.0625
     16 H           3.1225    0.7664   -0.3269 H       1  UNL1        0.0830
     17 H           3.1896   -1.8470    0.0354 H       1  UNL1        0.1882
@<TRIPOS>UNITY_ATOM_ATTR
1 1
charge -1
2 1
charge 1
@<TRIPOS>BOND
     1     1     2    1
     2     2     3    2
     3     2     4    1
     4     4     5   ar
     5     5     6   ar
     6     6     7   ar
     7     7     8   ar
     8     8     9   ar
     9     9    10   ar
    10    10    11   ar
    11    11    12   ar
    12    12     4   ar
    13    12     8   ar
    14     5    13    1
    15     6    14    1
    16     7    15    1
    17     9    16    1
    18    10    17    1
