@<TRIPOS>MOLECULE
*****
 40 43 0 0 0
SMALL
GASTEIGER

@<TRIPOS>ATOM
      1 O           1.4614   -4.2269   -0.0711 O.2     1  UNL1       -0.2870
      2 C           1.0152   -3.0396   -0.1037 C.ar    1  UNL1        0.1944
      3 C           1.8637   -1.9808   -0.3828 C.ar    1  UNL1        0.0434
      4 C           1.3848   -0.6933   -0.4193 C.ar    1  UNL1        0.1931
      5 O           0.1230   -0.4815   -0.1880 O.2     1  UNL1       -0.4405
      6 C          -0.7296   -1.4414    0.0818 C.ar    1  UNL1        0.1485
      7 C          -0.3159   -2.7568    0.1341 C.ar    1  UNL1        0.0647
      8 C          -1.1434   -3.8186    0.4093 C.ar    1  UNL1       -0.0473
      9 C          -2.4838   -3.5364    0.6492 C.ar    1  UNL1       -0.0603
     10 C          -2.9251   -2.2224    0.6025 C.ar    1  UNL1       -0.0505
     11 C          -2.0629   -1.1794    0.3222 C.ar    1  UNL1        0.0252
     12 C          -2.5836    0.1837    0.2864 C.ar    1  UNL1       -0.0144
     13 C          -2.2652    1.0855   -0.7084 C.ar    1  UNL1       -0.0539
     14 C          -2.7344    2.3769   -0.7776 C.ar    1  UNL1       -0.0612
     15 C          -3.5932    2.8135    0.2248 C.ar    1  UNL1       -0.0617
     16 C          -3.9445    1.9528    1.2437 C.ar    1  UNL1       -0.0612
     17 C          -3.4434    0.6475    1.2743 C.ar    1  UNL1       -0.0539
     18 N           2.2230    0.4140   -0.7013 N.pl3   1  UNL1       -0.2969
     19 C           3.6443    0.3564   -0.9821 C.3     1  UNL1        0.0383
     20 C           4.3102    0.9091    0.2861 C.3     1  UNL1        0.0635
     21 O           3.4800    1.8345    0.8968 O.3     1  UNL1       -0.3767
     22 C           2.7474    2.6111   -0.0011 C.3     1  UNL1        0.0635
     23 C           1.6969    1.7650   -0.7326 C.3     1  UNL1        0.0383
     24 H           2.8982   -2.2122   -0.5664 H       1  UNL1        0.0707
     25 H          -0.7968   -4.8237    0.4432 H       1  UNL1        0.0626
     26 H          -3.1282   -4.3783    0.8650 H       1  UNL1        0.0618
     27 H          -3.9821   -2.1021    0.8021 H       1  UNL1        0.0625
     28 H          -1.5893    0.6996   -1.4724 H       1  UNL1        0.0624
     29 H          -2.4513    3.0304   -1.5752 H       1  UNL1        0.0618
     30 H          -3.9791    3.8274    0.1960 H       1  UNL1        0.0618
     31 H          -4.6083    2.2462    2.0442 H       1  UNL1        0.0618
     32 H          -3.7147   -0.0274    2.0673 H       1  UNL1        0.0624
     33 H           3.8948    1.0672   -1.8225 H       1  UNL1        0.0487
     34 H           4.0339   -0.6411   -1.1776 H       1  UNL1        0.0487
     35 H           4.3640    0.0341    0.9822 H       1  UNL1        0.0575
     36 H           5.3369    1.2530    0.1111 H       1  UNL1        0.0575
     37 H           2.1939    3.3510    0.5955 H       1  UNL1        0.0575
     38 H           3.3816    3.1552   -0.7200 H       1  UNL1        0.0575
     39 H           0.6929    1.8711   -0.3050 H       1  UNL1        0.0487
     40 H           1.7288    2.0765   -1.8108 H       1  UNL1        0.0487
@<TRIPOS>BOND
     1     1     2    2
     2     2     3   ar
     3     3     4   ar
     4     4     5   ar
     5     5     6   ar
     6     6     7   ar
     7     7     8   ar
     8     8     9   ar
     9     9    10   ar
    10    10    11   ar
    11    11    12    1
    12    12    13   ar
    13    13    14   ar
    14    14    15   ar
    15    15    16   ar
    16    16    17   ar
    17     4    18    1
    18    18    19    1
    19    19    20    1
    20    20    21    1
    21    21    22    1
    22    22    23    1
    23     7     2   ar
    24    17    12   ar
    25    23    18    1
    26    11     6   ar
    27     3    24    1
    28     8    25    1
    29     9    26    1
    30    10    27    1
    31    13    28    1
    32    14    29    1
    33    15    30    1
    34    16    31    1
    35    17    32    1
    36    19    33    1
    37    19    34    1
    38    20    35    1
    39    20    36    1
    40    22    37    1
    41    22    38    1
    42    23    39    1
    43    23    40    1
