
     RDKit          3D

 40 43  0  0  0  0  0  0  0  0999 V2000
    1.4614   -4.2269   -0.0711 O   0  0  0  0  0  0  0  0  0  0  0  0
    1.0152   -3.0396   -0.1037 C   0  0  0  0  0  0  0  0  0  0  0  0
    1.8637   -1.9808   -0.3828 C   0  0  0  0  0  0  0  0  0  0  0  0
    1.3848   -0.6933   -0.4193 C   0  0  0  0  0  0  0  0  0  0  0  0
    0.1230   -0.4815   -0.1880 O   0  0  0  0  0  0  0  0  0  0  0  0
   -0.7296   -1.4414    0.0818 C   0  0  0  0  0  0  0  0  0  0  0  0
   -0.3159   -2.7568    0.1341 C   0  0  0  0  0  0  0  0  0  0  0  0
   -1.1434   -3.8186    0.4093 C   0  0  0  0  0  0  0  0  0  0  0  0
   -2.4838   -3.5364    0.6492 C   0  0  0  0  0  0  0  0  0  0  0  0
   -2.9251   -2.2224    0.6025 C   0  0  0  0  0  0  0  0  0  0  0  0
   -2.0629   -1.1794    0.3222 C   0  0  0  0  0  0  0  0  0  0  0  0
   -2.5836    0.1837    0.2864 C   0  0  0  0  0  0  0  0  0  0  0  0
   -2.2652    1.0855   -0.7084 C   0  0  0  0  0  0  0  0  0  0  0  0
   -2.7344    2.3769   -0.7776 C   0  0  0  0  0  0  0  0  0  0  0  0
   -3.5932    2.8135    0.2248 C   0  0  0  0  0  0  0  0  0  0  0  0
   -3.9445    1.9528    1.2437 C   0  0  0  0  0  0  0  0  0  0  0  0
   -3.4434    0.6475    1.2743 C   0  0  0  0  0  0  0  0  0  0  0  0
    2.2230    0.4140   -0.7013 N   0  0  0  0  0  0  0  0  0  0  0  0
    3.6443    0.3564   -0.9821 C   0  0  0  0  0  0  0  0  0  0  0  0
    4.3102    0.9091    0.2861 C   0  0  0  0  0  0  0  0  0  0  0  0
    3.4800    1.8345    0.8968 O   0  0  0  0  0  0  0  0  0  0  0  0
    2.7474    2.6111   -0.0011 C   0  0  0  0  0  0  0  0  0  0  0  0
    1.6969    1.7650   -0.7326 C   0  0  0  0  0  0  0  0  0  0  0  0
    2.8982   -2.2122   -0.5664 H   0  0  0  0  0  0  0  0  0  0  0  0
   -0.7968   -4.8237    0.4432 H   0  0  0  0  0  0  0  0  0  0  0  0
   -3.1282   -4.3783    0.8650 H   0  0  0  0  0  0  0  0  0  0  0  0
   -3.9821   -2.1021    0.8021 H   0  0  0  0  0  0  0  0  0  0  0  0
   -1.5893    0.6996   -1.4724 H   0  0  0  0  0  0  0  0  0  0  0  0
   -2.4513    3.0304   -1.5752 H   0  0  0  0  0  0  0  0  0  0  0  0
   -3.9791    3.8274    0.1960 H   0  0  0  0  0  0  0  0  0  0  0  0
   -4.6083    2.2462    2.0442 H   0  0  0  0  0  0  0  0  0  0  0  0
   -3.7147   -0.0274    2.0673 H   0  0  0  0  0  0  0  0  0  0  0  0
    3.8948    1.0672   -1.8225 H   0  0  0  0  0  0  0  0  0  0  0  0
    4.0339   -0.6411   -1.1776 H   0  0  0  0  0  0  0  0  0  0  0  0
    4.3640    0.0341    0.9822 H   0  0  0  0  0  0  0  0  0  0  0  0
    5.3369    1.2530    0.1111 H   0  0  0  0  0  0  0  0  0  0  0  0
    2.1939    3.3510    0.5955 H   0  0  0  0  0  0  0  0  0  0  0  0
    3.3816    3.1552   -0.7200 H   0  0  0  0  0  0  0  0  0  0  0  0
    0.6929    1.8711   -0.3050 H   0  0  0  0  0  0  0  0  0  0  0  0
    1.7288    2.0765   -1.8108 H   0  0  0  0  0  0  0  0  0  0  0  0
  1  2  2  0
  2  3  1  0
  3  4  2  0
  4  5  1  0
  5  6  1  0
  6  7  2  0
  7  8  1  0
  8  9  2  0
  9 10  1  0
 10 11  2  0
 11 12  1  0
 12 13  2  0
 13 14  1  0
 14 15  2  0
 15 16  1  0
 16 17  2  0
  4 18  1  0
 18 19  1  0
 19 20  1  0
 20 21  1  0
 21 22  1  0
 22 23  1  0
  7  2  1  0
 17 12  1  0
 23 18  1  0
 11  6  1  0
  3 24  1  0
  8 25  1  0
  9 26  1  0
 10 27  1  0
 13 28  1  0
 14 29  1  0
 15 30  1  0
 16 31  1  0
 17 32  1  0
 19 33  1  0
 19 34  1  0
 20 35  1  0
 20 36  1  0
 22 37  1  0
 22 38  1  0
 23 39  1  0
 23 40  1  0
M  END
$$$$
