@<TRIPOS>MOLECULE
*****
 46 49 0 0 0
SMALL
GASTEIGER

@<TRIPOS>ATOM
      1 C           1.0612   -0.7630   -1.9681 C.3     1  UNL1        0.0291
      2 N           0.5830   -0.3038   -0.6472 N.ar    1  UNL1       -0.2830
      3 C          -0.6916   -0.0013   -0.3604 C.ar    1  UNL1        0.0511
      4 C          -0.7769    0.3817    0.9550 C.ar    1  UNL1        0.0437
      5 C           0.5126    0.2909    1.4316 C.ar    1  UNL1        0.2755
      6 O           0.7943    0.5777    2.6326 O.2     1  UNL1       -0.2655
      7 N           1.3166   -0.1278    0.4362 N.ar    1  UNL1       -0.2164
      8 C           2.7063   -0.3467    0.5270 C.ar    1  UNL1        0.0790
      9 C           3.2067   -1.5908    0.8866 C.ar    1  UNL1       -0.0357
     10 C           4.5515   -1.8421    0.9846 C.ar    1  UNL1       -0.0597
     11 C           5.4255   -0.8112    0.7129 C.ar    1  UNL1       -0.0611
     12 C           4.9611    0.4382    0.3526 C.ar    1  UNL1       -0.0481
     13 C           3.5855    0.6642    0.2611 C.ar    1  UNL1        0.0802
     14 C           3.1303    1.9976   -0.1217 C.3     1  UNL1        0.4194
     15 F           2.3498    2.5104    0.8969 F       1  UNL1       -0.1658
     16 F           2.3659    2.0500   -1.2653 F       1  UNL1       -0.1658
     17 F           4.2030    2.8939   -0.2330 F       1  UNL1       -0.1658
     18 C          -2.2102    0.7100    1.2597 C.3     1  UNL1       -0.0029
     19 C          -2.5623    1.9619    0.5458 C.3     1  UNL1       -0.0446
     20 C          -2.4389    1.5692   -0.9149 C.3     1  UNL1       -0.0411
     21 C          -2.0853    0.0972   -0.9006 C.3     1  UNL1        0.0158
     22 C          -2.3299   -0.6501   -2.1187 C.3     1  UNL1       -0.0536
     23 C          -2.8561   -0.3378    0.3317 C.3     1  UNL1       -0.0171
     24 C          -2.4125   -1.7203    0.6911 C.3     1  UNL1       -0.0584
     25 C          -4.3223   -0.1587    0.2150 C.3     1  UNL1       -0.0584
     26 H           0.6009   -0.1906   -2.7799 H       1  UNL1        0.0472
     27 H           0.8100   -1.8299   -2.1181 H       1  UNL1        0.0472
     28 H           2.1705   -0.6917   -1.9559 H       1  UNL1        0.0472
     29 H           2.5034   -2.3819    1.0944 H       1  UNL1        0.0639
     30 H           4.9479   -2.8224    1.2680 H       1  UNL1        0.0618
     31 H           6.5032   -1.0150    0.7921 H       1  UNL1        0.0618
     32 H           5.6622    1.2178    0.1479 H       1  UNL1        0.0624
     33 H          -2.4782    0.6084    2.2842 H       1  UNL1        0.0357
     34 H          -3.6415    2.1934    0.7733 H       1  UNL1        0.0272
     35 H          -1.9210    2.8169    0.8101 H       1  UNL1        0.0272
     36 H          -1.5823    2.1765   -1.3278 H       1  UNL1        0.0274
     37 H          -3.3233    1.8048   -1.5044 H       1  UNL1        0.0274
     38 H          -1.5111   -1.3223   -2.4585 H       1  UNL1        0.0239
     39 H          -3.2220   -1.3306   -1.9956 H       1  UNL1        0.0239
     40 H          -2.6071   -0.0032   -2.9972 H       1  UNL1        0.0239
     41 H          -1.4596   -1.6460    1.2473 H       1  UNL1        0.0235
     42 H          -2.1989   -2.2618   -0.2629 H       1  UNL1        0.0235
     43 H          -3.1883   -2.3062    1.2164 H       1  UNL1        0.0235
     44 H          -4.7585   -1.1513   -0.1017 H       1  UNL1        0.0235
     45 H          -4.6333    0.5678   -0.5465 H       1  UNL1        0.0235
     46 H          -4.7404    0.0782    1.2181 H       1  UNL1        0.0235
@<TRIPOS>BOND
     1     1     2    1
     2     2     3   ar
     3     3     4   ar
     4     4     5   ar
     5     5     6    2
     6     5     7   ar
     7     7     8    1
     8     8     9   ar
     9     9    10   ar
    10    10    11   ar
    11    11    12   ar
    12    12    13   ar
    13    13    14    1
    14    14    15    1
    15    14    16    1
    16    14    17    1
    17     4    18    1
    18    18    19    1
    19    19    20    1
    20    20    21    1
    21    21    22    1
    22    21    23    1
    23    23    24    1
    24    23    25    1
    25     7     2   ar
    26    13     8   ar
    27    23    18    1
    28    21     3    1
    29     1    26    1
    30     1    27    1
    31     1    28    1
    32     9    29    1
    33    10    30    1
    34    11    31    1
    35    12    32    1
    36    18    33    1
    37    19    34    1
    38    19    35    1
    39    20    36    1
    40    20    37    1
    41    22    38    1
    42    22    39    1
    43    22    40    1
    44    24    41    1
    45    24    42    1
    46    24    43    1
    47    25    44    1
    48    25    45    1
    49    25    46    1
