@<TRIPOS>MOLECULE
*****
 51 54 0 0 0
SMALL
GASTEIGER

@<TRIPOS>ATOM
      1 C           5.0808    0.4992    0.3621 C.3     1  UNL1        0.0856
      2 C           6.1199    0.9338   -0.6766 C.3     1  UNL1       -0.0277
      3 C           7.1805   -0.1220   -0.4969 C.3     1  UNL1       -0.0386
      4 C           6.3835   -1.3557   -0.1260 C.3     1  UNL1       -0.0034
      5 N           5.0359   -0.9362    0.1599 N.3     1  UNL1       -0.3055
      6 C           3.7561    1.1252    0.0737 C.2     1  UNL1        0.2262
      7 O           3.0646    0.9268   -1.0986 O.2     1  UNL1       -0.4934
      8 N           3.2313    1.8860    0.9579 N.2     1  UNL1       -0.0729
      9 S           1.7432    2.6955    0.8398 S.O2    1  UNL1        0.1967
     10 O           1.3835    2.8397   -0.6117 O.2     1  UNL1       -0.1226
     11 O           1.8343    4.1232    1.3675 O.2     1  UNL1       -0.1226
     12 O           0.4718    1.9214    1.6004 O.3     1  UNL1       -0.2166
     13 C           0.3669    0.5873    1.3417 C.3     1  UNL1        0.1072
     14 C          -0.7658   -0.0907    2.0736 C.3     1  UNL1        0.1152
     15 O          -1.9682    0.4583    1.7373 O.3     1  UNL1       -0.3456
     16 C          -2.7555   -0.5094    1.1471 C.3     1  UNL1        0.1667
     17 N          -3.5970    0.0610    0.1136 N.ar    1  UNL1       -0.2855
     18 C          -3.2702    0.9681   -0.8417 C.ar    1  UNL1        0.1004
     19 N          -4.3494    1.2449   -1.6207 N.ar    1  UNL1       -0.2306
     20 C          -5.3933    0.5209   -1.1822 C.ar    1  UNL1        0.1473
     21 C          -6.7127    0.4052   -1.5887 C.ar    1  UNL1        0.1472
     22 N          -7.2075    1.1556   -2.6956 N.pl3   1  UNL1       -0.3413
     23 N          -7.4888   -0.4584   -0.8715 N.ar    1  UNL1       -0.2188
     24 C          -7.0034   -1.1590    0.1715 C.ar    1  UNL1        0.1205
     25 N          -5.7072   -1.0455    0.5711 N.ar    1  UNL1       -0.2159
     26 C          -4.9109   -0.2065   -0.1082 C.ar    1  UNL1        0.1674
     27 C          -1.8195   -1.5646    0.6006 C.3     1  UNL1        0.1285
     28 O          -2.4406   -2.8082    0.5054 O.3     1  UNL1       -0.3847
     29 C          -0.7519   -1.5495    1.6756 C.3     1  UNL1        0.1136
     30 O          -1.1568   -2.3741    2.7241 O.3     1  UNL1       -0.3864
     31 H           5.4347    0.7831    1.3514 H       1  UNL1        0.0558
     32 H           6.4803    1.9433   -0.3802 H       1  UNL1        0.0285
     33 H           5.6652    0.9481   -1.6864 H       1  UNL1        0.0285
     34 H           7.8348    0.1912    0.3475 H       1  UNL1        0.0278
     35 H           7.7828   -0.2855   -1.4355 H       1  UNL1        0.0278
     36 H           6.4331   -2.0664   -0.9956 H       1  UNL1        0.0424
     37 H           6.7952   -1.8896    0.7574 H       1  UNL1        0.0424
     38 H           4.4765   -1.0645   -0.7362 H       1  UNL1        0.1226
     39 H           2.0721    0.6731   -1.0830 H       1  UNL1        0.2935
     40 H           0.0908    0.5018    0.2485 H       1  UNL1        0.0611
     41 H           1.2966   -0.0044    1.4526 H       1  UNL1        0.0611
     42 H          -0.6364   -0.0700    3.1714 H       1  UNL1        0.0647
     43 H          -3.4271   -0.9633    1.9177 H       1  UNL1        0.0866
     44 H          -2.2586    1.3904   -0.9310 H       1  UNL1        0.1030
     45 H          -6.5512    1.2182   -3.5280 H       1  UNL1        0.1438
     46 H          -6.6697    1.2903   -3.5590 H       1  UNL1        0.1438
     47 H          -7.7347   -1.8111    0.6530 H       1  UNL1        0.1048
     48 H          -1.4606   -1.2156   -0.3837 H       1  UNL1        0.0665
     49 H          -3.3526   -2.6049    0.1252 H       1  UNL1        0.2101
     50 H           0.2477   -1.8346    1.2803 H       1  UNL1        0.0647
     51 H          -0.8724   -3.3023    2.5219 H       1  UNL1        0.2100
@<TRIPOS>BOND
     1     1     2    1
     2     2     3    1
     3     3     4    1
     4     4     5    1
     5     1     6    1
     6     6     7    1
     7     6     8    2
     8     8     9    1
     9     9    10    2
    10     9    11    2
    11     9    12    1
    12    12    13    1
    13    13    14    1
    14    14    15    1
    15    15    16    1
    16    16    17    1
    17    17    18   ar
    18    18    19   ar
    19    19    20   ar
    20    20    21   ar
    21    21    22    1
    22    21    23   ar
    23    23    24   ar
    24    24    25   ar
    25    25    26   ar
    26    16    27    1
    27    27    28    1
    28    27    29    1
    29    29    30    1
    30     5     1    1
    31    29    14    1
    32    26    17   ar
    33    26    20   ar
    34     1    31    1
    35     2    32    1
    36     2    33    1
    37     3    34    1
    38     3    35    1
    39     4    36    1
    40     4    37    1
    41     5    38    1
    42     7    39    1
    43    13    40    1
    44    13    41    1
    45    14    42    1
    46    16    43    1
    47    18    44    1
    48    22    45    1
    49    22    46    1
    50    24    47    1
    51    27    48    1
    52    28    49    1
    53    29    50    1
    54    30    51    1
