
     RDKit          3D

 51 54  0  0  0  0  0  0  0  0999 V2000
    5.0808    0.4992    0.3621 C   0  0  2  0  0  0  0  0  0  0  0  0
    6.1199    0.9338   -0.6766 C   0  0  0  0  0  0  0  0  0  0  0  0
    7.1805   -0.1220   -0.4969 C   0  0  0  0  0  0  0  0  0  0  0  0
    6.3835   -1.3557   -0.1260 C   0  0  0  0  0  0  0  0  0  0  0  0
    5.0359   -0.9362    0.1599 N   0  0  0  0  0  0  0  0  0  0  0  0
    3.7561    1.1252    0.0737 C   0  0  0  0  0  0  0  0  0  0  0  0
    3.0646    0.9268   -1.0986 O   0  0  0  0  0  0  0  0  0  0  0  0
    3.2313    1.8860    0.9579 N   0  0  0  0  0  0  0  0  0  0  0  0
    1.7432    2.6955    0.8398 S   0  0  0  0  0  0  0  0  0  0  0  0
    1.3835    2.8397   -0.6117 O   0  0  0  0  0  0  0  0  0  0  0  0
    1.8343    4.1232    1.3675 O   0  0  0  0  0  0  0  0  0  0  0  0
    0.4718    1.9214    1.6004 O   0  0  0  0  0  0  0  0  0  0  0  0
    0.3669    0.5873    1.3417 C   0  0  0  0  0  0  0  0  0  0  0  0
   -0.7658   -0.0907    2.0736 C   0  0  1  0  0  0  0  0  0  0  0  0
   -1.9682    0.4583    1.7373 O   0  0  0  0  0  0  0  0  0  0  0  0
   -2.7555   -0.5094    1.1471 C   0  0  1  0  0  0  0  0  0  0  0  0
   -3.5970    0.0610    0.1136 N   0  0  0  0  0  0  0  0  0  0  0  0
   -3.2702    0.9681   -0.8417 C   0  0  0  0  0  0  0  0  0  0  0  0
   -4.3494    1.2449   -1.6207 N   0  0  0  0  0  0  0  0  0  0  0  0
   -5.3933    0.5209   -1.1822 C   0  0  0  0  0  0  0  0  0  0  0  0
   -6.7127    0.4052   -1.5887 C   0  0  0  0  0  0  0  0  0  0  0  0
   -7.2075    1.1556   -2.6956 N   0  0  0  0  0  0  0  0  0  0  0  0
   -7.4888   -0.4584   -0.8715 N   0  0  0  0  0  0  0  0  0  0  0  0
   -7.0034   -1.1590    0.1715 C   0  0  0  0  0  0  0  0  0  0  0  0
   -5.7072   -1.0455    0.5711 N   0  0  0  0  0  0  0  0  0  0  0  0
   -4.9109   -0.2065   -0.1082 C   0  0  0  0  0  0  0  0  0  0  0  0
   -1.8195   -1.5646    0.6006 C   0  0  2  0  0  0  0  0  0  0  0  0
   -2.4406   -2.8082    0.5054 O   0  0  0  0  0  0  0  0  0  0  0  0
   -0.7519   -1.5495    1.6756 C   0  0  2  0  0  0  0  0  0  0  0  0
   -1.1568   -2.3741    2.7241 O   0  0  0  0  0  0  0  0  0  0  0  0
    5.4347    0.7831    1.3514 H   0  0  0  0  0  0  0  0  0  0  0  0
    6.4803    1.9433   -0.3802 H   0  0  0  0  0  0  0  0  0  0  0  0
    5.6652    0.9481   -1.6864 H   0  0  0  0  0  0  0  0  0  0  0  0
    7.8348    0.1912    0.3475 H   0  0  0  0  0  0  0  0  0  0  0  0
    7.7828   -0.2855   -1.4355 H   0  0  0  0  0  0  0  0  0  0  0  0
    6.4331   -2.0664   -0.9956 H   0  0  0  0  0  0  0  0  0  0  0  0
    6.7952   -1.8896    0.7574 H   0  0  0  0  0  0  0  0  0  0  0  0
    4.4765   -1.0645   -0.7362 H   0  0  0  0  0  0  0  0  0  0  0  0
    2.0721    0.6731   -1.0830 H   0  0  0  0  0  0  0  0  0  0  0  0
    0.0908    0.5018    0.2485 H   0  0  0  0  0  0  0  0  0  0  0  0
    1.2966   -0.0044    1.4526 H   0  0  0  0  0  0  0  0  0  0  0  0
   -0.6364   -0.0700    3.1714 H   0  0  0  0  0  0  0  0  0  0  0  0
   -3.4271   -0.9633    1.9177 H   0  0  0  0  0  0  0  0  0  0  0  0
   -2.2586    1.3904   -0.9310 H   0  0  0  0  0  0  0  0  0  0  0  0
   -6.5512    1.2182   -3.5280 H   0  0  0  0  0  0  0  0  0  0  0  0
   -6.6697    1.2903   -3.5590 H   0  0  0  0  0  0  0  0  0  0  0  0
   -7.7347   -1.8111    0.6530 H   0  0  0  0  0  0  0  0  0  0  0  0
   -1.4606   -1.2156   -0.3837 H   0  0  0  0  0  0  0  0  0  0  0  0
   -3.3526   -2.6049    0.1252 H   0  0  0  0  0  0  0  0  0  0  0  0
    0.2477   -1.8346    1.2803 H   0  0  0  0  0  0  0  0  0  0  0  0
   -0.8724   -3.3023    2.5219 H   0  0  0  0  0  0  0  0  0  0  0  0
  1  2  1  0
  2  3  1  0
  3  4  1  0
  4  5  1  0
  1  6  1  0
  6  7  1  0
  6  8  2  3
  8  9  1  0
  9 10  2  0
  9 11  2  0
  9 12  1  0
 12 13  1  0
 13 14  1  0
 14 15  1  0
 15 16  1  0
 16 17  1  0
 17 18  1  0
 18 19  2  0
 19 20  1  0
 20 21  2  0
 21 22  1  0
 21 23  1  0
 23 24  2  0
 24 25  1  0
 25 26  2  0
 16 27  1  0
 27 28  1  0
 27 29  1  0
 29 30  1  0
  5  1  1  0
 29 14  1  0
 26 17  1  0
 26 20  1  0
  1 31  1  1
  2 32  1  0
  2 33  1  0
  3 34  1  0
  3 35  1  0
  4 36  1  0
  4 37  1  0
  5 38  1  0
  7 39  1  0
 13 40  1  0
 13 41  1  0
 14 42  1  1
 16 43  1  1
 18 44  1  0
 22 45  1  0
 22 46  1  0
 24 47  1  0
 27 48  1  6
 28 49  1  0
 29 50  1  6
 30 51  1  0
M  END
$$$$
