@<TRIPOS>MOLECULE
*****
 43 45 0 0 0
SMALL
GASTEIGER

@<TRIPOS>ATOM
      1 C           4.0750    0.1283    0.7343 C.3     1  UNL1        0.0029
      2 N           3.7151    1.3852    0.1492 N.am    1  UNL1       -0.3064
      3 C           4.5656    2.5185    0.3612 C.3     1  UNL1        0.0029
      4 C           2.5541    1.5058   -0.6161 C.2     1  UNL1        0.2319
      5 O           2.2980    2.6643   -1.1119 O.2     1  UNL1       -0.2741
      6 C           1.5804    0.4208   -0.9153 C.3     1  UNL1        0.1054
      7 C           0.4015    0.7130   -1.7679 C.3     1  UNL1       -0.0220
      8 C           0.2448    0.3548   -0.3500 C.3     1  UNL1        0.0134
      9 C          -0.3236   -0.9535    0.0674 C.3     1  UNL1        0.0935
     10 C           0.3741   -1.3855    1.3578 C.3     1  UNL1       -0.0351
     11 C          -1.7784   -0.8551    0.3995 C.ar    1  UNL1        0.0158
     12 C          -2.4488    0.2999    0.1288 C.ar    1  UNL1       -0.0463
     13 C          -3.8100    0.4480    0.4187 C.ar    1  UNL1       -0.0214
     14 C          -4.5294    1.6749    0.1280 C.2     1  UNL1       -0.0131
     15 C          -4.3112    2.3739   -0.9671 C.2     1  UNL1        0.1611
     16 F          -3.4028    1.9851   -1.8824 F       1  UNL1       -0.1986
     17 I          -5.3816    4.1649   -1.3588 I       1  UNL1       -0.0100
     18 C          -4.4828   -0.5993    0.9903 C.ar    1  UNL1       -0.0518
     19 C          -3.7928   -1.7660    1.2605 C.ar    1  UNL1       -0.0255
     20 C          -2.4320   -1.9175    0.9717 C.ar    1  UNL1        0.1289
     21 F          -1.8309   -3.0958    1.2632 F       1  UNL1       -0.2051
     22 N          -0.1064   -2.0419   -0.8766 N.2     1  UNL1       -0.2521
     23 C           0.9871   -2.2956   -1.4765 C.2     1  UNL1        0.1485
     24 N           1.0765   -3.3780   -2.3682 N.pl3   1  UNL1       -0.3380
     25 S           2.3499   -1.2074   -1.1189 S.3     1  UNL1       -0.0746
     26 H           4.5539   -0.4775   -0.0871 H       1  UNL1        0.0428
     27 H           3.2542   -0.4681    1.1318 H       1  UNL1        0.0428
     28 H           4.9080    0.2620    1.4768 H       1  UNL1        0.0428
     29 H           4.9189    2.6170    1.4063 H       1  UNL1        0.0428
     30 H           5.4957    2.3407   -0.2482 H       1  UNL1        0.0428
     31 H           4.1398    3.4698   -0.0165 H       1  UNL1        0.0428
     32 H           0.2674    1.7736   -2.0901 H       1  UNL1        0.0287
     33 H           0.2143    0.0039   -2.5903 H       1  UNL1        0.0287
     34 H          -0.0672    1.2202    0.3120 H       1  UNL1        0.0346
     35 H          -0.3614   -1.6230    2.1706 H       1  UNL1        0.0256
     36 H           1.0002   -2.2737    1.2270 H       1  UNL1        0.0256
     37 H           0.9567   -0.5179    1.7638 H       1  UNL1        0.0256
     38 H          -1.9806    1.1636   -0.3192 H       1  UNL1        0.0628
     39 H          -5.2914    2.0592    0.8306 H       1  UNL1        0.0657
     40 H          -5.5512   -0.5099    1.2281 H       1  UNL1        0.0624
     41 H          -4.2983   -2.6077    1.7105 H       1  UNL1        0.0646
     42 H           0.7422   -4.3452   -2.1733 H       1  UNL1        0.1442
     43 H           1.5075   -3.2288   -3.3076 H       1  UNL1        0.1442
@<TRIPOS>BOND
     1     1     2    1
     2     2     3    1
     3     2     4   am
     4     4     5    2
     5     6     4    1
     6     6     7    1
     7     7     8    1
     8     8     9    1
     9     9    10    1
    10     9    11    1
    11    11    12   ar
    12    12    13   ar
    13    13    14    1
    14    14    15    2
    15    15    16    1
    16    15    17    1
    17    13    18   ar
    18    18    19   ar
    19    19    20   ar
    20    20    21    1
    21     9    22    1
    22    22    23    2
    23    23    24    1
    24    23    25    1
    25     8     6    1
    26    20    11   ar
    27    25     6    1
    28     1    26    1
    29     1    27    1
    30     1    28    1
    31     3    29    1
    32     3    30    1
    33     3    31    1
    34     7    32    1
    35     7    33    1
    36     8    34    1
    37    10    35    1
    38    10    36    1
    39    10    37    1
    40    12    38    1
    41    14    39    1
    42    18    40    1
    43    19    41    1
    44    24    42    1
    45    24    43    1
