
     RDKit          3D

 43 45  0  0  0  0  0  0  0  0999 V2000
    4.0750    0.1283    0.7343 C   0  0  0  0  0  0  0  0  0  0  0  0
    3.7151    1.3852    0.1492 N   0  0  0  0  0  0  0  0  0  0  0  0
    4.5656    2.5185    0.3612 C   0  0  0  0  0  0  0  0  0  0  0  0
    2.5541    1.5058   -0.6161 C   0  0  0  0  0  0  0  0  0  0  0  0
    2.2980    2.6643   -1.1119 O   0  0  0  0  0  0  0  0  0  0  0  0
    1.5804    0.4208   -0.9153 C   0  0  2  0  0  0  0  0  0  0  0  0
    0.4015    0.7130   -1.7679 C   0  0  0  0  0  0  0  0  0  0  0  0
    0.2448    0.3548   -0.3500 C   0  0  1  0  0  0  0  0  0  0  0  0
   -0.3236   -0.9535    0.0674 C   0  0  1  0  0  0  0  0  0  0  0  0
    0.3741   -1.3855    1.3578 C   0  0  0  0  0  0  0  0  0  0  0  0
   -1.7784   -0.8551    0.3995 C   0  0  0  0  0  0  0  0  0  0  0  0
   -2.4488    0.2999    0.1288 C   0  0  0  0  0  0  0  0  0  0  0  0
   -3.8100    0.4480    0.4187 C   0  0  0  0  0  0  0  0  0  0  0  0
   -4.5294    1.6749    0.1280 C   0  0  0  0  0  0  0  0  0  0  0  0
   -4.3112    2.3739   -0.9671 C   0  0  0  0  0  0  0  0  0  0  0  0
   -3.4028    1.9851   -1.8824 F   0  0  0  0  0  0  0  0  0  0  0  0
   -5.3816    4.1649   -1.3588 I   0  0  0  0  0  0  0  0  0  0  0  0
   -4.4828   -0.5993    0.9903 C   0  0  0  0  0  0  0  0  0  0  0  0
   -3.7928   -1.7660    1.2605 C   0  0  0  0  0  0  0  0  0  0  0  0
   -2.4320   -1.9175    0.9717 C   0  0  0  0  0  0  0  0  0  0  0  0
   -1.8309   -3.0958    1.2632 F   0  0  0  0  0  0  0  0  0  0  0  0
   -0.1064   -2.0419   -0.8766 N   0  0  0  0  0  0  0  0  0  0  0  0
    0.9871   -2.2956   -1.4765 C   0  0  0  0  0  0  0  0  0  0  0  0
    1.0765   -3.3780   -2.3682 N   0  0  0  0  0  0  0  0  0  0  0  0
    2.3499   -1.2074   -1.1189 S   0  0  0  0  0  0  0  0  0  0  0  0
    4.5539   -0.4775   -0.0871 H   0  0  0  0  0  0  0  0  0  0  0  0
    3.2542   -0.4681    1.1318 H   0  0  0  0  0  0  0  0  0  0  0  0
    4.9080    0.2620    1.4768 H   0  0  0  0  0  0  0  0  0  0  0  0
    4.9189    2.6170    1.4063 H   0  0  0  0  0  0  0  0  0  0  0  0
    5.4957    2.3407   -0.2482 H   0  0  0  0  0  0  0  0  0  0  0  0
    4.1398    3.4698   -0.0165 H   0  0  0  0  0  0  0  0  0  0  0  0
    0.2674    1.7736   -2.0901 H   0  0  0  0  0  0  0  0  0  0  0  0
    0.2143    0.0039   -2.5903 H   0  0  0  0  0  0  0  0  0  0  0  0
   -0.0672    1.2202    0.3120 H   0  0  0  0  0  0  0  0  0  0  0  0
   -0.3614   -1.6230    2.1706 H   0  0  0  0  0  0  0  0  0  0  0  0
    1.0002   -2.2737    1.2270 H   0  0  0  0  0  0  0  0  0  0  0  0
    0.9567   -0.5179    1.7638 H   0  0  0  0  0  0  0  0  0  0  0  0
   -1.9806    1.1636   -0.3192 H   0  0  0  0  0  0  0  0  0  0  0  0
   -5.2914    2.0592    0.8306 H   0  0  0  0  0  0  0  0  0  0  0  0
   -5.5512   -0.5099    1.2281 H   0  0  0  0  0  0  0  0  0  0  0  0
   -4.2983   -2.6077    1.7105 H   0  0  0  0  0  0  0  0  0  0  0  0
    0.7422   -4.3452   -2.1733 H   0  0  0  0  0  0  0  0  0  0  0  0
    1.5075   -3.2288   -3.3076 H   0  0  0  0  0  0  0  0  0  0  0  0
  1  2  1  0
  2  3  1  0
  2  4  1  0
  4  5  2  0
  6  4  1  1
  6  7  1  0
  7  8  1  0
  8  9  1  0
  9 10  1  1
  9 11  1  0
 11 12  2  0
 12 13  1  0
 13 14  1  0
 14 15  2  0
 15 16  1  0
 15 17  1  0
 13 18  2  0
 18 19  1  0
 19 20  2  0
 20 21  1  0
  9 22  1  0
 22 23  2  0
 23 24  1  0
 23 25  1  0
  8  6  1  0
 20 11  1  0
 25  6  1  0
  1 26  1  0
  1 27  1  0
  1 28  1  0
  3 29  1  0
  3 30  1  0
  3 31  1  0
  7 32  1  0
  7 33  1  0
  8 34  1  1
 10 35  1  0
 10 36  1  0
 10 37  1  0
 12 38  1  0
 14 39  1  0
 18 40  1  0
 19 41  1  0
 24 42  1  0
 24 43  1  0
M  END
$$$$
