
     RDKit          3D

 47 49  0  0  0  0  0  0  0  0999 V2000
    4.7020   -2.8798   -0.2123 C   0  0  0  0  0  0  0  0  0  0  0  0
    3.5794   -1.9486    0.0426 C   0  0  0  0  0  0  0  0  0  0  0  0
    2.4223   -2.3817    0.6732 C   0  0  0  0  0  0  0  0  0  0  0  0
    2.3602   -3.8077    1.0778 C   0  0  0  0  0  0  0  0  0  0  0  0
    1.4093   -1.4739    0.8851 C   0  0  0  0  0  0  0  0  0  0  0  0
    1.4428   -0.1579    0.5217 C   0  0  0  0  0  0  0  0  0  0  0  0
    0.3998    0.6907    0.7732 N   0  0  0  0  0  0  0  0  0  0  0  0
   -0.7822    0.2256    1.4080 C   0  0  0  0  0  0  0  0  0  0  0  0
   -1.8757   -0.2815    0.5150 C   0  0  2  0  0  0  0  0  0  0  0  0
   -1.4251   -1.3552   -0.2877 O   0  0  0  0  0  0  0  0  0  0  0  0
   -2.5331    0.7026   -0.3682 C   0  0  2  0  0  0  0  0  0  0  0  0
   -3.1035    1.8064    0.2574 O   0  0  0  0  0  0  0  0  0  0  0  0
   -3.5100    0.0710   -1.3234 C   0  0  2  0  0  0  0  0  0  0  0  0
   -3.8527    1.0314   -2.3234 O   0  0  0  0  0  0  0  0  0  0  0  0
   -4.8308   -0.3016   -0.7061 C   0  0  0  0  0  0  0  0  0  0  0  0
   -4.7007   -1.2560    0.2908 O   0  0  0  0  0  0  0  0  0  0  0  0
    0.6649    1.9334    0.3407 C   0  0  0  0  0  0  0  0  0  0  0  0
   -0.2562    2.8852    0.5250 N   0  0  0  0  0  0  0  0  0  0  0  0
   -0.0386    4.1455    0.1187 C   0  0  0  0  0  0  0  0  0  0  0  0
   -0.9988    4.9530    0.3558 O   0  0  0  0  0  0  0  0  0  0  0  0
    1.0792    4.6108   -0.5006 N   0  0  0  0  0  0  0  0  0  0  0  0
    2.0229    3.6966   -0.7038 C   0  0  0  0  0  0  0  0  0  0  0  0
    3.0863    4.0686   -1.2757 O   0  0  0  0  0  0  0  0  0  0  0  0
    1.8755    2.3990   -0.3199 C   0  0  0  0  0  0  0  0  0  0  0  0
    2.8575    1.5044   -0.5346 N   0  0  0  0  0  0  0  0  0  0  0  0
    2.6226    0.2374   -0.1082 C   0  0  0  0  0  0  0  0  0  0  0  0
    3.6609   -0.6279   -0.3426 C   0  0  0  0  0  0  0  0  0  0  0  0
    5.6540   -2.3230    0.0309 H   0  0  0  0  0  0  0  0  0  0  0  0
    4.8073   -3.1643   -1.2778 H   0  0  0  0  0  0  0  0  0  0  0  0
    4.6931   -3.7305    0.4805 H   0  0  0  0  0  0  0  0  0  0  0  0
    2.7921   -4.4605    0.2888 H   0  0  0  0  0  0  0  0  0  0  0  0
    1.3325   -4.1311    1.3273 H   0  0  0  0  0  0  0  0  0  0  0  0
    3.0050   -3.9155    1.9702 H   0  0  0  0  0  0  0  0  0  0  0  0
    0.5763   -1.9005    1.3838 H   0  0  0  0  0  0  0  0  0  0  0  0
   -0.6205   -0.5237    2.2235 H   0  0  0  0  0  0  0  0  0  0  0  0
   -1.2437    1.0997    1.9714 H   0  0  0  0  0  0  0  0  0  0  0  0
   -2.6703   -0.7430    1.1793 H   0  0  0  0  0  0  0  0  0  0  0  0
   -1.0797   -1.0322   -1.1537 H   0  0  0  0  0  0  0  0  0  0  0  0
   -1.7027    1.0935   -1.0528 H   0  0  0  0  0  0  0  0  0  0  0  0
   -3.2898    1.6824    1.2079 H   0  0  0  0  0  0  0  0  0  0  0  0
   -3.0576   -0.7961   -1.8253 H   0  0  0  0  0  0  0  0  0  0  0  0
   -4.6601    0.7178   -2.8019 H   0  0  0  0  0  0  0  0  0  0  0  0
   -5.5350   -0.7292   -1.4469 H   0  0  0  0  0  0  0  0  0  0  0  0
   -5.3534    0.5684   -0.2619 H   0  0  0  0  0  0  0  0  0  0  0  0
   -5.6217   -1.4968    0.5746 H   0  0  0  0  0  0  0  0  0  0  0  0
    1.1229    5.6288   -0.7694 H   0  0  0  0  0  0  0  0  0  0  0  0
    4.5733   -0.3338   -0.8270 H   0  0  0  0  0  0  0  0  0  0  0  0
  1  2  1  0
  2  3  2  0
  3  4  1  0
  3  5  1  0
  5  6  2  0
  6  7  1  0
  7  8  1  0
  8  9  1  0
  9 10  1  0
  9 11  1  0
 11 12  1  0
 11 13  1  0
 13 14  1  0
 13 15  1  0
 15 16  1  0
  7 17  1  0
 17 18  2  0
 18 19  1  0
 19 20  2  0
 19 21  1  0
 21 22  1  0
 22 23  2  0
 22 24  1  0
 24 25  2  0
 25 26  1  0
 26 27  2  0
 27  2  1  0
 26  6  1  0
 24 17  1  0
  1 28  1  0
  1 29  1  0
  1 30  1  0
  4 31  1  0
  4 32  1  0
  4 33  1  0
  5 34  1  0
  8 35  1  0
  8 36  1  0
  9 37  1  1
 10 38  1  0
 11 39  1  6
 12 40  1  0
 13 41  1  6
 14 42  1  0
 15 43  1  0
 15 44  1  0
 16 45  1  0
 21 46  1  0
 27 47  1  0
M  END
$$$$
