@<TRIPOS>MOLECULE
*****
 35 36 0 0 0
SMALL
GASTEIGER

@<TRIPOS>ATOM
      1 C           2.1118   -1.7369    0.6517 C.3     1  UNL1       -0.0556
      2 C           2.2471   -0.3846   -0.0104 C.3     1  UNL1        0.0166
      3 C           3.3443   -0.4773   -1.0481 C.3     1  UNL1       -0.0556
      4 C           0.9819    0.0935   -0.6251 C.2     1  UNL1        0.1695
      5 O           0.9775    0.3357   -1.8814 O.2     1  UNL1       -0.2916
      6 C          -0.3496    0.3887   -0.1819 C.ar    1  UNL1        0.0662
      7 C          -0.6646    1.6754    0.2628 C.ar    1  UNL1        0.0776
      8 C           0.0339    2.8591    0.4071 C.ar    1  UNL1       -0.0355
      9 C          -0.5379    4.0180    0.8849 C.ar    1  UNL1       -0.0583
     10 C          -1.8693    4.0316    1.2456 C.ar    1  UNL1       -0.0435
     11 C          -2.5595    2.8465    1.0988 C.ar    1  UNL1        0.0298
     12 N          -1.9597    1.7392    0.6279 N.ar    1  UNL1       -0.2389
     13 N          -2.4583    0.5324    0.4235 N.ar    1  UNL1       -0.1704
     14 C          -1.5345   -0.3027   -0.0581 C.ar    1  UNL1        0.0770
     15 C          -1.6446   -1.7383   -0.4381 C.3     1  UNL1       -0.0018
     16 C          -1.3401   -2.6660    0.6871 C.3     1  UNL1       -0.0571
     17 C          -0.8664   -2.0756   -1.6849 C.3     1  UNL1       -0.0571
     18 H           2.0423   -2.5714   -0.0483 H       1  UNL1        0.0236
     19 H           3.0739   -1.8646    1.2324 H       1  UNL1        0.0236
     20 H           1.2916   -1.7016    1.4041 H       1  UNL1        0.0236
     21 H           2.6086    0.3065    0.7828 H       1  UNL1        0.0375
     22 H           4.3417   -0.2331   -0.6409 H       1  UNL1        0.0236
     23 H           3.3130   -1.4997   -1.4785 H       1  UNL1        0.0236
     24 H           3.0666    0.2465   -1.8462 H       1  UNL1        0.0236
     25 H           1.0907    2.8790    0.1293 H       1  UNL1        0.0639
     26 H           0.0686    4.9151    0.9736 H       1  UNL1        0.0619
     27 H          -2.3378    4.9253    1.6215 H       1  UNL1        0.0633
     28 H          -3.6187    2.8115    1.3730 H       1  UNL1        0.0830
     29 H          -2.7251   -1.9132   -0.7292 H       1  UNL1        0.0359
     30 H          -2.1125   -3.4582    0.7343 H       1  UNL1        0.0236
     31 H          -1.4095   -2.1063    1.6391 H       1  UNL1        0.0236
     32 H          -0.3789   -3.2078    0.5694 H       1  UNL1        0.0236
     33 H          -1.3046   -3.0448   -2.0649 H       1  UNL1        0.0236
     34 H           0.1942   -2.2770   -1.5369 H       1  UNL1        0.0236
     35 H          -1.1159   -1.3451   -2.4762 H       1  UNL1        0.0236
@<TRIPOS>BOND
     1     1     2    1
     2     2     3    1
     3     2     4    1
     4     4     5    2
     5     4     6    1
     6     6     7   ar
     7     7     8   ar
     8     8     9   ar
     9     9    10   ar
    10    10    11   ar
    11    11    12   ar
    12    12    13   ar
    13    13    14   ar
    14    14    15    1
    15    15    16    1
    16    15    17    1
    17    14     6   ar
    18    12     7   ar
    19     1    18    1
    20     1    19    1
    21     1    20    1
    22     2    21    1
    23     3    22    1
    24     3    23    1
    25     3    24    1
    26     8    25    1
    27     9    26    1
    28    10    27    1
    29    11    28    1
    30    15    29    1
    31    16    30    1
    32    16    31    1
    33    16    32    1
    34    17    33    1
    35    17    34    1
    36    17    35    1
