@<TRIPOS>MOLECULE
*****
 16 15 0 0 0
SMALL
GASTEIGER

@<TRIPOS>ATOM
      1 C          -2.6349   -0.3250   -0.1969 C.3     1  UNL1       -0.0416
      2 C          -1.3198    0.3767   -0.1284 C.3     1  UNL1        0.0449
      3 O          -0.2441   -0.4901    0.0259 O.3     1  UNL1       -0.3778
      4 C           0.9460    0.2187    0.0828 C.3     1  UNL1        0.0707
      5 C           2.1547   -0.6654    0.2500 C.3     1  UNL1        0.0676
      6 O           3.3374    0.0671    0.3047 O.3     1  UNL1       -0.3927
      7 H          -2.8585   -0.8279   -1.1516 H       1  UNL1        0.0252
      8 H          -2.8223   -1.0121    0.6420 H       1  UNL1        0.0252
      9 H          -3.4221    0.4760   -0.0957 H       1  UNL1        0.0252
     10 H          -1.3854    1.1251    0.6960 H       1  UNL1        0.0557
     11 H          -1.1677    0.9411   -1.0627 H       1  UNL1        0.0557
     12 H           0.9719    0.9582    0.9245 H       1  UNL1        0.0583
     13 H           1.0394    0.7504   -0.9028 H       1  UNL1        0.0583
     14 H           2.0240   -1.3175    1.1309 H       1  UNL1        0.0580
     15 H           2.2302   -1.3130   -0.6418 H       1  UNL1        0.0580
     16 H           3.1511    1.0376    0.2772 H       1  UNL1        0.2095
@<TRIPOS>BOND
     1     1     2    1
     2     2     3    1
     3     3     4    1
     4     4     5    1
     5     5     6    1
     6     1     7    1
     7     1     8    1
     8     1     9    1
     9     2    10    1
    10     2    11    1
    11     4    12    1
    12     4    13    1
    13     5    14    1
    14     5    15    1
    15     6    16    1
