
     RDKit          3D

 41 44  0  0  0  0  0  0  0  0999 V2000
   -0.0474   -2.7651    4.3478 N   0  0  0  0  0  0  0  0  0  0  0  0
    0.2654   -3.0300    3.2653 C   0  0  0  0  0  0  0  0  0  0  0  0
    0.6765   -3.3521    1.9091 C   0  0  0  0  0  0  0  0  0  0  0  0
    0.9137   -4.6008    1.3780 C   0  0  0  0  0  0  0  0  0  0  0  0
    1.2731   -4.4426    0.0919 N   0  0  0  0  0  0  0  0  0  0  0  0
    1.2748   -3.1386   -0.2203 C   0  0  0  0  0  0  0  0  0  0  0  0
    1.5698   -2.4812   -1.3995 C   0  0  0  0  0  0  0  0  0  0  0  0
    1.4922   -1.1072   -1.4532 C   0  0  0  0  0  0  0  0  0  0  0  0
    1.1101   -0.4540   -0.2798 C   0  0  0  0  0  0  0  0  0  0  0  0
    1.0273    0.9861   -0.3281 C   0  0  0  0  0  0  0  0  0  0  0  0
   -0.1253    1.7221   -0.1570 C   0  0  0  0  0  0  0  0  0  0  0  0
   -1.4915    1.2867    0.1066 C   0  0  0  0  0  0  0  0  0  0  0  0
   -1.7981    0.6590    1.2939 C   0  0  0  0  0  0  0  0  0  0  0  0
   -3.0952    0.2317    1.5663 C   0  0  0  0  0  0  0  0  0  0  0  0
   -4.1065    0.4276    0.6514 C   0  0  0  0  0  0  0  0  0  0  0  0
   -3.8126    1.0549   -0.5410 C   0  0  0  0  0  0  0  0  0  0  0  0
   -4.9031    1.2668   -1.5301 C   0  0  0  0  0  0  0  0  0  0  0  0
   -4.7083    0.5049   -2.6735 F   0  0  0  0  0  0  0  0  0  0  0  0
   -6.1378    0.9756   -0.9965 F   0  0  0  0  0  0  0  0  0  0  0  0
   -4.9277    2.6134   -1.8681 F   0  0  0  0  0  0  0  0  0  0  0  0
   -2.5245    1.4718   -0.7960 C   0  0  0  0  0  0  0  0  0  0  0  0
    0.1775    3.0499   -0.2703 N   0  0  0  0  0  0  0  0  0  0  0  0
    1.4745    3.1233   -0.5033 C   0  0  0  0  0  0  0  0  0  0  0  0
    2.0058    1.8892   -0.5420 N   0  0  0  0  0  0  0  0  0  0  0  0
    3.3820    1.5542   -0.7699 C   0  0  0  0  0  0  0  0  0  0  0  0
    4.1117    1.5028    0.5806 C   0  0  0  0  0  0  0  0  0  0  0  0
    5.4264    1.1871    0.4140 F   0  0  0  0  0  0  0  0  0  0  0  0
    4.0333    2.7097    1.2345 F   0  0  0  0  0  0  0  0  0  0  0  0
    0.8416   -1.1768    0.8234 N   0  0  0  0  0  0  0  0  0  0  0  0
    0.9090   -2.4861    0.8973 N   0  0  0  0  0  0  0  0  0  0  0  0
    0.8311   -5.5544    1.8892 H   0  0  0  0  0  0  0  0  0  0  0  0
    1.8645   -2.9988   -2.3008 H   0  0  0  0  0  0  0  0  0  0  0  0
    1.7106   -0.5327   -2.3475 H   0  0  0  0  0  0  0  0  0  0  0  0
   -1.0388    0.4883    2.0350 H   0  0  0  0  0  0  0  0  0  0  0  0
   -3.3535   -0.2622    2.4915 H   0  0  0  0  0  0  0  0  0  0  0  0
   -5.1318    0.0966    0.8527 H   0  0  0  0  0  0  0  0  0  0  0  0
   -2.2712    1.9683   -1.7295 H   0  0  0  0  0  0  0  0  0  0  0  0
    2.0481    4.0206   -0.6452 H   0  0  0  0  0  0  0  0  0  0  0  0
    3.5301    0.5461   -1.2155 H   0  0  0  0  0  0  0  0  0  0  0  0
    3.9273    2.3371   -1.3578 H   0  0  0  0  0  0  0  0  0  0  0  0
    3.5969    0.7089    1.1689 H   0  0  0  0  0  0  0  0  0  0  0  0
  1  2  3  0
  2  3  1  0
  3  4  2  0
  4  5  1  0
  5  6  2  0
  6  7  1  0
  7  8  2  0
  8  9  1  0
  9 10  1  0
 10 11  2  0
 11 12  1  0
 12 13  2  0
 13 14  1  0
 14 15  2  0
 15 16  1  0
 16 17  1  0
 17 18  1  0
 17 19  1  0
 17 20  1  0
 16 21  2  0
 11 22  1  0
 22 23  2  0
 23 24  1  0
 24 25  1  0
 25 26  1  0
 26 27  1  0
 26 28  1  0
  9 29  2  0
 29 30  1  0
 30  3  1  0
 30  6  1  0
 24 10  1  0
 21 12  1  0
  4 31  1  0
  7 32  1  0
  8 33  1  0
 13 34  1  0
 14 35  1  0
 15 36  1  0
 21 37  1  0
 23 38  1  0
 25 39  1  0
 25 40  1  0
 26 41  1  0
M  END
$$$$
