@<TRIPOS>MOLECULE
*****
 41 44 0 0 0
SMALL
GASTEIGER

@<TRIPOS>ATOM
      1 N          -0.0474   -2.7651    4.3478 N.1     1  UNL1       -0.1892
      2 C           0.2654   -3.0300    3.2653 C.1     1  UNL1        0.1208
      3 C           0.6765   -3.3521    1.9091 C.ar    1  UNL1        0.1618
      4 C           0.9137   -4.6008    1.3780 C.ar    1  UNL1        0.0659
      5 N           1.2731   -4.4426    0.0919 N.ar    1  UNL1       -0.2333
      6 C           1.2748   -3.1386   -0.2203 C.ar    1  UNL1        0.1555
      7 C           1.5698   -2.4812   -1.3995 C.ar    1  UNL1       -0.0153
      8 C           1.4922   -1.1072   -1.4532 C.ar    1  UNL1       -0.0290
      9 C           1.1101   -0.4540   -0.2798 C.ar    1  UNL1        0.1103
     10 C           1.0273    0.9861   -0.3281 C.ar    1  UNL1        0.0968
     11 C          -0.1253    1.7221   -0.1570 C.ar    1  UNL1        0.0982
     12 C          -1.4915    1.2867    0.1066 C.ar    1  UNL1        0.0030
     13 C          -1.7981    0.6590    1.2939 C.ar    1  UNL1       -0.0525
     14 C          -3.0952    0.2317    1.5663 C.ar    1  UNL1       -0.0606
     15 C          -4.1065    0.4276    0.6514 C.ar    1  UNL1       -0.0501
     16 C          -3.8126    1.0549   -0.5410 C.ar    1  UNL1        0.0554
     17 C          -4.9031    1.2668   -1.5301 C.3     1  UNL1        0.4174
     18 F          -4.7083    0.5049   -2.6735 F       1  UNL1       -0.1659
     19 F          -6.1378    0.9756   -0.9965 F       1  UNL1       -0.1659
     20 F          -4.9277    2.6134   -1.8681 F       1  UNL1       -0.1659
     21 C          -2.5245    1.4718   -0.7960 C.ar    1  UNL1       -0.0409
     22 N           0.1775    3.0499   -0.2703 N.ar    1  UNL1       -0.2351
     23 C           1.4745    3.1233   -0.5033 C.ar    1  UNL1        0.0973
     24 N           2.0058    1.8892   -0.5420 N.ar    1  UNL1       -0.3229
     25 C           3.3820    1.5542   -0.7699 C.3     1  UNL1        0.0852
     26 C           4.1117    1.5028    0.5806 C.3     1  UNL1        0.2569
     27 F           5.4264    1.1871    0.4140 F       1  UNL1       -0.2073
     28 F           4.0333    2.7097    1.2345 F       1  UNL1       -0.2073
     29 N           0.8416   -1.1768    0.8234 N.ar    1  UNL1       -0.1623
     30 N           0.9090   -2.4861    0.8973 N.ar    1  UNL1       -0.2023
     31 H           0.8311   -5.5544    1.8892 H       1  UNL1        0.0859
     32 H           1.8645   -2.9988   -2.3008 H       1  UNL1        0.0655
     33 H           1.7106   -0.5327   -2.3475 H       1  UNL1        0.0641
     34 H          -1.0388    0.4883    2.0350 H       1  UNL1        0.0624
     35 H          -3.3535   -0.2622    2.4915 H       1  UNL1        0.0618
     36 H          -5.1318    0.0966    0.8527 H       1  UNL1        0.0623
     37 H          -2.2712    1.9683   -1.7295 H       1  UNL1        0.0630
     38 H           2.0481    4.0206   -0.6452 H       1  UNL1        0.1029
     39 H           3.5301    0.5461   -1.2155 H       1  UNL1        0.0548
     40 H           3.9273    2.3371   -1.3578 H       1  UNL1        0.0548
     41 H           3.5969    0.7089    1.1689 H       1  UNL1        0.1037
@<TRIPOS>BOND
     1     1     2    3
     2     2     3    1
     3     3     4   ar
     4     4     5   ar
     5     5     6   ar
     6     6     7   ar
     7     7     8   ar
     8     8     9   ar
     9     9    10    1
    10    10    11   ar
    11    11    12    1
    12    12    13   ar
    13    13    14   ar
    14    14    15   ar
    15    15    16   ar
    16    16    17    1
    17    17    18    1
    18    17    19    1
    19    17    20    1
    20    16    21   ar
    21    11    22   ar
    22    22    23   ar
    23    23    24   ar
    24    24    25    1
    25    25    26    1
    26    26    27    1
    27    26    28    1
    28     9    29   ar
    29    29    30   ar
    30    30     3   ar
    31    30     6   ar
    32    24    10   ar
    33    21    12   ar
    34     4    31    1
    35     7    32    1
    36     8    33    1
    37    13    34    1
    38    14    35    1
    39    15    36    1
    40    21    37    1
    41    23    38    1
    42    25    39    1
    43    25    40    1
    44    26    41    1
