@<TRIPOS>MOLECULE
*****
 61 66 0 0 0
SMALL
GASTEIGER

@<TRIPOS>ATOM
      1 C          -8.5771   -1.4856    1.0657 C.3     1  UNL1        0.0003
      2 N          -7.6658   -2.1747    0.1798 N.pl3   1  UNL1       -0.3165
      3 C          -6.5344   -1.4570   -0.3129 C.ar    1  UNL1        0.2154
      4 N          -5.6356   -2.0412   -1.1216 N.ar    1  UNL1       -0.2229
      5 C          -4.5613   -1.4004   -1.5944 C.ar    1  UNL1        0.0332
      6 C          -4.3270   -0.0622   -1.2565 C.ar    1  UNL1       -0.0172
      7 C          -5.2334    0.5435   -0.4333 C.ar    1  UNL1        0.0811
      8 C          -5.1486    1.9493   -0.0609 C.ar    1  UNL1        0.0624
      9 C          -6.3893    2.6050   -0.0255 C.ar    1  UNL1       -0.0460
     10 C          -6.4834    3.9035    0.3587 C.ar    1  UNL1       -0.0427
     11 C          -5.3327    4.5651    0.7145 C.ar    1  UNL1        0.0314
     12 N          -4.1709    3.9469    0.6816 N.ar    1  UNL1       -0.2204
     13 C          -4.0030    2.6176    0.2990 C.ar    1  UNL1        0.2297
     14 O          -2.7995    2.1591    0.3305 O.3     1  UNL1       -0.4374
     15 C          -1.8186    1.3160    0.1973 C.ar    1  UNL1        0.1305
     16 C          -1.6989    0.2819    1.1435 C.ar    1  UNL1       -0.0175
     17 C          -0.7040   -0.6511    1.0925 C.ar    1  UNL1       -0.0370
     18 C           0.2334   -0.6005    0.0862 C.ar    1  UNL1        0.0326
     19 N           1.2367   -1.6024    0.0514 N.pl3   1  UNL1       -0.2975
     20 C           2.5681   -1.2151   -0.2354 C.ar    1  UNL1        0.1532
     21 N           2.9544   -0.7148   -1.4119 N.ar    1  UNL1       -0.1328
     22 N           4.1897   -0.3627   -1.6731 N.ar    1  UNL1       -0.1468
     23 C           5.1943   -0.4741   -0.7692 C.ar    1  UNL1        0.1011
     24 C           6.5508   -0.0764   -1.1091 C.ar    1  UNL1        0.0029
     25 C           7.3260    0.7886   -0.3760 C.ar    1  UNL1       -0.0498
     26 C           8.6162    1.0964   -0.7542 C.ar    1  UNL1       -0.0258
     27 C           9.1843    0.5521   -1.8852 C.ar    1  UNL1        0.1234
     28 F          10.4439    0.8254   -2.2944 F       1  UNL1       -0.2055
     29 C           8.4293   -0.3153   -2.6370 C.ar    1  UNL1       -0.0258
     30 C           7.1453   -0.6216   -2.2579 C.ar    1  UNL1       -0.0498
     31 C           4.8601   -0.9847    0.4587 C.ar    1  UNL1        0.0132
     32 C           5.8233   -1.1657    1.4464 C.ar    1  UNL1       -0.0518
     33 C           5.4946   -1.7029    2.6839 C.ar    1  UNL1       -0.0611
     34 C           4.1903   -2.0610    2.9309 C.ar    1  UNL1       -0.0611
     35 C           3.2261   -1.8875    1.9584 C.ar    1  UNL1       -0.0506
     36 C           3.5672   -1.3547    0.7377 C.ar    1  UNL1        0.0260
     37 C           0.1359    0.4023   -0.8492 C.ar    1  UNL1       -0.0370
     38 C          -0.8540    1.3389   -0.8085 C.ar    1  UNL1       -0.0175
     39 N          -6.3107   -0.1828    0.0089 N.ar    1  UNL1       -0.2143
     40 H          -9.5662   -2.0204    1.0991 H       1  UNL1        0.0426
     41 H          -8.1145   -1.5043    2.0897 H       1  UNL1        0.0426
     42 H          -8.6783   -0.4369    0.7149 H       1  UNL1        0.0426
     43 H          -7.8403   -3.1687   -0.0845 H       1  UNL1        0.1486
     44 H          -3.8395   -1.8825   -2.2474 H       1  UNL1        0.0831
     45 H          -3.4719    0.4494   -1.6813 H       1  UNL1        0.0654
     46 H          -7.3060    2.0631   -0.3144 H       1  UNL1        0.0626
     47 H          -7.4600    4.3742    0.3734 H       1  UNL1        0.0633
     48 H          -5.4276    5.5970    1.0154 H       1  UNL1        0.0831
     49 H          -2.4473    0.2360    1.9540 H       1  UNL1        0.0655
     50 H          -0.6302   -1.4463    1.8380 H       1  UNL1        0.0637
     51 H           0.9912   -2.6114    0.2347 H       1  UNL1        0.1536
     52 H           6.8779    1.2444    0.5185 H       1  UNL1        0.0625
     53 H           9.2000    1.7716   -0.1654 H       1  UNL1        0.0646
     54 H           8.8108   -0.7871   -3.5443 H       1  UNL1        0.0646
     55 H           6.5298   -1.3082   -2.8434 H       1  UNL1        0.0625
     56 H           6.8618   -0.9184    1.2974 H       1  UNL1        0.0624
     57 H           6.2616   -1.8330    3.4315 H       1  UNL1        0.0618
     58 H           3.9506   -2.4812    3.9035 H       1  UNL1        0.0618
     59 H           2.1887   -2.1612    2.1269 H       1  UNL1        0.0625
     60 H           0.9085    0.4017   -1.6382 H       1  UNL1        0.0637
     61 H          -0.9208    2.1248   -1.5514 H       1  UNL1        0.0655
@<TRIPOS>BOND
     1     1     2    1
     2     2     3    1
     3     3     4   ar
     4     4     5   ar
     5     5     6   ar
     6     6     7   ar
     7     7     8    1
     8     8     9   ar
     9     9    10   ar
    10    10    11   ar
    11    11    12   ar
    12    12    13   ar
    13    13    14    1
    14    14    15    1
    15    15    16   ar
    16    16    17   ar
    17    17    18   ar
    18    18    19    1
    19    19    20    1
    20    20    21   ar
    21    21    22   ar
    22    22    23   ar
    23    23    24    1
    24    24    25   ar
    25    25    26   ar
    26    26    27   ar
    27    27    28    1
    28    27    29   ar
    29    29    30   ar
    30    23    31   ar
    31    31    32   ar
    32    32    33   ar
    33    33    34   ar
    34    34    35   ar
    35    35    36   ar
    36    18    37   ar
    37    37    38   ar
    38     7    39   ar
    39    39     3   ar
    40    13     8   ar
    41    38    15   ar
    42    36    20   ar
    43    30    24   ar
    44    36    31   ar
    45     1    40    1
    46     1    41    1
    47     1    42    1
    48     2    43    1
    49     5    44    1
    50     6    45    1
    51     9    46    1
    52    10    47    1
    53    11    48    1
    54    16    49    1
    55    17    50    1
    56    19    51    1
    57    25    52    1
    58    26    53    1
    59    29    54    1
    60    30    55    1
    61    32    56    1
    62    33    57    1
    63    34    58    1
    64    35    59    1
    65    37    60    1
    66    38    61    1
