
     RDKit          3D

 61 66  0  0  0  0  0  0  0  0999 V2000
   -8.5771   -1.4856    1.0657 C   0  0  0  0  0  0  0  0  0  0  0  0
   -7.6658   -2.1747    0.1798 N   0  0  0  0  0  0  0  0  0  0  0  0
   -6.5344   -1.4570   -0.3129 C   0  0  0  0  0  0  0  0  0  0  0  0
   -5.6356   -2.0412   -1.1216 N   0  0  0  0  0  0  0  0  0  0  0  0
   -4.5613   -1.4004   -1.5944 C   0  0  0  0  0  0  0  0  0  0  0  0
   -4.3270   -0.0622   -1.2565 C   0  0  0  0  0  0  0  0  0  0  0  0
   -5.2334    0.5435   -0.4333 C   0  0  0  0  0  0  0  0  0  0  0  0
   -5.1486    1.9493   -0.0609 C   0  0  0  0  0  0  0  0  0  0  0  0
   -6.3893    2.6050   -0.0255 C   0  0  0  0  0  0  0  0  0  0  0  0
   -6.4834    3.9035    0.3587 C   0  0  0  0  0  0  0  0  0  0  0  0
   -5.3327    4.5651    0.7145 C   0  0  0  0  0  0  0  0  0  0  0  0
   -4.1709    3.9469    0.6816 N   0  0  0  0  0  0  0  0  0  0  0  0
   -4.0030    2.6176    0.2990 C   0  0  0  0  0  0  0  0  0  0  0  0
   -2.7995    2.1591    0.3305 O   0  0  0  0  0  0  0  0  0  0  0  0
   -1.8186    1.3160    0.1973 C   0  0  0  0  0  0  0  0  0  0  0  0
   -1.6989    0.2819    1.1435 C   0  0  0  0  0  0  0  0  0  0  0  0
   -0.7040   -0.6511    1.0925 C   0  0  0  0  0  0  0  0  0  0  0  0
    0.2334   -0.6005    0.0862 C   0  0  0  0  0  0  0  0  0  0  0  0
    1.2367   -1.6024    0.0514 N   0  0  0  0  0  0  0  0  0  0  0  0
    2.5681   -1.2151   -0.2354 C   0  0  0  0  0  0  0  0  0  0  0  0
    2.9544   -0.7148   -1.4119 N   0  0  0  0  0  0  0  0  0  0  0  0
    4.1897   -0.3627   -1.6731 N   0  0  0  0  0  0  0  0  0  0  0  0
    5.1943   -0.4741   -0.7692 C   0  0  0  0  0  0  0  0  0  0  0  0
    6.5508   -0.0764   -1.1091 C   0  0  0  0  0  0  0  0  0  0  0  0
    7.3260    0.7886   -0.3760 C   0  0  0  0  0  0  0  0  0  0  0  0
    8.6162    1.0964   -0.7542 C   0  0  0  0  0  0  0  0  0  0  0  0
    9.1843    0.5521   -1.8852 C   0  0  0  0  0  0  0  0  0  0  0  0
   10.4439    0.8254   -2.2944 F   0  0  0  0  0  0  0  0  0  0  0  0
    8.4293   -0.3153   -2.6370 C   0  0  0  0  0  0  0  0  0  0  0  0
    7.1453   -0.6216   -2.2579 C   0  0  0  0  0  0  0  0  0  0  0  0
    4.8601   -0.9847    0.4587 C   0  0  0  0  0  0  0  0  0  0  0  0
    5.8233   -1.1657    1.4464 C   0  0  0  0  0  0  0  0  0  0  0  0
    5.4946   -1.7029    2.6839 C   0  0  0  0  0  0  0  0  0  0  0  0
    4.1903   -2.0610    2.9309 C   0  0  0  0  0  0  0  0  0  0  0  0
    3.2261   -1.8875    1.9584 C   0  0  0  0  0  0  0  0  0  0  0  0
    3.5672   -1.3547    0.7377 C   0  0  0  0  0  0  0  0  0  0  0  0
    0.1359    0.4023   -0.8492 C   0  0  0  0  0  0  0  0  0  0  0  0
   -0.8540    1.3389   -0.8085 C   0  0  0  0  0  0  0  0  0  0  0  0
   -6.3107   -0.1828    0.0089 N   0  0  0  0  0  0  0  0  0  0  0  0
   -9.5662   -2.0204    1.0991 H   0  0  0  0  0  0  0  0  0  0  0  0
   -8.1145   -1.5043    2.0897 H   0  0  0  0  0  0  0  0  0  0  0  0
   -8.6783   -0.4369    0.7149 H   0  0  0  0  0  0  0  0  0  0  0  0
   -7.8403   -3.1687   -0.0845 H   0  0  0  0  0  0  0  0  0  0  0  0
   -3.8395   -1.8825   -2.2474 H   0  0  0  0  0  0  0  0  0  0  0  0
   -3.4719    0.4494   -1.6813 H   0  0  0  0  0  0  0  0  0  0  0  0
   -7.3060    2.0631   -0.3144 H   0  0  0  0  0  0  0  0  0  0  0  0
   -7.4600    4.3742    0.3734 H   0  0  0  0  0  0  0  0  0  0  0  0
   -5.4276    5.5970    1.0154 H   0  0  0  0  0  0  0  0  0  0  0  0
   -2.4473    0.2360    1.9540 H   0  0  0  0  0  0  0  0  0  0  0  0
   -0.6302   -1.4463    1.8380 H   0  0  0  0  0  0  0  0  0  0  0  0
    0.9912   -2.6114    0.2347 H   0  0  0  0  0  0  0  0  0  0  0  0
    6.8779    1.2444    0.5185 H   0  0  0  0  0  0  0  0  0  0  0  0
    9.2000    1.7716   -0.1654 H   0  0  0  0  0  0  0  0  0  0  0  0
    8.8108   -0.7871   -3.5443 H   0  0  0  0  0  0  0  0  0  0  0  0
    6.5298   -1.3082   -2.8434 H   0  0  0  0  0  0  0  0  0  0  0  0
    6.8618   -0.9184    1.2974 H   0  0  0  0  0  0  0  0  0  0  0  0
    6.2616   -1.8330    3.4315 H   0  0  0  0  0  0  0  0  0  0  0  0
    3.9506   -2.4812    3.9035 H   0  0  0  0  0  0  0  0  0  0  0  0
    2.1887   -2.1612    2.1269 H   0  0  0  0  0  0  0  0  0  0  0  0
    0.9085    0.4017   -1.6382 H   0  0  0  0  0  0  0  0  0  0  0  0
   -0.9208    2.1248   -1.5514 H   0  0  0  0  0  0  0  0  0  0  0  0
  1  2  1  0
  2  3  1  0
  3  4  2  0
  4  5  1  0
  5  6  2  0
  6  7  1  0
  7  8  1  0
  8  9  2  0
  9 10  1  0
 10 11  2  0
 11 12  1  0
 12 13  2  0
 13 14  1  0
 14 15  1  0
 15 16  2  0
 16 17  1  0
 17 18  2  0
 18 19  1  0
 19 20  1  0
 20 21  2  0
 21 22  1  0
 22 23  2  0
 23 24  1  0
 24 25  2  0
 25 26  1  0
 26 27  2  0
 27 28  1  0
 27 29  1  0
 29 30  2  0
 23 31  1  0
 31 32  2  0
 32 33  1  0
 33 34  2  0
 34 35  1  0
 35 36  2  0
 18 37  1  0
 37 38  2  0
  7 39  2  0
 39  3  1  0
 13  8  1  0
 38 15  1  0
 36 20  1  0
 30 24  1  0
 36 31  1  0
  1 40  1  0
  1 41  1  0
  1 42  1  0
  2 43  1  0
  5 44  1  0
  6 45  1  0
  9 46  1  0
 10 47  1  0
 11 48  1  0
 16 49  1  0
 17 50  1  0
 19 51  1  0
 25 52  1  0
 26 53  1  0
 29 54  1  0
 30 55  1  0
 32 56  1  0
 33 57  1  0
 34 58  1  0
 35 59  1  0
 37 60  1  0
 38 61  1  0
M  END
$$$$
