@<TRIPOS>MOLECULE
*****
 40 43 0 0 0
SMALL
GASTEIGER

@<TRIPOS>ATOM
      1 C          -1.0674   -3.3890    0.8128 C.3     1  UNL1       -0.0393
      2 C          -0.5682   -2.5496   -0.3237 C.3     1  UNL1        0.0834
      3 C           0.9133   -2.3940   -0.2608 C.ar    1  UNL1        0.1542
      4 N           1.8414   -3.3766   -0.2233 N.ar    1  UNL1       -0.1320
      5 N           3.0272   -2.7786   -0.1721 N.ar    1  UNL1       -0.1269
      6 C           2.8545   -1.4591   -0.1776 C.ar    1  UNL1        0.1910
      7 C           3.9234   -0.4110   -0.1321 C.ar    1  UNL1        0.1655
      8 N           3.9629    0.7989   -0.2995 N.ar    1  UNL1       -0.2116
      9 C           4.9731    1.5606   -0.2229 C.ar    1  UNL1        0.2429
     10 C           5.0117    3.0661   -0.4345 C.3     1  UNL1        0.4529
     11 F           6.2837    3.5326   -0.3619 F       1  UNL1       -0.1631
     12 F           4.5004    3.3137   -1.6771 F       1  UNL1       -0.1631
     13 F           4.2597    3.6400    0.5589 F       1  UNL1       -0.1631
     14 N           6.2161    0.8943    0.1027 N.ar    1  UNL1       -0.1848
     15 S           5.6029   -0.8232    0.2376 S.2     1  UNL1        0.0372
     16 N           1.5533   -1.2276   -0.2320 N.ar    1  UNL1       -0.3062
     17 C           0.8144    0.0274   -0.2608 C.3     1  UNL1        0.0423
     18 C          -0.4144   -0.2191   -1.1078 C.3     1  UNL1        0.0338
     19 N          -1.1875   -1.2495   -0.4247 N.am    1  UNL1       -0.2860
     20 C          -2.4725   -1.0039    0.1101 C.2     1  UNL1        0.2472
     21 O          -3.0671   -1.9494    0.6839 O.2     1  UNL1       -0.2700
     22 C          -3.1297    0.2954    0.0222 C.ar    1  UNL1        0.0371
     23 C          -2.5732    1.4691    0.4440 C.ar    1  UNL1       -0.0469
     24 C          -3.2651    2.6740    0.3252 C.ar    1  UNL1       -0.0257
     25 C          -4.5309    2.7012   -0.2229 C.ar    1  UNL1        0.1234
     26 F          -5.1843    3.8911   -0.3282 F       1  UNL1       -0.2055
     27 C          -5.1032    1.5312   -0.6507 C.ar    1  UNL1       -0.0257
     28 C          -4.4062    0.3498   -0.5265 C.ar    1  UNL1       -0.0469
     29 H          -0.2604   -4.1590    1.0021 H       1  UNL1        0.0252
     30 H          -1.9539   -3.9899    0.5220 H       1  UNL1        0.0252
     31 H          -1.1836   -2.8250    1.7390 H       1  UNL1        0.0252
     32 H          -0.8503   -3.0808   -1.2800 H       1  UNL1        0.0579
     33 H           1.4108    0.8827   -0.5743 H       1  UNL1        0.0508
     34 H           0.4589    0.1838    0.7852 H       1  UNL1        0.0508
     35 H          -1.0007    0.6722   -1.3244 H       1  UNL1        0.0482
     36 H          -0.0664   -0.6216   -2.0925 H       1  UNL1        0.0482
     37 H          -1.5721    1.4406    0.8769 H       1  UNL1        0.0626
     38 H          -2.7754    3.5889    0.6764 H       1  UNL1        0.0646
     39 H          -6.1097    1.5656   -1.0844 H       1  UNL1        0.0646
     40 H          -4.8654   -0.5722   -0.8667 H       1  UNL1        0.0626
@<TRIPOS>BOND
     1     1     2    1
     2     2     3    1
     3     3     4   ar
     4     4     5   ar
     5     5     6   ar
     6     6     7    1
     7     7     8   ar
     8     8     9   ar
     9     9    10    1
    10    10    11    1
    11    10    12    1
    12    10    13    1
    13     9    14   ar
    14    14    15   ar
    15     6    16   ar
    16    16    17    1
    17    17    18    1
    18    18    19    1
    19    19    20   am
    20    20    21    2
    21    20    22    1
    22    22    23   ar
    23    23    24   ar
    24    24    25   ar
    25    25    26    1
    26    25    27   ar
    27    27    28   ar
    28    19     2    1
    29    28    22   ar
    30    16     3   ar
    31    15     7   ar
    32     1    29    1
    33     1    30    1
    34     1    31    1
    35     2    32    1
    36    17    33    1
    37    17    34    1
    38    18    35    1
    39    18    36    1
    40    23    37    1
    41    24    38    1
    42    27    39    1
    43    28    40    1
