@<TRIPOS>MOLECULE
*****
 49 52 0 0 0
SMALL
GASTEIGER

@<TRIPOS>ATOM
      1 C          -2.0246    0.5471   -2.6281 C.3     1  UNL1       -0.0045
      2 C          -2.9930    0.4051   -1.5241 C.ar    1  UNL1        0.1258
      3 C          -2.6518    0.1826   -0.2119 C.ar    1  UNL1        0.0860
      4 C          -1.2896    0.0315    0.4144 C.3     1  UNL1        0.0272
      5 C          -0.6998   -1.3054    0.1423 C.3     1  UNL1        0.0951
      6 O           0.5538   -1.4257    0.7238 O.3     1  UNL1       -0.4916
      7 C           1.6947   -0.7236    0.4703 C.ar    1  UNL1        0.1205
      8 C           2.6515   -1.2400    1.3611 C.ar    1  UNL1       -0.0197
      9 C           3.9787   -0.7898    1.4306 C.ar    1  UNL1       -0.0551
     10 C           4.3646    0.2363    0.5562 C.ar    1  UNL1       -0.0459
     11 C           5.7329    0.8001    0.5292 C.3     1  UNL1       -0.0061
     12 C           6.6314    0.0649   -0.4359 C.3     1  UNL1        0.1410
     13 C           7.9800    0.7025   -0.3928 C.2     1  UNL1        0.2589
     14 O           8.5942    1.5109   -1.1290 O.2     1  UNL1       -0.2720
     15 N           8.5486    0.1580    0.8130 N.am    1  UNL1       -0.1440
     16 O           7.9046   -1.0371    1.0494 O.3     1  UNL1       -0.3466
     17 C           6.9536   -1.3033    0.0734 C.2     1  UNL1        0.3428
     18 O           6.5030   -2.4293   -0.2674 O.2     1  UNL1       -0.2478
     19 C           3.4253    0.7397   -0.3156 C.ar    1  UNL1       -0.0551
     20 C           2.1308    0.2802   -0.3632 C.ar    1  UNL1       -0.0197
     21 N          -3.8222    0.1185    0.4483 N.ar    1  UNL1       -0.2136
     22 C          -4.8469    0.2964   -0.4348 C.ar    1  UNL1        0.2276
     23 O          -4.2986    0.4637   -1.5989 O.2     1  UNL1       -0.4402
     24 C          -6.2115    0.2618    0.0860 C.ar    1  UNL1        0.0369
     25 C          -6.5942    0.0643    1.3987 C.ar    1  UNL1       -0.0495
     26 C          -7.9558    0.0653    1.6881 C.ar    1  UNL1       -0.0610
     27 C          -8.8922    0.2580    0.6935 C.ar    1  UNL1       -0.0617
     28 C          -8.5240    0.4574   -0.6283 C.ar    1  UNL1       -0.0610
     29 C          -7.1551    0.4545   -0.9090 C.ar    1  UNL1       -0.0495
     30 H          -2.4640    1.2073   -3.4289 H       1  UNL1        0.0308
     31 H          -1.1533    1.1035   -2.2458 H       1  UNL1        0.0308
     32 H          -1.6971   -0.4342   -3.0479 H       1  UNL1        0.0308
     33 H          -1.3935    0.1070    1.5357 H       1  UNL1        0.0362
     34 H          -0.6197    0.8369    0.1362 H       1  UNL1        0.0362
     35 H          -1.3254   -2.1371    0.5952 H       1  UNL1        0.0700
     36 H          -0.6921   -1.5596   -0.9510 H       1  UNL1        0.0700
     37 H           2.5754   -2.0319    2.1226 H       1  UNL1        0.0654
     38 H           4.7734   -1.1061    2.0584 H       1  UNL1        0.0621
     39 H           5.6890    1.8520    0.1970 H       1  UNL1        0.0326
     40 H           6.2395    0.7767    1.5162 H       1  UNL1        0.0326
     41 H           6.2464    0.0713   -1.4629 H       1  UNL1        0.0514
     42 H           9.3022    0.5347    1.4399 H       1  UNL1        0.1959
     43 H           3.6339    1.5276   -1.0221 H       1  UNL1        0.0621
     44 H           1.3392    0.6017   -1.0163 H       1  UNL1        0.0654
     45 H          -5.7848   -0.0776    2.0995 H       1  UNL1        0.0625
     46 H          -8.1903   -0.0941    2.7320 H       1  UNL1        0.0618
     47 H          -9.9252    0.2381    1.0401 H       1  UNL1        0.0618
     48 H          -9.3010    0.6028   -1.3681 H       1  UNL1        0.0618
     49 H          -6.9412    0.6163   -1.9693 H       1  UNL1        0.0625
@<TRIPOS>BOND
     1     1     2    1
     2     2     3   ar
     3     3     4    1
     4     4     5    1
     5     5     6    1
     6     6     7    1
     7     7     8   ar
     8     8     9   ar
     9     9    10   ar
    10    10    11    1
    11    11    12    1
    12    12    13    1
    13    13    14    2
    14    13    15   am
    15    15    16    1
    16    16    17    1
    17    17    18    2
    18    10    19   ar
    19    19    20   ar
    20     3    21   ar
    21    21    22   ar
    22    22    23   ar
    23    22    24    1
    24    24    25   ar
    25    25    26   ar
    26    26    27   ar
    27    27    28   ar
    28    28    29   ar
    29    23     2   ar
    30    29    24   ar
    31    20     7   ar
    32    17    12    1
    33     1    30    1
    34     1    31    1
    35     1    32    1
    36     4    33    1
    37     4    34    1
    38     5    35    1
    39     5    36    1
    40     8    37    1
    41     9    38    1
    42    11    39    1
    43    11    40    1
    44    12    41    1
    45    15    42    1
    46    19    43    1
    47    20    44    1
    48    25    45    1
    49    26    46    1
    50    27    47    1
    51    28    48    1
    52    29    49    1
