
     RDKit          3D

 37 39  0  0  0  0  0  0  0  0999 V2000
    5.9232    0.4881    1.7567 N   0  0  0  0  0  0  0  0  0  0  0  0
    4.9730    0.5740    0.6994 C   0  0  0  0  0  0  0  0  0  0  0  0
    5.3917    0.8301   -0.5636 N   0  0  0  0  0  0  0  0  0  0  0  0
    4.5033    0.9151   -1.5796 C   0  0  0  0  0  0  0  0  0  0  0  0
    3.1934    0.7427   -1.3264 N   0  0  0  0  0  0  0  0  0  0  0  0
    2.7874    0.4896   -0.0730 C   0  0  0  0  0  0  0  0  0  0  0  0
    3.6423    0.3884    1.0185 C   0  0  0  0  0  0  0  0  0  0  0  0
    2.9260    0.1317    2.1127 N   0  0  0  0  0  0  0  0  0  0  0  0
    1.6107    0.0627    1.7552 C   0  0  0  0  0  0  0  0  0  0  0  0
    1.5434    0.2843    0.4124 N   0  0  0  0  0  0  0  0  0  0  0  0
    0.2981    0.2899   -0.3438 C   0  0  2  0  0  0  0  0  0  0  0  0
   -0.7700    0.4792    0.5118 O   0  0  0  0  0  0  0  0  0  0  0  0
   -1.6232   -0.5950    0.4082 C   0  0  1  0  0  0  0  0  0  0  0  0
   -3.0579   -0.3014    0.7126 C   0  0  0  0  0  0  0  0  0  0  0  0
   -3.5235    0.6721   -0.1795 O   0  0  0  0  0  0  0  0  0  0  0  0
   -5.1765    1.1502    0.0140 W   0  0  0  0  0  5  0  0  0  0  0  0
   -6.3195    0.0011    0.5718 O   0  0  0  0  0  0  0  0  0  0  0  0
   -5.7381    2.7115   -0.3911 O   0  0  0  0  0  0  0  0  0  0  0  0
   -5.6776    0.4453   -2.2684 O   0  0  0  0  0  0  0  0  0  0  0  0
   -1.4442   -1.0716   -1.0329 C   0  0  2  0  0  0  0  0  0  0  0  0
   -1.9149   -2.3554   -1.2373 O   0  0  0  0  0  0  0  0  0  0  0  0
    0.0900   -1.0289   -1.0648 C   0  0  1  0  0  0  0  0  0  0  0  0
    0.6012   -1.0474   -2.3380 O   0  0  0  0  0  0  0  0  0  0  0  0
    5.8567   -0.3162    2.4478 H   0  0  0  0  0  0  0  0  0  0  0  0
    6.7565    0.9755    2.1526 H   0  0  0  0  0  0  0  0  0  0  0  0
    4.7273    1.1124   -2.6101 H   0  0  0  0  0  0  0  0  0  0  0  0
    0.8193   -0.1381    2.4768 H   0  0  0  0  0  0  0  0  0  0  0  0
    0.2953    1.0644   -1.1410 H   0  0  0  0  0  0  0  0  0  0  0  0
   -1.2696   -1.4626    1.0254 H   0  0  0  0  0  0  0  0  0  0  0  0
   -3.6346   -1.2167    0.5644 H   0  0  0  0  0  0  0  0  0  0  0  0
   -3.1111    0.0331    1.7610 H   0  0  0  0  0  0  0  0  0  0  0  0
   -6.2115   -0.9112    0.2162 H   0  0  0  0  0  0  0  0  0  0  0  0
   -5.0679    3.4378   -0.3590 H   0  0  0  0  0  0  0  0  0  0  0  0
   -1.8657   -0.3072   -1.6877 H   0  0  0  0  0  0  0  0  0  0  0  0
   -1.3653   -2.9573   -0.6727 H   0  0  0  0  0  0  0  0  0  0  0  0
    0.4620   -1.8708   -0.4414 H   0  0  0  0  0  0  0  0  0  0  0  0
    1.3707   -1.6995   -2.3741 H   0  0  0  0  0  0  0  0  0  0  0  0
  1  2  1  0
  2  3  2  0
  3  4  1  0
  4  5  2  0
  5  6  1  0
  6  7  2  0
  7  8  1  0
  8  9  2  0
  9 10  1  0
 10 11  1  0
 11 12  1  0
 12 13  1  0
 13 14  1  0
 14 15  1  0
 15 16  1  0
 16 17  1  0
 16 18  1  0
 16 19  2  0
 13 20  1  0
 20 21  1  0
 20 22  1  0
 22 23  1  0
  7  2  1  0
 22 11  1  0
 10  6  1  0
  1 24  1  0
  1 25  1  0
  4 26  1  0
  9 27  1  0
 11 28  1  6
 13 29  1  1
 14 30  1  0
 14 31  1  0
 17 32  1  0
 18 33  1  0
 20 34  1  6
 21 35  1  0
 22 36  1  1
 23 37  1  0
M  END
$$$$
