@<TRIPOS>MOLECULE
*****
 37 39 0 0 0
SMALL
GASTEIGER

@<TRIPOS>ATOM
      1 N           5.9232    0.4881    1.7567 N.pl3   1  UNL1        0.0000
      2 C           4.9730    0.5740    0.6994 C.ar    1  UNL1        0.0000
      3 N           5.3917    0.8301   -0.5636 N.ar    1  UNL1        0.0000
      4 C           4.5033    0.9151   -1.5796 C.ar    1  UNL1        0.0000
      5 N           3.1934    0.7427   -1.3264 N.ar    1  UNL1        0.0000
      6 C           2.7874    0.4896   -0.0730 C.ar    1  UNL1        0.0000
      7 C           3.6423    0.3884    1.0185 C.ar    1  UNL1        0.0000
      8 N           2.9260    0.1317    2.1127 N.ar    1  UNL1        0.0000
      9 C           1.6107    0.0627    1.7552 C.ar    1  UNL1        0.0000
     10 N           1.5434    0.2843    0.4124 N.ar    1  UNL1        0.0000
     11 C           0.2981    0.2899   -0.3438 C.3     1  UNL1        0.0000
     12 O          -0.7700    0.4792    0.5118 O.3     1  UNL1        0.0000
     13 C          -1.6232   -0.5950    0.4082 C.3     1  UNL1        0.0000
     14 C          -3.0579   -0.3014    0.7126 C.3     1  UNL1        0.0000
     15 O          -3.5235    0.6721   -0.1795 O.3     1  UNL1        0.0000
     16 W          -5.1765    1.1502    0.0140 W       1  UNL1        0.0000
     17 O          -6.3195    0.0011    0.5718 O.3     1  UNL1        0.0000
     18 O          -5.7381    2.7115   -0.3911 O.3     1  UNL1        0.0000
     19 O          -5.6776    0.4453   -2.2684 O.2     1  UNL1        0.0000
     20 C          -1.4442   -1.0716   -1.0329 C.3     1  UNL1        0.0000
     21 O          -1.9149   -2.3554   -1.2373 O.3     1  UNL1        0.0000
     22 C           0.0900   -1.0289   -1.0648 C.3     1  UNL1        0.0000
     23 O           0.6012   -1.0474   -2.3380 O.3     1  UNL1        0.0000
     24 H           5.8567   -0.3162    2.4478 H       1  UNL1        0.0000
     25 H           6.7565    0.9755    2.1526 H       1  UNL1        0.0000
     26 H           4.7273    1.1124   -2.6101 H       1  UNL1        0.0000
     27 H           0.8193   -0.1381    2.4768 H       1  UNL1        0.0000
     28 H           0.2953    1.0644   -1.1410 H       1  UNL1        0.0000
     29 H          -1.2696   -1.4626    1.0254 H       1  UNL1        0.0000
     30 H          -3.6346   -1.2167    0.5644 H       1  UNL1        0.0000
     31 H          -3.1111    0.0331    1.7610 H       1  UNL1        0.0000
     32 H          -6.2115   -0.9112    0.2162 H       1  UNL1        0.0000
     33 H          -5.0679    3.4378   -0.3590 H       1  UNL1        0.0000
     34 H          -1.8657   -0.3072   -1.6877 H       1  UNL1        0.0000
     35 H          -1.3653   -2.9573   -0.6727 H       1  UNL1        0.0000
     36 H           0.4620   -1.8708   -0.4414 H       1  UNL1        0.0000
     37 H           1.3707   -1.6995   -2.3741 H       1  UNL1        0.0000
@<TRIPOS>BOND
     1     1     2    1
     2     2     3   ar
     3     3     4   ar
     4     4     5   ar
     5     5     6   ar
     6     6     7   ar
     7     7     8   ar
     8     8     9   ar
     9     9    10   ar
    10    10    11    1
    11    11    12    1
    12    12    13    1
    13    13    14    1
    14    14    15    1
    15    15    16    1
    16    16    17    1
    17    16    18    1
    18    16    19    2
    19    13    20    1
    20    20    21    1
    21    20    22    1
    22    22    23    1
    23     7     2   ar
    24    22    11    1
    25    10     6   ar
    26     1    24    1
    27     1    25    1
    28     4    26    1
    29     9    27    1
    30    11    28    1
    31    13    29    1
    32    14    30    1
    33    14    31    1
    34    17    32    1
    35    18    33    1
    36    20    34    1
    37    21    35    1
    38    22    36    1
    39    23    37    1
