
     RDKit          3D

 56 60  0  0  0  0  0  0  0  0999 V2000
    4.2238    1.7628   -2.4691 C   0  0  0  0  0  0  0  0  0  0  0  0
    3.4725    1.0304   -1.3601 C   0  0  1  0  0  0  0  0  0  0  0  0
    2.9241   -0.1685   -1.7952 O   0  0  0  0  0  0  0  0  0  0  0  0
    1.6202   -0.5990   -1.6624 C   0  0  0  0  0  0  0  0  0  0  0  0
    0.6050    0.1062   -1.0578 C   0  0  0  0  0  0  0  0  0  0  0  0
   -0.6878   -0.3778   -0.9539 C   0  0  0  0  0  0  0  0  0  0  0  0
   -1.7403    0.3965   -0.3057 C   0  0  0  0  0  0  0  0  0  0  0  0
   -1.9108    1.7609   -0.2425 C   0  0  0  0  0  0  0  0  0  0  0  0
   -3.0309    2.0066    0.4650 N   0  0  0  0  0  0  0  0  0  0  0  0
   -3.5885    0.8594    0.8596 N   0  0  0  0  0  0  0  0  0  0  0  0
   -4.8064    0.7755    1.6392 C   0  0  0  0  0  0  0  0  0  0  0  0
   -4.7974   -0.4224    2.5700 C   0  0  0  0  0  0  0  0  0  0  0  0
   -5.8405   -0.0822    3.6193 C   0  0  0  0  0  0  0  0  0  0  0  0
   -6.0072    1.4125    3.5676 C   0  0  0  0  0  0  0  0  0  0  0  0
   -7.2966    1.7037    3.1365 F   0  0  0  0  0  0  0  0  0  0  0  0
   -5.8528    1.9562    4.8223 F   0  0  0  0  0  0  0  0  0  0  0  0
   -4.9695    1.9310    2.5857 C   0  0  0  0  0  0  0  0  0  0  0  0
   -2.8053   -0.1304    0.3924 C   0  0  0  0  0  0  0  0  0  0  0  0
   -0.9386   -1.6226   -1.4885 C   0  0  0  0  0  0  0  0  0  0  0  0
    0.0360   -2.3733   -2.1044 C   0  0  0  0  0  0  0  0  0  0  0  0
    0.0394   -3.6037   -2.6978 N   0  0  0  0  0  0  0  0  0  0  0  0
    1.2640   -3.8465   -3.1340 N   0  0  0  0  0  0  0  0  0  0  0  0
    1.7378   -5.0286   -3.8268 C   0  0  0  0  0  0  0  0  0  0  0  0
    2.0614   -2.8033   -2.8394 C   0  0  0  0  0  0  0  0  0  0  0  0
    3.3806   -2.6901   -3.1286 F   0  0  0  0  0  0  0  0  0  0  0  0
    1.3058   -1.8438   -2.1803 C   0  0  0  0  0  0  0  0  0  0  0  0
    4.5230    0.6958   -0.3092 C   0  0  1  0  0  0  0  0  0  0  0  0
    5.1227    1.9976    0.1687 C   0  0  0  0  0  0  0  0  0  0  0  0
    4.1659    2.4609    1.1483 N   0  0  0  0  0  0  0  0  0  0  0  0
    3.2378    1.4311    1.4600 C   0  0  0  0  0  0  0  0  0  0  0  0
    2.1286    1.4933    2.0352 O   0  0  0  0  0  0  0  0  0  0  0  0
    3.8564    0.1898    0.9501 C   0  0  0  0  0  0  0  0  0  0  0  0
    5.2790    1.4512   -2.5243 H   0  0  0  0  0  0  0  0  0  0  0  0
    4.1825    2.8490   -2.3681 H   0  0  0  0  0  0  0  0  0  0  0  0
    3.7663    1.4873   -3.4643 H   0  0  0  0  0  0  0  0  0  0  0  0
    2.7464    1.6961   -0.8544 H   0  0  0  0  0  0  0  0  0  0  0  0
    0.8219    1.0891   -0.6412 H   0  0  0  0  0  0  0  0  0  0  0  0
   -1.2268    2.4706   -0.7034 H   0  0  0  0  0  0  0  0  0  0  0  0
   -5.7036    0.6569    0.9882 H   0  0  0  0  0  0  0  0  0  0  0  0
   -5.0230   -1.3537    2.0276 H   0  0  0  0  0  0  0  0  0  0  0  0
   -3.8047   -0.4968    3.0474 H   0  0  0  0  0  0  0  0  0  0  0  0
   -6.7871   -0.6081    3.3794 H   0  0  0  0  0  0  0  0  0  0  0  0
   -5.5352   -0.4281    4.6372 H   0  0  0  0  0  0  0  0  0  0  0  0
   -4.0285    2.0865    3.1197 H   0  0  0  0  0  0  0  0  0  0  0  0
   -5.3742    2.8411    2.0989 H   0  0  0  0  0  0  0  0  0  0  0  0
   -2.9912   -1.1856    0.5466 H   0  0  0  0  0  0  0  0  0  0  0  0
   -1.9389   -2.0104   -1.4144 H   0  0  0  0  0  0  0  0  0  0  0  0
    1.1470   -5.9247   -3.5532 H   0  0  0  0  0  0  0  0  0  0  0  0
    1.6694   -4.8894   -4.9284 H   0  0  0  0  0  0  0  0  0  0  0  0
    2.7968   -5.2246   -3.5458 H   0  0  0  0  0  0  0  0  0  0  0  0
    5.2820   -0.0038   -0.7003 H   0  0  0  0  0  0  0  0  0  0  0  0
    6.1119    1.7899    0.6677 H   0  0  0  0  0  0  0  0  0  0  0  0
    5.2716    2.7295   -0.6516 H   0  0  0  0  0  0  0  0  0  0  0  0
    4.1596    3.4158    1.5661 H   0  0  0  0  0  0  0  0  0  0  0  0
    4.6169   -0.2023    1.6413 H   0  0  0  0  0  0  0  0  0  0  0  0
    3.1294   -0.6136    0.7567 H   0  0  0  0  0  0  0  0  0  0  0  0
  1  2  1  0
  2  3  1  0
  3  4  1  0
  4  5  2  0
  5  6  1  0
  6  7  1  0
  7  8  1  0
  8  9  2  0
  9 10  1  0
 10 11  1  0
 11 12  1  0
 12 13  1  0
 13 14  1  0
 14 15  1  0
 14 16  1  0
 14 17  1  0
 10 18  1  0
  6 19  2  0
 19 20  1  0
 20 21  2  0
 21 22  1  0
 22 23  1  0
 22 24  1  0
 24 25  1  0
 24 26  2  0
  2 27  1  0
 27 28  1  0
 28 29  1  0
 29 30  1  0
 30 31  2  0
 30 32  1  0
 26  4  1  0
 32 27  1  0
 18  7  2  0
 26 20  1  0
 17 11  1  0
  1 33  1  0
  1 34  1  0
  1 35  1  0
  2 36  1  1
  5 37  1  0
  8 38  1  0
 11 39  1  0
 12 40  1  0
 12 41  1  0
 13 42  1  0
 13 43  1  0
 17 44  1  0
 17 45  1  0
 18 46  1  0
 19 47  1  0
 23 48  1  0
 23 49  1  0
 23 50  1  0
 27 51  1  6
 28 52  1  0
 28 53  1  0
 29 54  1  0
 32 55  1  0
 32 56  1  0
M  END
$$$$
