@<TRIPOS>MOLECULE
*****
 56 60 0 0 0
SMALL
GASTEIGER

@<TRIPOS>ATOM
      1 C           4.2238    1.7628   -2.4691 C.3     1  UNL1       -0.0275
      2 C           3.4725    1.0304   -1.3601 C.3     1  UNL1        0.1021
      3 O           2.9241   -0.1685   -1.7952 O.3     1  UNL1       -0.4879
      4 C           1.6202   -0.5990   -1.6624 C.ar    1  UNL1        0.1350
      5 C           0.6050    0.1062   -1.0578 C.ar    1  UNL1       -0.0113
      6 C          -0.6878   -0.3778   -0.9539 C.ar    1  UNL1       -0.0094
      7 C          -1.7403    0.3965   -0.3057 C.ar    1  UNL1        0.0198
      8 C          -1.9108    1.7609   -0.2425 C.ar    1  UNL1        0.0571
      9 N          -3.0309    2.0066    0.4650 N.ar    1  UNL1       -0.1788
     10 N          -3.5885    0.8594    0.8596 N.ar    1  UNL1       -0.2676
     11 C          -4.8064    0.7755    1.6392 C.3     1  UNL1        0.0583
     12 C          -4.7974   -0.4224    2.5700 C.3     1  UNL1       -0.0249
     13 C          -5.8405   -0.0822    3.6193 C.3     1  UNL1        0.0127
     14 C          -6.0072    1.4125    3.5676 C.3     1  UNL1        0.2509
     15 F          -7.2966    1.7037    3.1365 F       1  UNL1       -0.2056
     16 F          -5.8528    1.9562    4.8223 F       1  UNL1       -0.2056
     17 C          -4.9695    1.9310    2.5857 C.3     1  UNL1        0.0332
     18 C          -2.8053   -0.1304    0.3924 C.ar    1  UNL1        0.0335
     19 C          -0.9386   -1.6226   -1.4885 C.ar    1  UNL1       -0.0258
     20 C           0.0360   -2.3733   -2.1044 C.ar    1  UNL1        0.0998
     21 N           0.0394   -3.6037   -2.6978 N.ar    1  UNL1       -0.1689
     22 N           1.2640   -3.8465   -3.1340 N.ar    1  UNL1       -0.2408
     23 C           1.7378   -5.0286   -3.8268 C.3     1  UNL1        0.0331
     24 C           2.0614   -2.8033   -2.8394 C.ar    1  UNL1        0.2228
     25 F           3.3806   -2.6901   -3.1286 F       1  UNL1       -0.1834
     26 C           1.3058   -1.8438   -2.1803 C.ar    1  UNL1        0.0975
     27 C           4.5230    0.6958   -0.3092 C.3     1  UNL1        0.0195
     28 C           5.1227    1.9976    0.1687 C.3     1  UNL1        0.0182
     29 N           4.1659    2.4609    1.1483 N.am    1  UNL1       -0.3149
     30 C           3.2378    1.4311    1.4600 C.2     1  UNL1        0.2135
     31 O           2.1286    1.4933    2.0352 O.2     1  UNL1       -0.2758
     32 C           3.8564    0.1898    0.9501 C.3     1  UNL1        0.0315
     33 H           5.2790    1.4512   -2.5243 H       1  UNL1        0.0265
     34 H           4.1825    2.8490   -2.3681 H       1  UNL1        0.0265
     35 H           3.7663    1.4873   -3.4643 H       1  UNL1        0.0265
     36 H           2.7464    1.6961   -0.8544 H       1  UNL1        0.0733
     37 H           0.8219    1.0891   -0.6412 H       1  UNL1        0.0660
     38 H          -1.2268    2.4706   -0.7034 H       1  UNL1        0.0854
     39 H          -5.7036    0.6569    0.9882 H       1  UNL1        0.0547
     40 H          -5.0230   -1.3537    2.0276 H       1  UNL1        0.0288
     41 H          -3.8047   -0.4968    3.0474 H       1  UNL1        0.0288
     42 H          -6.7871   -0.6081    3.3794 H       1  UNL1        0.0323
     43 H          -5.5352   -0.4281    4.6372 H       1  UNL1        0.0323
     44 H          -4.0285    2.0865    3.1197 H       1  UNL1        0.0343
     45 H          -5.3742    2.8411    2.0989 H       1  UNL1        0.0343
     46 H          -2.9912   -1.1856    0.5466 H       1  UNL1        0.0832
     47 H          -1.9389   -2.0104   -1.4144 H       1  UNL1        0.0646
     48 H           1.1470   -5.9247   -3.5532 H       1  UNL1        0.0474
     49 H           1.6694   -4.8894   -4.9284 H       1  UNL1        0.0474
     50 H           2.7968   -5.2246   -3.5458 H       1  UNL1        0.0474
     51 H           5.2820   -0.0038   -0.7003 H       1  UNL1        0.0356
     52 H           6.1119    1.7899    0.6677 H       1  UNL1        0.0466
     53 H           5.2716    2.7295   -0.6516 H       1  UNL1        0.0466
     54 H           4.1596    3.4158    1.5661 H       1  UNL1        0.1487
     55 H           4.6169   -0.2023    1.6413 H       1  UNL1        0.0363
     56 H           3.1294   -0.6136    0.7567 H       1  UNL1        0.0363
@<TRIPOS>BOND
     1     1     2    1
     2     2     3    1
     3     3     4    1
     4     4     5   ar
     5     5     6   ar
     6     6     7    1
     7     7     8   ar
     8     8     9   ar
     9     9    10   ar
    10    10    11    1
    11    11    12    1
    12    12    13    1
    13    13    14    1
    14    14    15    1
    15    14    16    1
    16    14    17    1
    17    10    18   ar
    18     6    19   ar
    19    19    20   ar
    20    20    21   ar
    21    21    22   ar
    22    22    23    1
    23    22    24   ar
    24    24    25    1
    25    24    26   ar
    26     2    27    1
    27    27    28    1
    28    28    29    1
    29    29    30   am
    30    30    31    2
    31    30    32    1
    32    26     4   ar
    33    32    27    1
    34    18     7   ar
    35    26    20   ar
    36    17    11    1
    37     1    33    1
    38     1    34    1
    39     1    35    1
    40     2    36    1
    41     5    37    1
    42     8    38    1
    43    11    39    1
    44    12    40    1
    45    12    41    1
    46    13    42    1
    47    13    43    1
    48    17    44    1
    49    17    45    1
    50    18    46    1
    51    19    47    1
    52    23    48    1
    53    23    49    1
    54    23    50    1
    55    27    51    1
    56    28    52    1
    57    28    53    1
    58    29    54    1
    59    32    55    1
    60    32    56    1
