@<TRIPOS>MOLECULE
*****
 50 54 0 0 0
SMALL
GASTEIGER

@<TRIPOS>ATOM
      1 C          -3.3262    2.6846    2.5437 C.3     1  UNL1        0.0123
      2 N          -3.2546    1.7682    1.4586 N.am    1  UNL1       -0.2284
      3 C          -3.5584    0.3805    1.4932 C.2     1  UNL1        0.2317
      4 O          -3.8204   -0.1091    2.6446 O.2     1  UNL1       -0.2744
      5 C          -3.5775   -0.4691    0.2853 C.3     1  UNL1        0.0792
      6 C          -3.9757    0.4345   -0.9528 C.3     1  UNL1        0.0318
      7 N          -2.7912    1.3121   -0.8628 N.am    1  UNL1       -0.2784
      8 C          -1.6856    0.9480   -1.6850 C.3     1  UNL1        0.0567
      9 C          -1.3599   -0.4244   -1.0174 C.ar    1  UNL1        0.0415
     10 C          -2.2442   -0.9847   -0.1378 C.ar    1  UNL1       -0.0040
     11 C          -1.6404   -2.1579    0.2597 C.ar    1  UNL1        0.0041
     12 C          -2.0197   -3.1805    1.1323 C.ar    1  UNL1       -0.0523
     13 C          -1.2148   -4.2869    1.3599 C.ar    1  UNL1       -0.0611
     14 C          -0.0168   -4.4025    0.7267 C.ar    1  UNL1       -0.0598
     15 C           0.3744   -3.4191   -0.1277 C.ar    1  UNL1       -0.0376
     16 C          -0.4196   -2.3020   -0.3673 C.ar    1  UNL1        0.0499
     17 N          -0.2900   -1.1957   -1.1527 N.ar    1  UNL1       -0.3377
     18 C           0.8655   -0.9432   -1.9773 C.3     1  UNL1        0.0486
     19 C           1.9258   -0.1443   -1.3761 C.ar    1  UNL1       -0.0277
     20 C           2.0749    1.2073   -1.6721 C.ar    1  UNL1       -0.0562
     21 C           3.0718    1.9565   -1.0919 C.ar    1  UNL1       -0.0493
     22 C           3.9835    1.4084   -0.1811 C.ar    1  UNL1        0.0387
     23 C           5.0225    2.2280    0.4117 C.2     1  UNL1        0.2665
     24 O           5.0808    3.4592    0.0798 O.2     1  UNL1       -0.2681
     25 N           5.9599    1.7363    1.3258 N.am    1  UNL1       -0.1935
     26 O           6.9152    2.5704    1.8461 O.3     1  UNL1       -0.2949
     27 C           3.8335    0.0749    0.1079 C.ar    1  UNL1       -0.0493
     28 C           2.8131   -0.6790   -0.4897 C.ar    1  UNL1       -0.0562
     29 C          -2.8254    2.2773    0.1423 C.2     1  UNL1        0.3112
     30 O          -2.5130    3.4515   -0.0753 O.2     1  UNL1       -0.2520
     31 H          -4.0299    2.3169    3.3252 H       1  UNL1        0.0434
     32 H          -2.3373    2.9528    2.9732 H       1  UNL1        0.0434
     33 H          -3.7611    3.6474    2.1701 H       1  UNL1        0.0434
     34 H          -4.3524   -1.2223    0.3733 H       1  UNL1        0.0459
     35 H          -3.9267   -0.2493   -1.8085 H       1  UNL1        0.0476
     36 H          -4.9193    0.9103   -0.7983 H       1  UNL1        0.0476
     37 H          -2.0201    0.7446   -2.7082 H       1  UNL1        0.0529
     38 H          -0.8286    1.6150   -1.5886 H       1  UNL1        0.0529
     39 H          -2.9543   -3.0973    1.6305 H       1  UNL1        0.0624
     40 H          -1.5091   -5.0825    2.0386 H       1  UNL1        0.0618
     41 H           0.6360   -5.2565    0.8834 H       1  UNL1        0.0618
     42 H           1.3086   -3.4841   -0.6522 H       1  UNL1        0.0638
     43 H           0.5361   -0.4488   -2.9409 H       1  UNL1        0.0541
     44 H           1.2378   -1.9455   -2.3288 H       1  UNL1        0.0541
     45 H           1.3750    1.6369   -2.3870 H       1  UNL1        0.0621
     46 H           3.1546    3.0054   -1.3479 H       1  UNL1        0.0625
     47 H           5.9346    0.7403    1.6122 H       1  UNL1        0.1825
     48 H           7.8024    2.1371    1.7169 H       1  UNL1        0.2414
     49 H           4.5077   -0.4079    0.8052 H       1  UNL1        0.0625
     50 H           2.7588   -1.7117   -0.2167 H       1  UNL1        0.0621
@<TRIPOS>BOND
     1     1     2    1
     2     2     3   am
     3     3     4    2
     4     3     5    1
     5     5     6    1
     6     6     7    1
     7     7     8    1
     8     8     9    1
     9     9    10   ar
    10    10    11   ar
    11    11    12   ar
    12    12    13   ar
    13    13    14   ar
    14    14    15   ar
    15    15    16   ar
    16    16    17   ar
    17    17    18    1
    18    18    19    1
    19    19    20   ar
    20    20    21   ar
    21    21    22   ar
    22    22    23    1
    23    23    24    2
    24    23    25   am
    25    25    26    1
    26    22    27   ar
    27    27    28   ar
    28     7    29   am
    29    29    30    2
    30    29     2   am
    31    10     5    1
    32    16    11   ar
    33    28    19   ar
    34    17     9   ar
    35     1    31    1
    36     1    32    1
    37     1    33    1
    38     5    34    1
    39     6    35    1
    40     6    36    1
    41     8    37    1
    42     8    38    1
    43    12    39    1
    44    13    40    1
    45    14    41    1
    46    15    42    1
    47    18    43    1
    48    18    44    1
    49    20    45    1
    50    21    46    1
    51    25    47    1
    52    26    48    1
    53    27    49    1
    54    28    50    1
