@<TRIPOS>MOLECULE
*****
 58 62 0 0 0
SMALL
GASTEIGER

@<TRIPOS>ATOM
      1 C           9.9132    1.9905   -0.3844 C.3     1  UNL1        0.0736
      2 S          10.2746    0.3304   -0.9042 S.O2    1  UNL1        0.0403
      3 O          10.0011    0.1259   -2.3655 O.2     1  UNL1       -0.1555
      4 O          11.7345    0.0217   -0.6386 O.2     1  UNL1       -0.1555
      5 N           9.3483   -0.8209   -0.0164 N.pl3   1  UNL1       -0.2209
      6 C           7.9295   -0.7829   -0.1007 C.ar    1  UNL1        0.0477
      7 C           7.1703   -0.8879    1.0675 C.ar    1  UNL1       -0.0388
      8 C           5.7917   -0.8562    1.0487 C.ar    1  UNL1       -0.0520
      9 C           5.0959   -0.7182   -0.1339 C.ar    1  UNL1       -0.0112
     10 C           3.6356   -0.6878   -0.1222 C.ar    1  UNL1        0.0643
     11 C           2.9168    0.0620    0.7891 C.ar    1  UNL1        0.1038
     12 O           1.6006    0.0957    0.8072 O.2     1  UNL1       -0.4621
     13 C           0.8869   -0.5862   -0.0459 C.ar    1  UNL1        0.1396
     14 C          -0.5030   -0.5614   -0.0401 C.ar    1  UNL1       -0.0032
     15 C          -1.2638   -1.2790   -0.9381 C.ar    1  UNL1        0.0285
     16 C          -2.6988   -1.2567   -0.9366 C.1     1  UNL1       -0.0658
     17 C          -3.9044   -1.2232   -0.9206 C.1     1  UNL1       -0.0905
     18 C          -5.3675   -1.1927   -0.9039 C.3     1  UNL1        0.0524
     19 C          -5.9162    0.2006   -0.6722 C.3     1  UNL1        0.0298
     20 N          -6.7987   -0.2956    0.3482 N.am    1  UNL1       -0.2988
     21 C          -7.9840    0.1545    0.9697 C.2     1  UNL1        0.2191
     22 O          -8.5477   -0.5300    1.8681 O.2     1  UNL1       -0.2753
     23 C          -8.5450    1.4675    0.5259 C.3     1  UNL1        0.0465
     24 C          -9.8133    1.8599    1.2511 C.3     1  UNL1        0.0220
     25 C          -9.1079    3.0569    1.7966 C.3     1  UNL1        0.2503
     26 F          -9.5860    4.2676    1.3304 F       1  UNL1       -0.2056
     27 F          -9.0338    2.9810    3.1936 F       1  UNL1       -0.2056
     28 C          -7.8128    2.5961    1.1783 C.3     1  UNL1        0.0220
     29 C          -5.9688   -1.4563    0.4803 C.3     1  UNL1        0.0298
     30 C          -0.5587   -2.0430   -1.8672 C.ar    1  UNL1       -0.0454
     31 C           0.8207   -2.0716   -1.8777 C.ar    1  UNL1       -0.0462
     32 C           1.5501   -1.3517   -0.9775 C.ar    1  UNL1        0.0646
     33 C           2.9253   -1.4228   -1.0407 C.ar    1  UNL1        0.2001
     34 O           3.5503   -2.1160   -1.8839 O.2     1  UNL1       -0.2864
     35 C           5.8266   -0.6130   -1.2979 C.ar    1  UNL1       -0.0520
     36 C           7.2259   -0.6455   -1.2759 C.ar    1  UNL1       -0.0388
     37 H           9.6233    2.0457    0.6733 H       1  UNL1        0.0482
     38 H          10.7973    2.6533   -0.5435 H       1  UNL1        0.0482
     39 H           9.0224    2.3473   -0.9696 H       1  UNL1        0.0482
     40 H           9.7931   -1.5602    0.5932 H       1  UNL1        0.1733
     41 H           7.7198   -0.9961    1.9931 H       1  UNL1        0.0637
     42 H           5.2006   -0.9385    1.9624 H       1  UNL1        0.0624
     43 H           3.4798    0.6365    1.5072 H       1  UNL1        0.1037
     44 H          -1.0040    0.0550    0.7105 H       1  UNL1        0.0667
     45 H          -5.8571   -1.7598   -1.7065 H       1  UNL1        0.0464
     46 H          -5.1305    0.8705   -0.2487 H       1  UNL1        0.0477
     47 H          -6.3904    0.6031   -1.5795 H       1  UNL1        0.0477
     48 H          -8.5940    1.5770   -0.5817 H       1  UNL1        0.0398
     49 H         -10.6249    2.0627    0.5069 H       1  UNL1        0.0330
     50 H         -10.1381    1.0937    1.9793 H       1  UNL1        0.0330
     51 H          -7.3925    3.3256    0.4295 H       1  UNL1        0.0330
     52 H          -7.0185    2.3073    1.9092 H       1  UNL1        0.0330
     53 H          -5.1903   -1.3159    1.2794 H       1  UNL1        0.0477
     54 H          -6.4756   -2.4287    0.5736 H       1  UNL1        0.0477
     55 H          -1.0692   -2.6384   -2.6101 H       1  UNL1        0.0630
     56 H           1.3398   -2.6864   -2.6263 H       1  UNL1        0.0626
     57 H           5.3328   -0.5039   -2.2440 H       1  UNL1        0.0624
     58 H           7.7886   -0.5615   -2.2108 H       1  UNL1        0.0637
@<TRIPOS>BOND
     1     1     2    1
     2     2     3    2
     3     2     4    2
     4     2     5    1
     5     5     6    1
     6     6     7   ar
     7     7     8   ar
     8     8     9   ar
     9     9    10    1
    10    10    11   ar
    11    11    12   ar
    12    12    13   ar
    13    13    14   ar
    14    14    15   ar
    15    15    16    1
    16    16    17    3
    17    17    18    1
    18    18    19    1
    19    19    20    1
    20    20    21   am
    21    21    22    2
    22    21    23    1
    23    23    24    1
    24    24    25    1
    25    25    26    1
    26    25    27    1
    27    25    28    1
    28    20    29    1
    29    15    30   ar
    30    30    31   ar
    31    31    32   ar
    32    32    33   ar
    33    33    34    2
    34     9    35   ar
    35    35    36   ar
    36    36     6   ar
    37    33    10   ar
    38    32    13   ar
    39    29    18    1
    40    28    23    1
    41     1    37    1
    42     1    38    1
    43     1    39    1
    44     5    40    1
    45     7    41    1
    46     8    42    1
    47    11    43    1
    48    14    44    1
    49    18    45    1
    50    19    46    1
    51    19    47    1
    52    23    48    1
    53    24    49    1
    54    24    50    1
    55    28    51    1
    56    28    52    1
    57    29    53    1
    58    29    54    1
    59    30    55    1
    60    31    56    1
    61    35    57    1
    62    36    58    1
