@<TRIPOS>MOLECULE
*****
 89 92 0 0 0
SMALL
GASTEIGER

@<TRIPOS>ATOM
      1 C         -11.7903    1.5346   -1.2346 C.3     1  UNL1       -0.0625
      2 C         -10.5492    2.3692   -1.3676 C.3     1  UNL1       -0.0430
      3 C         -10.7234    3.6849   -0.6054 C.3     1  UNL1       -0.0625
      4 C          -9.2824    1.7395   -0.9303 C.3     1  UNL1       -0.0047
      5 C          -9.2441    1.3352    0.5185 C.3     1  UNL1        0.1904
      6 N         -10.2547    0.3741    0.8021 N.pl3   1  UNL1       -0.1008
      7 C         -10.2928   -0.7967    0.2767 C.cat   1  UNL1        0.3772
      8 N         -11.2312   -1.8496    0.4651 N.pl3   1  UNL1       -0.2892
      9 N          -9.3536   -1.2947   -0.6575 N.pl3   1  UNL1       -0.2892
     10 C          -7.8809    0.8835    0.9220 C.2     1  UNL1        0.2541
     11 O          -7.0913    1.7901    0.5393 O.2     1  UNL1       -0.2719
     12 N          -7.4335   -0.2678    1.5842 N.am    1  UNL1       -0.3038
     13 C          -6.0214   -0.3790    1.8117 C.3     1  UNL1        0.0884
     14 C          -5.2485   -0.3672    0.5357 C.2     1  UNL1        0.2327
     15 O          -5.6076   -0.2787   -0.6666 O.2     1  UNL1       -0.2739
     16 N          -3.8303   -0.4695    0.5693 N.am    1  UNL1       -0.3002
     17 C          -3.1659   -0.4484   -0.6867 C.3     1  UNL1        0.0153
     18 C          -1.9100    0.3532   -0.6329 C.3     1  UNL1       -0.0288
     19 C          -1.0618    0.2067    0.5727 C.3     1  UNL1        0.0039
     20 C          -1.6903   -0.3528    1.7979 C.3     1  UNL1       -0.0288
     21 C          -3.1438   -0.5860    1.8050 C.3     1  UNL1        0.0153
     22 C           0.2939   -0.3501    0.2788 C.ar    1  UNL1        0.0427
     23 C           1.5171    0.2755    0.4233 C.ar    1  UNL1       -0.0128
     24 C           2.5491   -0.5338    0.0556 C.ar    1  UNL1        0.0944
     25 N           1.9348   -1.6561   -0.3129 N.ar    1  UNL1       -0.1712
     26 N           0.6224   -1.5642   -0.1885 N.ar    1  UNL1       -0.2705
     27 C          -0.2832   -2.6333   -0.5195 C.3     1  UNL1        0.0305
     28 C           3.9930   -0.4336   -0.0089 C.ar    1  UNL1        0.0221
     29 C           4.7461    0.6578    0.3446 C.ar    1  UNL1        0.0720
     30 CL          3.9616    2.0992    0.9376 Cl      1  UNL1       -0.0812
     31 C           6.1197    0.7284    0.2740 C.ar    1  UNL1        0.1014
     32 CL          7.0109    2.1554    0.7430 Cl      1  UNL1       -0.0782
     33 C           6.8183   -0.3581   -0.1802 C.ar    1  UNL1        0.1407
     34 O           8.2010   -0.3270   -0.2662 O.3     1  UNL1       -0.4859
     35 C           8.9497   -1.4381   -0.7337 C.3     1  UNL1        0.1147
     36 C          10.4103   -1.0738   -0.7008 C.ar    1  UNL1       -0.0103
     37 C          11.0341   -1.3829    0.4927 C.ar    1  UNL1       -0.0536
     38 C          12.3866   -1.1028    0.6689 C.ar    1  UNL1       -0.0401
     39 C          13.0268   -0.5149   -0.4032 C.ar    1  UNL1        0.0334
     40 N          14.4228   -0.2302   -0.2099 N.am    1  UNL1       -0.2857
     41 C          14.5076    1.0843    0.3322 C.2     1  UNL1        0.2141
     42 C          15.6742    1.9112    0.7344 C.3     1  UNL1        0.0125
     43 O          13.4564    1.7707    0.5550 O.2     1  UNL1       -0.2758
     44 C          12.4156   -0.2006   -1.6015 C.ar    1  UNL1       -0.0401
     45 C          11.0672   -0.4858   -1.7619 C.ar    1  UNL1       -0.0536
     46 C           6.1175   -1.4652   -0.5433 C.ar    1  UNL1       -0.0178
     47 C           4.7395   -1.5009   -0.4593 C.ar    1  UNL1       -0.0476
     48 H         -12.6114    2.1019   -1.7494 H       1  UNL1        0.0232
     49 H         -11.7123    0.5829   -1.7798 H       1  UNL1        0.0232
     50 H         -12.0961    1.4234   -0.1781 H       1  UNL1        0.0232
     51 H         -10.4040    2.6762   -2.4408 H       1  UNL1        0.0297
     52 H         -11.3804    4.3456   -1.2241 H       1  UNL1        0.0232
     53 H          -9.7218    4.1517   -0.4936 H       1  UNL1        0.0232
     54 H         -11.1651    3.5075    0.3824 H       1  UNL1        0.0232
     55 H          -9.0644    0.8701   -1.5910 H       1  UNL1        0.0307
     56 H          -8.4510    2.4578   -1.1263 H       1  UNL1        0.0307
     57 H          -9.4665    2.2478    1.1691 H       1  UNL1        0.0828
     58 H         -11.2654   -2.7029    1.0409 H       1  UNL1        0.2546
     59 H         -12.1412   -1.9052   -0.0259 H       1  UNL1        0.2546
     60 H          -8.6968   -1.5050   -1.4332 H       1  UNL1        0.2546
     61 H          -8.8196   -2.1871   -0.6491 H       1  UNL1        0.2546
     62 H          -8.1991   -0.9007    1.8314 H       1  UNL1        0.1493
     63 H          -5.8289   -1.3173    2.3657 H       1  UNL1        0.0558
     64 H          -5.7208    0.4847    2.4697 H       1  UNL1        0.0558
     65 H          -2.9194   -1.5101   -0.9399 H       1  UNL1        0.0465
     66 H          -3.7896   -0.0542   -1.5157 H       1  UNL1        0.0465
     67 H          -1.2878    0.0112   -1.5123 H       1  UNL1        0.0287
     68 H          -2.1850    1.3947   -0.8995 H       1  UNL1        0.0287
     69 H          -0.8244    1.2769    0.8660 H       1  UNL1        0.0365
     70 H          -1.1474   -1.3148    2.0440 H       1  UNL1        0.0287
     71 H          -1.4732    0.2499    2.7328 H       1  UNL1        0.0287
     72 H          -3.7088    0.0734    2.5299 H       1  UNL1        0.0465
     73 H          -3.3753   -1.6166    2.2076 H       1  UNL1        0.0465
     74 H           1.6599    1.2807    0.7815 H       1  UNL1        0.0657
     75 H          -0.7330   -2.4263   -1.5375 H       1  UNL1        0.0473
     76 H           0.2542   -3.5991   -0.6924 H       1  UNL1        0.0473
     77 H          -1.1537   -2.7372    0.1239 H       1  UNL1        0.0473
     78 H           8.7498   -2.3677   -0.1727 H       1  UNL1        0.0748
     79 H           8.7098   -1.5237   -1.8148 H       1  UNL1        0.0748
     80 H          10.5344   -1.8438    1.3341 H       1  UNL1        0.0622
     81 H          12.8788   -1.3355    1.5820 H       1  UNL1        0.0636
     82 H          15.3799   -0.6366   -0.3233 H       1  UNL1        0.1548
     83 H          15.5750    2.3317    1.7581 H       1  UNL1        0.0323
     84 H          16.6110    1.3731    0.5631 H       1  UNL1        0.0323
     85 H          15.6629    2.7932    0.0432 H       1  UNL1        0.0323
     86 H          12.9620    0.2644   -2.4228 H       1  UNL1        0.0636
     87 H          10.5123   -0.2755   -2.6593 H       1  UNL1        0.0622
     88 H           6.6754   -2.3122   -0.8984 H       1  UNL1        0.0655
     89 H           4.2908   -2.4392   -0.7772 H       1  UNL1        0.0626
@<TRIPOS>BOND
     1     1     2    1
     2     2     3    1
     3     2     4    1
     4     4     5    1
     5     5     6    1
     6     6     7    2
     7     7     8    1
     8     7     9    1
     9     5    10    1
    10    10    11    2
    11    10    12   am
    12    12    13    1
    13    13    14    1
    14    14    15    2
    15    14    16   am
    16    16    17    1
    17    17    18    1
    18    18    19    1
    19    19    20    1
    20    20    21    1
    21    19    22    1
    22    22    23   ar
    23    23    24   ar
    24    24    25   ar
    25    25    26   ar
    26    26    27    1
    27    24    28    1
    28    28    29   ar
    29    29    30    1
    30    29    31   ar
    31    31    32    1
    32    31    33   ar
    33    33    34    1
    34    34    35    1
    35    35    36    1
    36    36    37   ar
    37    37    38   ar
    38    38    39   ar
    39    39    40    1
    40    40    41   am
    41    41    42    1
    42    41    43    2
    43    39    44   ar
    44    44    45   ar
    45    33    46   ar
    46    46    47   ar
    47    21    16    1
    48    26    22   ar
    49    47    28   ar
    50    45    36   ar
    51     1    48    1
    52     1    49    1
    53     1    50    1
    54     2    51    1
    55     3    52    1
    56     3    53    1
    57     3    54    1
    58     4    55    1
    59     4    56    1
    60     5    57    1
    61     8    58    1
    62     8    59    1
    63     9    60    1
    64     9    61    1
    65    12    62    1
    66    13    63    1
    67    13    64    1
    68    17    65    1
    69    17    66    1
    70    18    67    1
    71    18    68    1
    72    19    69    1
    73    20    70    1
    74    20    71    1
    75    21    72    1
    76    21    73    1
    77    23    74    1
    78    27    75    1
    79    27    76    1
    80    27    77    1
    81    35    78    1
    82    35    79    1
    83    37    80    1
    84    38    81    1
    85    40    82    1
    86    42    83    1
    87    42    84    1
    88    42    85    1
    89    44    86    1
    90    45    87    1
    91    46    88    1
    92    47    89    1
