@<TRIPOS>MOLECULE
*****
 53 57 0 0 0
SMALL
GASTEIGER

@<TRIPOS>ATOM
      1 C          -5.5991    3.4484   -2.2412 C.3     1  UNL1        0.0004
      2 N          -5.0449    2.4373   -1.3458 N.am    1  UNL1       -0.3144
      3 C          -3.6635    2.3895   -1.0550 C.2     1  UNL1        0.2460
      4 O          -2.9054    3.2312   -1.5695 O.2     1  UNL1       -0.2701
      5 C          -3.1679    1.3576   -0.1640 C.ar    1  UNL1        0.0666
      6 C          -3.8843    0.5607    0.7051 C.ar    1  UNL1        0.0175
      7 N          -3.0333   -0.2647    1.3253 N.ar    1  UNL1       -0.3503
      8 C          -3.4943   -1.2352    2.3254 C.3     1  UNL1        0.0117
      9 C          -1.8078   -0.0363    0.8961 C.ar    1  UNL1        0.0569
     10 C          -1.8486    0.9558   -0.0189 C.ar    1  UNL1        0.0722
     11 C          -0.4654    1.2086   -0.4395 C.2     1  UNL1        0.2542
     12 O          -0.2138    2.0898   -1.2997 O.2     1  UNL1       -0.2695
     13 N           0.4065    0.3543    0.2452 N.am    1  UNL1       -0.2530
     14 C           1.8251    0.3549    0.2074 C.ar    1  UNL1        0.0545
     15 C           2.5919   -0.6034    0.8725 C.ar    1  UNL1       -0.0324
     16 C           3.9723   -0.5962    0.8525 C.ar    1  UNL1       -0.0041
     17 C           4.8138   -1.6023    1.5449 C.3     1  UNL1       -0.0361
     18 C           4.6107    0.4017    0.1450 C.ar    1  UNL1        0.1641
     19 N           5.9030    0.6837   -0.0612 N.ar    1  UNL1       -0.1292
     20 N           5.9881    1.7821   -0.8291 N.ar    1  UNL1       -0.1340
     21 C           4.7460    2.2055   -1.1168 C.ar    1  UNL1        0.1347
     22 C           4.4456    3.4000   -1.9404 C.3     1  UNL1       -0.0041
     23 N           3.9037    1.3399   -0.5064 N.ar    1  UNL1       -0.2846
     24 C           2.5594    1.3108   -0.4721 C.ar    1  UNL1        0.0344
     25 C          -0.4093   -0.5236    1.0368 C.3     1  UNL1        0.0973
     26 C          -0.3710   -1.9482    0.5965 C.ar    1  UNL1       -0.0208
     27 C          -0.2686   -2.9689    1.5121 C.ar    1  UNL1       -0.0550
     28 C          -0.2463   -4.3025    1.1377 C.ar    1  UNL1       -0.0431
     29 C          -0.3274   -4.6533   -0.1974 C.ar    1  UNL1        0.0410
     30 CL         -0.3044   -6.3415   -0.7049 Cl      1  UNL1       -0.0835
     31 C          -0.4304   -3.6319   -1.1337 C.ar    1  UNL1       -0.0431
     32 C          -0.4515   -2.3117   -0.7410 C.ar    1  UNL1       -0.0550
     33 H          -6.4734    3.9631   -1.7992 H       1  UNL1        0.0426
     34 H          -4.8110    4.1584   -2.5589 H       1  UNL1        0.0426
     35 H          -5.9846    2.8740   -3.1203 H       1  UNL1        0.0426
     36 H          -5.7272    1.7517   -0.9342 H       1  UNL1        0.1487
     37 H          -4.9525    0.6313    0.8257 H       1  UNL1        0.0817
     38 H          -4.2507   -1.9234    1.9324 H       1  UNL1        0.0456
     39 H          -2.6240   -1.7741    2.7154 H       1  UNL1        0.0456
     40 H          -3.9517   -0.7036    3.1960 H       1  UNL1        0.0456
     41 H           2.1007   -1.3722    1.4220 H       1  UNL1        0.0640
     42 H           5.2614   -2.3043    0.8044 H       1  UNL1        0.0279
     43 H           4.2421   -2.2255    2.2616 H       1  UNL1        0.0279
     44 H           5.6164   -1.0941    2.1487 H       1  UNL1        0.0279
     45 H           5.2454    3.5885   -2.6926 H       1  UNL1        0.0308
     46 H           3.4351    3.3697   -2.3665 H       1  UNL1        0.0308
     47 H           4.4879    4.3033   -1.2584 H       1  UNL1        0.0308
     48 H           2.0315    2.0784   -1.0020 H       1  UNL1        0.0833
     49 H          -0.0795   -0.4937    2.0911 H       1  UNL1        0.0619
     50 H          -0.2019   -2.7288    2.5686 H       1  UNL1        0.0621
     51 H          -0.1667   -5.1089    1.8541 H       1  UNL1        0.0632
     52 H          -0.4930   -3.9529   -2.1674 H       1  UNL1        0.0632
     53 H          -0.5329   -1.5291   -1.4866 H       1  UNL1        0.0621
@<TRIPOS>BOND
     1     1     2    1
     2     2     3   am
     3     3     4    2
     4     3     5    1
     5     5     6   ar
     6     6     7   ar
     7     7     8    1
     8     7     9   ar
     9     9    10   ar
    10    10    11    1
    11    11    12    2
    12    11    13   am
    13    13    14    1
    14    14    15   ar
    15    15    16   ar
    16    16    17    1
    17    16    18   ar
    18    18    19   ar
    19    19    20   ar
    20    20    21   ar
    21    21    22    1
    22    21    23   ar
    23    23    24   ar
    24    13    25    1
    25    25    26    1
    26    26    27   ar
    27    27    28   ar
    28    28    29   ar
    29    29    30    1
    30    29    31   ar
    31    31    32   ar
    32    10     5   ar
    33    24    14   ar
    34    32    26   ar
    35    25     9    1
    36    23    18   ar
    37     1    33    1
    38     1    34    1
    39     1    35    1
    40     2    36    1
    41     6    37    1
    42     8    38    1
    43     8    39    1
    44     8    40    1
    45    15    41    1
    46    17    42    1
    47    17    43    1
    48    17    44    1
    49    22    45    1
    50    22    46    1
    51    22    47    1
    52    24    48    1
    53    25    49    1
    54    27    50    1
    55    28    51    1
    56    31    52    1
    57    32    53    1
