
     RDKit          3D

 53 57  0  0  0  0  0  0  0  0999 V2000
   -5.5991    3.4484   -2.2412 C   0  0  0  0  0  0  0  0  0  0  0  0
   -5.0449    2.4373   -1.3458 N   0  0  0  0  0  0  0  0  0  0  0  0
   -3.6635    2.3895   -1.0550 C   0  0  0  0  0  0  0  0  0  0  0  0
   -2.9054    3.2312   -1.5695 O   0  0  0  0  0  0  0  0  0  0  0  0
   -3.1679    1.3576   -0.1640 C   0  0  0  0  0  0  0  0  0  0  0  0
   -3.8843    0.5607    0.7051 C   0  0  0  0  0  0  0  0  0  0  0  0
   -3.0333   -0.2647    1.3253 N   0  0  0  0  0  0  0  0  0  0  0  0
   -3.4943   -1.2352    2.3254 C   0  0  0  0  0  0  0  0  0  0  0  0
   -1.8078   -0.0363    0.8961 C   0  0  0  0  0  0  0  0  0  0  0  0
   -1.8486    0.9558   -0.0189 C   0  0  0  0  0  0  0  0  0  0  0  0
   -0.4654    1.2086   -0.4395 C   0  0  0  0  0  0  0  0  0  0  0  0
   -0.2138    2.0898   -1.2997 O   0  0  0  0  0  0  0  0  0  0  0  0
    0.4065    0.3543    0.2452 N   0  0  0  0  0  0  0  0  0  0  0  0
    1.8251    0.3549    0.2074 C   0  0  0  0  0  0  0  0  0  0  0  0
    2.5919   -0.6034    0.8725 C   0  0  0  0  0  0  0  0  0  0  0  0
    3.9723   -0.5962    0.8525 C   0  0  0  0  0  0  0  0  0  0  0  0
    4.8138   -1.6023    1.5449 C   0  0  0  0  0  0  0  0  0  0  0  0
    4.6107    0.4017    0.1450 C   0  0  0  0  0  0  0  0  0  0  0  0
    5.9030    0.6837   -0.0612 N   0  0  0  0  0  0  0  0  0  0  0  0
    5.9881    1.7821   -0.8291 N   0  0  0  0  0  0  0  0  0  0  0  0
    4.7460    2.2055   -1.1168 C   0  0  0  0  0  0  0  0  0  0  0  0
    4.4456    3.4000   -1.9404 C   0  0  0  0  0  0  0  0  0  0  0  0
    3.9037    1.3399   -0.5064 N   0  0  0  0  0  0  0  0  0  0  0  0
    2.5594    1.3108   -0.4721 C   0  0  0  0  0  0  0  0  0  0  0  0
   -0.4093   -0.5236    1.0368 C   0  0  0  0  0  0  0  0  0  0  0  0
   -0.3710   -1.9482    0.5965 C   0  0  0  0  0  0  0  0  0  0  0  0
   -0.2686   -2.9689    1.5121 C   0  0  0  0  0  0  0  0  0  0  0  0
   -0.2463   -4.3025    1.1377 C   0  0  0  0  0  0  0  0  0  0  0  0
   -0.3274   -4.6533   -0.1974 C   0  0  0  0  0  0  0  0  0  0  0  0
   -0.3044   -6.3415   -0.7049 Cl  0  0  0  0  0  0  0  0  0  0  0  0
   -0.4304   -3.6319   -1.1337 C   0  0  0  0  0  0  0  0  0  0  0  0
   -0.4515   -2.3117   -0.7410 C   0  0  0  0  0  0  0  0  0  0  0  0
   -6.4734    3.9631   -1.7992 H   0  0  0  0  0  0  0  0  0  0  0  0
   -4.8110    4.1584   -2.5589 H   0  0  0  0  0  0  0  0  0  0  0  0
   -5.9846    2.8740   -3.1203 H   0  0  0  0  0  0  0  0  0  0  0  0
   -5.7272    1.7517   -0.9342 H   0  0  0  0  0  0  0  0  0  0  0  0
   -4.9525    0.6313    0.8257 H   0  0  0  0  0  0  0  0  0  0  0  0
   -4.2507   -1.9234    1.9324 H   0  0  0  0  0  0  0  0  0  0  0  0
   -2.6240   -1.7741    2.7154 H   0  0  0  0  0  0  0  0  0  0  0  0
   -3.9517   -0.7036    3.1960 H   0  0  0  0  0  0  0  0  0  0  0  0
    2.1007   -1.3722    1.4220 H   0  0  0  0  0  0  0  0  0  0  0  0
    5.2614   -2.3043    0.8044 H   0  0  0  0  0  0  0  0  0  0  0  0
    4.2421   -2.2255    2.2616 H   0  0  0  0  0  0  0  0  0  0  0  0
    5.6164   -1.0941    2.1487 H   0  0  0  0  0  0  0  0  0  0  0  0
    5.2454    3.5885   -2.6926 H   0  0  0  0  0  0  0  0  0  0  0  0
    3.4351    3.3697   -2.3665 H   0  0  0  0  0  0  0  0  0  0  0  0
    4.4879    4.3033   -1.2584 H   0  0  0  0  0  0  0  0  0  0  0  0
    2.0315    2.0784   -1.0020 H   0  0  0  0  0  0  0  0  0  0  0  0
   -0.0795   -0.4937    2.0911 H   0  0  0  0  0  0  0  0  0  0  0  0
   -0.2019   -2.7288    2.5686 H   0  0  0  0  0  0  0  0  0  0  0  0
   -0.1667   -5.1089    1.8541 H   0  0  0  0  0  0  0  0  0  0  0  0
   -0.4930   -3.9529   -2.1674 H   0  0  0  0  0  0  0  0  0  0  0  0
   -0.5329   -1.5291   -1.4866 H   0  0  0  0  0  0  0  0  0  0  0  0
  1  2  1  0
  2  3  1  0
  3  4  2  0
  3  5  1  0
  5  6  2  0
  6  7  1  0
  7  8  1  0
  7  9  1  0
  9 10  2  0
 10 11  1  0
 11 12  2  0
 11 13  1  0
 13 14  1  0
 14 15  1  0
 15 16  2  0
 16 17  1  0
 16 18  1  0
 18 19  2  0
 19 20  1  0
 20 21  2  0
 21 22  1  0
 21 23  1  0
 23 24  1  0
 13 25  1  0
 25 26  1  0
 26 27  2  0
 27 28  1  0
 28 29  2  0
 29 30  1  0
 29 31  1  0
 31 32  2  0
 10  5  1  0
 24 14  2  0
 32 26  1  0
 25  9  1  0
 23 18  1  0
  1 33  1  0
  1 34  1  0
  1 35  1  0
  2 36  1  0
  6 37  1  0
  8 38  1  0
  8 39  1  0
  8 40  1  0
 15 41  1  0
 17 42  1  0
 17 43  1  0
 17 44  1  0
 22 45  1  0
 22 46  1  0
 22 47  1  0
 24 48  1  0
 25 49  1  0
 27 50  1  0
 28 51  1  0
 31 52  1  0
 32 53  1  0
M  END
$$$$
