@<TRIPOS>MOLECULE
*****
 80 84 0 0 0
SMALL
GASTEIGER

@<TRIPOS>ATOM
      1 C           1.9404    3.7893   -3.6313 C.3     1  UNL1        0.0805
      2 O           1.5242    2.8683   -2.6613 O.3     1  UNL1       -0.4782
      3 C           2.4396    2.1468   -1.9248 C.ar    1  UNL1        0.2447
      4 N           3.7467    2.3180   -2.1272 N.ar    1  UNL1       -0.1777
      5 C           4.6956    1.6284   -1.4247 C.ar    1  UNL1        0.2215
      6 N           6.0645    1.8583   -1.6939 N.pl3   1  UNL1       -0.3133
      7 C           7.0615    1.1310   -0.9329 C.3     1  UNL1        0.0130
      8 C           6.9996    1.4355    0.5260 C.3     1  UNL1       -0.0246
      9 C           7.9901    0.7656    1.3948 C.3     1  UNL1        0.0005
     10 N           8.0466   -0.6228    1.4647 N.3     1  UNL1       -0.2979
     11 C           8.4968   -1.3791    0.3585 C.3     1  UNL1        0.0224
     12 C           9.4770   -2.4220    0.9332 C.3     1  UNL1        0.0604
     13 O           8.9993   -2.9815    2.0903 O.3     1  UNL1       -0.3772
     14 C           7.6325   -2.8038    2.2933 C.3     1  UNL1        0.0604
     15 C           7.2960   -1.3119    2.4457 C.3     1  UNL1        0.0224
     16 N           4.2372    0.7572   -0.5072 N.ar    1  UNL1       -0.1777
     17 C           2.9512    0.5241   -0.2407 C.ar    1  UNL1        0.2447
     18 O           2.4937   -0.3763    0.7074 O.3     1  UNL1       -0.4782
     19 C           3.4615   -1.0998    1.4459 C.3     1  UNL1        0.0805
     20 C           2.0299    1.2429   -0.9742 C.ar    1  UNL1        0.1584
     21 N           0.6404    1.0552   -0.7540 N.am    1  UNL1       -0.2705
     22 C          -0.0238    0.0671   -1.5269 C.2     1  UNL1        0.2839
     23 O           0.5881   -0.6216   -2.3777 O.2     1  UNL1       -0.2665
     24 C          -1.4523   -0.1732   -1.3473 C.ar    1  UNL1        0.1937
     25 C          -2.1980   -1.0927   -2.0350 C.ar    1  UNL1       -0.0074
     26 C          -3.4848   -0.9806   -1.5493 C.ar    1  UNL1        0.0227
     27 C          -3.4815    0.0018   -0.5833 C.ar    1  UNL1        0.2924
     28 O          -4.4006    0.5432    0.2172 O.3     1  UNL1       -0.4249
     29 C          -5.6984    0.4454    0.5062 C.ar    1  UNL1        0.1350
     30 C          -6.5788   -0.4271   -0.0732 C.ar    1  UNL1       -0.0150
     31 C          -7.9115   -0.4396    0.3076 C.ar    1  UNL1       -0.0350
     32 C          -8.4221    0.3947    1.2596 C.ar    1  UNL1       -0.0432
     33 C          -7.5532    1.2776    1.8527 C.ar    1  UNL1       -0.0519
     34 C          -6.2346    1.3091    1.4947 C.ar    1  UNL1       -0.0078
     35 C          -5.3008    2.2666    2.1396 C.3     1  UNL1       -0.0362
     36 C          -9.8919    0.1378    1.4356 C.3     1  UNL1       -0.0266
     37 C         -10.2390   -0.4653    0.0638 C.3     1  UNL1       -0.0399
     38 C          -9.0278   -1.3004   -0.1794 C.3     1  UNL1       -0.0092
     39 C          -8.8201   -1.6132   -1.6456 C.3     1  UNL1       -0.0558
     40 C          -9.0918   -2.5910    0.5853 C.3     1  UNL1       -0.0558
     41 O          -2.2017    0.4462   -0.5191 O.2     1  UNL1       -0.4199
     42 H           1.1270    4.5052   -3.9042 H       1  UNL1        0.0660
     43 H           2.2020    3.1892   -4.5450 H       1  UNL1        0.0660
     44 H           2.8550    4.3569   -3.3581 H       1  UNL1        0.0660
     45 H           6.3158    2.5446   -2.4326 H       1  UNL1        0.1489
     46 H           8.0447    1.3666   -1.3879 H       1  UNL1        0.0462
     47 H           6.9327    0.0186   -1.1187 H       1  UNL1        0.0462
     48 H           7.2156    2.5479    0.6084 H       1  UNL1        0.0293
     49 H           5.9824    1.3449    0.9516 H       1  UNL1        0.0293
     50 H           7.8043    1.1556    2.4442 H       1  UNL1        0.0427
     51 H           9.0090    1.1531    1.1558 H       1  UNL1        0.0427
     52 H           7.7366   -1.9956   -0.1612 H       1  UNL1        0.0449
     53 H           9.0436   -0.7073   -0.3366 H       1  UNL1        0.0449
     54 H           9.8141   -3.1280    0.1634 H       1  UNL1        0.0572
     55 H          10.3813   -1.8181    1.2118 H       1  UNL1        0.0572
     56 H           7.3606   -3.3148    3.2228 H       1  UNL1        0.0572
     57 H           7.0922   -3.2040    1.3905 H       1  UNL1        0.0572
     58 H           6.2128   -1.2200    2.3748 H       1  UNL1        0.0449
     59 H           7.6898   -1.0298    3.4529 H       1  UNL1        0.0449
     60 H           3.8711   -0.4658    2.2867 H       1  UNL1        0.0660
     61 H           4.3320   -1.4095    0.8493 H       1  UNL1        0.0660
     62 H           3.0258   -1.9864    1.9504 H       1  UNL1        0.0660
     63 H           0.0952    1.6192   -0.0437 H       1  UNL1        0.1555
     64 H          -1.8229   -1.7508   -2.7933 H       1  UNL1        0.0658
     65 H          -4.3040   -1.5713   -1.8924 H       1  UNL1        0.0689
     66 H          -6.2294   -1.1207   -0.8420 H       1  UNL1        0.0657
     67 H          -7.9348    1.9608    2.6218 H       1  UNL1        0.0624
     68 H          -5.0132    3.1010    1.4690 H       1  UNL1        0.0279
     69 H          -5.7105    2.6337    3.1028 H       1  UNL1        0.0279
     70 H          -4.3378    1.7491    2.3960 H       1  UNL1        0.0279
     71 H         -10.1032   -0.6050    2.2050 H       1  UNL1        0.0314
     72 H         -10.4101    1.0794    1.6165 H       1  UNL1        0.0314
     73 H         -11.1789   -1.0423    0.1052 H       1  UNL1        0.0277
     74 H         -10.2620    0.3590   -0.6795 H       1  UNL1        0.0277
     75 H          -7.9047   -2.2330   -1.7127 H       1  UNL1        0.0238
     76 H          -9.6539   -2.2725   -1.9709 H       1  UNL1        0.0238
     77 H          -8.6845   -0.7168   -2.2574 H       1  UNL1        0.0238
     78 H          -8.0947   -3.0864    0.6359 H       1  UNL1        0.0238
     79 H          -9.4979   -2.4580    1.6088 H       1  UNL1        0.0238
     80 H          -9.8006   -3.2572    0.0529 H       1  UNL1        0.0238
@<TRIPOS>BOND
     1     1     2    1
     2     2     3    1
     3     3     4   ar
     4     4     5   ar
     5     5     6    1
     6     6     7    1
     7     7     8    1
     8     8     9    1
     9     9    10    1
    10    10    11    1
    11    11    12    1
    12    12    13    1
    13    13    14    1
    14    14    15    1
    15     5    16   ar
    16    16    17   ar
    17    17    18    1
    18    18    19    1
    19    17    20   ar
    20    20    21    1
    21    21    22   am
    22    22    23    2
    23    22    24    1
    24    24    25   ar
    25    25    26   ar
    26    26    27   ar
    27    27    28    1
    28    28    29    1
    29    29    30   ar
    30    30    31   ar
    31    31    32   ar
    32    32    33   ar
    33    33    34   ar
    34    34    35    1
    35    32    36    1
    36    36    37    1
    37    37    38    1
    38    38    39    1
    39    38    40    1
    40    27    41   ar
    41    20     3   ar
    42    41    24   ar
    43    15    10    1
    44    34    29   ar
    45    38    31    1
    46     1    42    1
    47     1    43    1
    48     1    44    1
    49     6    45    1
    50     7    46    1
    51     7    47    1
    52     8    48    1
    53     8    49    1
    54     9    50    1
    55     9    51    1
    56    11    52    1
    57    11    53    1
    58    12    54    1
    59    12    55    1
    60    14    56    1
    61    14    57    1
    62    15    58    1
    63    15    59    1
    64    19    60    1
    65    19    61    1
    66    19    62    1
    67    21    63    1
    68    25    64    1
    69    26    65    1
    70    30    66    1
    71    33    67    1
    72    35    68    1
    73    35    69    1
    74    35    70    1
    75    36    71    1
    76    36    72    1
    77    37    73    1
    78    37    74    1
    79    39    75    1
    80    39    76    1
    81    39    77    1
    82    40    78    1
    83    40    79    1
    84    40    80    1
