
     RDKit          3D

 80 84  0  0  0  0  0  0  0  0999 V2000
    1.9404    3.7893   -3.6313 C   0  0  0  0  0  0  0  0  0  0  0  0
    1.5242    2.8683   -2.6613 O   0  0  0  0  0  0  0  0  0  0  0  0
    2.4396    2.1468   -1.9248 C   0  0  0  0  0  0  0  0  0  0  0  0
    3.7467    2.3180   -2.1272 N   0  0  0  0  0  0  0  0  0  0  0  0
    4.6956    1.6284   -1.4247 C   0  0  0  0  0  0  0  0  0  0  0  0
    6.0645    1.8583   -1.6939 N   0  0  0  0  0  0  0  0  0  0  0  0
    7.0615    1.1310   -0.9329 C   0  0  0  0  0  0  0  0  0  0  0  0
    6.9996    1.4355    0.5260 C   0  0  0  0  0  0  0  0  0  0  0  0
    7.9901    0.7656    1.3948 C   0  0  0  0  0  0  0  0  0  0  0  0
    8.0466   -0.6228    1.4647 N   0  0  0  0  0  0  0  0  0  0  0  0
    8.4968   -1.3791    0.3585 C   0  0  0  0  0  0  0  0  0  0  0  0
    9.4770   -2.4220    0.9332 C   0  0  0  0  0  0  0  0  0  0  0  0
    8.9993   -2.9815    2.0903 O   0  0  0  0  0  0  0  0  0  0  0  0
    7.6325   -2.8038    2.2933 C   0  0  0  0  0  0  0  0  0  0  0  0
    7.2960   -1.3119    2.4457 C   0  0  0  0  0  0  0  0  0  0  0  0
    4.2372    0.7572   -0.5072 N   0  0  0  0  0  0  0  0  0  0  0  0
    2.9512    0.5241   -0.2407 C   0  0  0  0  0  0  0  0  0  0  0  0
    2.4937   -0.3763    0.7074 O   0  0  0  0  0  0  0  0  0  0  0  0
    3.4615   -1.0998    1.4459 C   0  0  0  0  0  0  0  0  0  0  0  0
    2.0299    1.2429   -0.9742 C   0  0  0  0  0  0  0  0  0  0  0  0
    0.6404    1.0552   -0.7540 N   0  0  0  0  0  0  0  0  0  0  0  0
   -0.0238    0.0671   -1.5269 C   0  0  0  0  0  0  0  0  0  0  0  0
    0.5881   -0.6216   -2.3777 O   0  0  0  0  0  0  0  0  0  0  0  0
   -1.4523   -0.1732   -1.3473 C   0  0  0  0  0  0  0  0  0  0  0  0
   -2.1980   -1.0927   -2.0350 C   0  0  0  0  0  0  0  0  0  0  0  0
   -3.4848   -0.9806   -1.5493 C   0  0  0  0  0  0  0  0  0  0  0  0
   -3.4815    0.0018   -0.5833 C   0  0  0  0  0  0  0  0  0  0  0  0
   -4.4006    0.5432    0.2172 O   0  0  0  0  0  0  0  0  0  0  0  0
   -5.6984    0.4454    0.5062 C   0  0  0  0  0  0  0  0  0  0  0  0
   -6.5788   -0.4271   -0.0732 C   0  0  0  0  0  0  0  0  0  0  0  0
   -7.9115   -0.4396    0.3076 C   0  0  0  0  0  0  0  0  0  0  0  0
   -8.4221    0.3947    1.2596 C   0  0  0  0  0  0  0  0  0  0  0  0
   -7.5532    1.2776    1.8527 C   0  0  0  0  0  0  0  0  0  0  0  0
   -6.2346    1.3091    1.4947 C   0  0  0  0  0  0  0  0  0  0  0  0
   -5.3008    2.2666    2.1396 C   0  0  0  0  0  0  0  0  0  0  0  0
   -9.8919    0.1378    1.4356 C   0  0  0  0  0  0  0  0  0  0  0  0
  -10.2390   -0.4653    0.0638 C   0  0  0  0  0  0  0  0  0  0  0  0
   -9.0278   -1.3004   -0.1794 C   0  0  0  0  0  0  0  0  0  0  0  0
   -8.8201   -1.6132   -1.6456 C   0  0  0  0  0  0  0  0  0  0  0  0
   -9.0918   -2.5910    0.5853 C   0  0  0  0  0  0  0  0  0  0  0  0
   -2.2017    0.4462   -0.5191 O   0  0  0  0  0  0  0  0  0  0  0  0
    1.1270    4.5052   -3.9042 H   0  0  0  0  0  0  0  0  0  0  0  0
    2.2020    3.1892   -4.5450 H   0  0  0  0  0  0  0  0  0  0  0  0
    2.8550    4.3569   -3.3581 H   0  0  0  0  0  0  0  0  0  0  0  0
    6.3158    2.5446   -2.4326 H   0  0  0  0  0  0  0  0  0  0  0  0
    8.0447    1.3666   -1.3879 H   0  0  0  0  0  0  0  0  0  0  0  0
    6.9327    0.0186   -1.1187 H   0  0  0  0  0  0  0  0  0  0  0  0
    7.2156    2.5479    0.6084 H   0  0  0  0  0  0  0  0  0  0  0  0
    5.9824    1.3449    0.9516 H   0  0  0  0  0  0  0  0  0  0  0  0
    7.8043    1.1556    2.4442 H   0  0  0  0  0  0  0  0  0  0  0  0
    9.0090    1.1531    1.1558 H   0  0  0  0  0  0  0  0  0  0  0  0
    7.7366   -1.9956   -0.1612 H   0  0  0  0  0  0  0  0  0  0  0  0
    9.0436   -0.7073   -0.3366 H   0  0  0  0  0  0  0  0  0  0  0  0
    9.8141   -3.1280    0.1634 H   0  0  0  0  0  0  0  0  0  0  0  0
   10.3813   -1.8181    1.2118 H   0  0  0  0  0  0  0  0  0  0  0  0
    7.3606   -3.3148    3.2228 H   0  0  0  0  0  0  0  0  0  0  0  0
    7.0922   -3.2040    1.3905 H   0  0  0  0  0  0  0  0  0  0  0  0
    6.2128   -1.2200    2.3748 H   0  0  0  0  0  0  0  0  0  0  0  0
    7.6898   -1.0298    3.4529 H   0  0  0  0  0  0  0  0  0  0  0  0
    3.8711   -0.4658    2.2867 H   0  0  0  0  0  0  0  0  0  0  0  0
    4.3320   -1.4095    0.8493 H   0  0  0  0  0  0  0  0  0  0  0  0
    3.0258   -1.9864    1.9504 H   0  0  0  0  0  0  0  0  0  0  0  0
    0.0952    1.6192   -0.0437 H   0  0  0  0  0  0  0  0  0  0  0  0
   -1.8229   -1.7508   -2.7933 H   0  0  0  0  0  0  0  0  0  0  0  0
   -4.3040   -1.5713   -1.8924 H   0  0  0  0  0  0  0  0  0  0  0  0
   -6.2294   -1.1207   -0.8420 H   0  0  0  0  0  0  0  0  0  0  0  0
   -7.9348    1.9608    2.6218 H   0  0  0  0  0  0  0  0  0  0  0  0
   -5.0132    3.1010    1.4690 H   0  0  0  0  0  0  0  0  0  0  0  0
   -5.7105    2.6337    3.1028 H   0  0  0  0  0  0  0  0  0  0  0  0
   -4.3378    1.7491    2.3960 H   0  0  0  0  0  0  0  0  0  0  0  0
  -10.1032   -0.6050    2.2050 H   0  0  0  0  0  0  0  0  0  0  0  0
  -10.4101    1.0794    1.6165 H   0  0  0  0  0  0  0  0  0  0  0  0
  -11.1789   -1.0423    0.1052 H   0  0  0  0  0  0  0  0  0  0  0  0
  -10.2620    0.3590   -0.6795 H   0  0  0  0  0  0  0  0  0  0  0  0
   -7.9047   -2.2330   -1.7127 H   0  0  0  0  0  0  0  0  0  0  0  0
   -9.6539   -2.2725   -1.9709 H   0  0  0  0  0  0  0  0  0  0  0  0
   -8.6845   -0.7168   -2.2574 H   0  0  0  0  0  0  0  0  0  0  0  0
   -8.0947   -3.0864    0.6359 H   0  0  0  0  0  0  0  0  0  0  0  0
   -9.4979   -2.4580    1.6088 H   0  0  0  0  0  0  0  0  0  0  0  0
   -9.8006   -3.2572    0.0529 H   0  0  0  0  0  0  0  0  0  0  0  0
  1  2  1  0
  2  3  1  0
  3  4  2  0
  4  5  1  0
  5  6  1  0
  6  7  1  0
  7  8  1  0
  8  9  1  0
  9 10  1  0
 10 11  1  0
 11 12  1  0
 12 13  1  0
 13 14  1  0
 14 15  1  0
  5 16  2  0
 16 17  1  0
 17 18  1  0
 18 19  1  0
 17 20  2  0
 20 21  1  0
 21 22  1  0
 22 23  2  0
 22 24  1  0
 24 25  2  0
 25 26  1  0
 26 27  2  0
 27 28  1  0
 28 29  1  0
 29 30  2  0
 30 31  1  0
 31 32  2  0
 32 33  1  0
 33 34  2  0
 34 35  1  0
 32 36  1  0
 36 37  1  0
 37 38  1  0
 38 39  1  0
 38 40  1  0
 27 41  1  0
 20  3  1  0
 41 24  1  0
 15 10  1  0
 34 29  1  0
 38 31  1  0
  1 42  1  0
  1 43  1  0
  1 44  1  0
  6 45  1  0
  7 46  1  0
  7 47  1  0
  8 48  1  0
  8 49  1  0
  9 50  1  0
  9 51  1  0
 11 52  1  0
 11 53  1  0
 12 54  1  0
 12 55  1  0
 14 56  1  0
 14 57  1  0
 15 58  1  0
 15 59  1  0
 19 60  1  0
 19 61  1  0
 19 62  1  0
 21 63  1  0
 25 64  1  0
 26 65  1  0
 30 66  1  0
 33 67  1  0
 35 68  1  0
 35 69  1  0
 35 70  1  0
 36 71  1  0
 36 72  1  0
 37 73  1  0
 37 74  1  0
 39 75  1  0
 39 76  1  0
 39 77  1  0
 40 78  1  0
 40 79  1  0
 40 80  1  0
M  END
$$$$
