@<TRIPOS>MOLECULE
*****
 71 74 0 0 0
SMALL
GASTEIGER

@<TRIPOS>ATOM
      1 C          -7.8977    1.6033   -0.2855 C.3     1  UNL1       -0.0649
      2 C          -6.9419    1.3875    0.8419 C.3     1  UNL1       -0.0504
      3 C          -6.8442   -0.0637    1.2635 C.3     1  UNL1       -0.0068
      4 C          -6.3798   -0.8758    0.1104 C.ar    1  UNL1        0.0891
      5 N          -7.1080   -1.6900   -0.6744 N.ar    1  UNL1       -0.1736
      6 N          -6.3656   -2.2557   -1.6073 N.ar    1  UNL1       -0.2598
      7 C          -6.8102   -3.2008   -2.6431 C.3     1  UNL1        0.0311
      8 C          -5.1152   -1.7924   -1.4203 C.ar    1  UNL1        0.1513
      9 C          -3.9250   -2.0216   -2.0752 C.ar    1  UNL1        0.2775
     10 O          -3.9567   -2.8146   -3.0496 O.2     1  UNL1       -0.2655
     11 N          -2.7965   -1.4111   -1.6687 N.ar    1  UNL1       -0.3051
     12 C          -2.7407   -0.5642   -0.6348 C.ar    1  UNL1        0.1452
     13 C          -1.5342    0.1105   -0.1752 C.ar    1  UNL1        0.0608
     14 C          -0.3269   -0.0736   -0.7789 C.ar    1  UNL1       -0.0212
     15 C           0.8270    0.5833   -0.3287 C.ar    1  UNL1        0.1064
     16 S           2.3804    0.3505   -1.1018 S.O2    1  UNL1        0.0610
     17 O           3.1611    1.6536   -1.0112 O.2     1  UNL1       -0.1528
     18 O           2.1287    0.1057   -2.5480 O.2     1  UNL1       -0.1528
     19 N           3.2762   -0.9234   -0.4046 N.3     1  UNL1       -0.1741
     20 C           3.6073   -0.7415    0.9690 C.3     1  UNL1        0.0333
     21 C           5.0291   -1.0662    1.3088 C.3     1  UNL1        0.0134
     22 N           6.0103   -0.6419    0.3765 N.3     1  UNL1       -0.2993
     23 C           6.9195    0.3576    0.9013 C.3     1  UNL1        0.0073
     24 C           7.8988    0.7008   -0.2043 C.3     1  UNL1        0.0387
     25 C           8.6577   -0.5062   -0.6250 C.2     1  UNL1        0.2367
     26 O           8.4526   -1.6153   -0.0827 O.2     1  UNL1       -0.2737
     27 N           9.6361   -0.4362   -1.6529 N.am    1  UNL1       -0.1975
     28 O          10.3295   -1.5392   -2.0371 O.3     1  UNL1       -0.2952
     29 C           5.5550   -0.3570   -0.9407 C.3     1  UNL1        0.0134
     30 C           4.3784   -1.2540   -1.2473 C.3     1  UNL1        0.0333
     31 C           0.7720    1.4414    0.7467 C.ar    1  UNL1       -0.0319
     32 C          -0.4455    1.6362    1.3670 C.ar    1  UNL1       -0.0174
     33 C          -1.5724    0.9839    0.9141 C.ar    1  UNL1        0.1312
     34 O          -2.8063    1.1521    1.5075 O.3     1  UNL1       -0.4915
     35 C          -3.0757    1.9819    2.6082 C.3     1  UNL1        0.0868
     36 C          -2.7514    3.4007    2.2685 C.3     1  UNL1       -0.0307
     37 N          -3.9215   -0.3374    0.0146 N.ar    1  UNL1       -0.2254
     38 C          -5.0763   -0.9207   -0.3503 C.ar    1  UNL1        0.1192
     39 H          -7.5691    2.3980   -0.9914 H       1  UNL1        0.0230
     40 H          -8.9357    1.8190    0.0281 H       1  UNL1        0.0230
     41 H          -7.9369    0.6591   -0.8875 H       1  UNL1        0.0230
     42 H          -7.3246    1.9555    1.7301 H       1  UNL1        0.0266
     43 H          -5.9170    1.7800    0.6025 H       1  UNL1        0.0266
     44 H          -7.8902   -0.3920    1.4982 H       1  UNL1        0.0329
     45 H          -6.1679   -0.1419    2.1177 H       1  UNL1        0.0329
     46 H          -6.4302   -2.7599   -3.6077 H       1  UNL1        0.0473
     47 H          -7.9018   -3.1406   -2.6921 H       1  UNL1        0.0473
     48 H          -6.3943   -4.1990   -2.5078 H       1  UNL1        0.0473
     49 H          -1.9270   -1.6187   -2.1966 H       1  UNL1        0.1704
     50 H          -0.2148   -0.7437   -1.6398 H       1  UNL1        0.0645
     51 H           2.9787   -1.4850    1.5448 H       1  UNL1        0.0456
     52 H           3.3418    0.2405    1.3706 H       1  UNL1        0.0456
     53 H           5.2478   -0.5477    2.2882 H       1  UNL1        0.0440
     54 H           5.1880   -2.1547    1.5275 H       1  UNL1        0.0440
     55 H           7.4643   -0.0669    1.7558 H       1  UNL1        0.0431
     56 H           6.3971    1.2675    1.2327 H       1  UNL1        0.0431
     57 H           7.4088    1.1174   -1.0877 H       1  UNL1        0.0372
     58 H           8.6660    1.4292    0.1508 H       1  UNL1        0.0372
     59 H           9.8500    0.4595   -2.1408 H       1  UNL1        0.1822
     60 H          10.6165   -2.0409   -1.2139 H       1  UNL1        0.2414
     61 H           5.2826    0.7032   -1.1079 H       1  UNL1        0.0440
     62 H           6.4169   -0.5766   -1.6355 H       1  UNL1        0.0440
     63 H           4.0935   -1.1867   -2.3102 H       1  UNL1        0.0456
     64 H           4.6777   -2.3152   -1.0043 H       1  UNL1        0.0456
     65 H           1.6467    1.9707    1.1269 H       1  UNL1        0.0638
     66 H          -0.4660    2.3139    2.2149 H       1  UNL1        0.0655
     67 H          -2.5694    1.6267    3.5310 H       1  UNL1        0.0694
     68 H          -4.1711    1.8997    2.8230 H       1  UNL1        0.0694
     69 H          -2.2918    3.5354    1.2843 H       1  UNL1        0.0262
     70 H          -3.6908    4.0223    2.2393 H       1  UNL1        0.0262
     71 H          -2.1058    3.8253    3.0650 H       1  UNL1        0.0262
@<TRIPOS>BOND
     1     1     2    1
     2     2     3    1
     3     3     4    1
     4     4     5   ar
     5     5     6   ar
     6     6     7    1
     7     6     8   ar
     8     8     9   ar
     9     9    10    2
    10     9    11   ar
    11    11    12   ar
    12    12    13    1
    13    13    14   ar
    14    14    15   ar
    15    15    16    1
    16    16    17    2
    17    16    18    2
    18    16    19    1
    19    19    20    1
    20    20    21    1
    21    21    22    1
    22    22    23    1
    23    23    24    1
    24    24    25    1
    25    25    26    2
    26    25    27   am
    27    27    28    1
    28    22    29    1
    29    29    30    1
    30    15    31   ar
    31    31    32   ar
    32    32    33   ar
    33    33    34    1
    34    34    35    1
    35    35    36    1
    36    12    37   ar
    37    37    38   ar
    38    38     4   ar
    39    38     8   ar
    40    33    13   ar
    41    30    19    1
    42     1    39    1
    43     1    40    1
    44     1    41    1
    45     2    42    1
    46     2    43    1
    47     3    44    1
    48     3    45    1
    49     7    46    1
    50     7    47    1
    51     7    48    1
    52    11    49    1
    53    14    50    1
    54    20    51    1
    55    20    52    1
    56    21    53    1
    57    21    54    1
    58    23    55    1
    59    23    56    1
    60    24    57    1
    61    24    58    1
    62    27    59    1
    63    28    60    1
    64    29    61    1
    65    29    62    1
    66    30    63    1
    67    30    64    1
    68    31    65    1
    69    32    66    1
    70    35    67    1
    71    35    68    1
    72    36    69    1
    73    36    70    1
    74    36    71    1
