
     RDKit          3D

 71 74  0  0  0  0  0  0  0  0999 V2000
   -7.8977    1.6033   -0.2855 C   0  0  0  0  0  0  0  0  0  0  0  0
   -6.9419    1.3875    0.8419 C   0  0  0  0  0  0  0  0  0  0  0  0
   -6.8442   -0.0637    1.2635 C   0  0  0  0  0  0  0  0  0  0  0  0
   -6.3798   -0.8758    0.1104 C   0  0  0  0  0  0  0  0  0  0  0  0
   -7.1080   -1.6900   -0.6744 N   0  0  0  0  0  0  0  0  0  0  0  0
   -6.3656   -2.2557   -1.6073 N   0  0  0  0  0  0  0  0  0  0  0  0
   -6.8102   -3.2008   -2.6431 C   0  0  0  0  0  0  0  0  0  0  0  0
   -5.1152   -1.7924   -1.4203 C   0  0  0  0  0  0  0  0  0  0  0  0
   -3.9250   -2.0216   -2.0752 C   0  0  0  0  0  0  0  0  0  0  0  0
   -3.9567   -2.8146   -3.0496 O   0  0  0  0  0  0  0  0  0  0  0  0
   -2.7965   -1.4111   -1.6687 N   0  0  0  0  0  0  0  0  0  0  0  0
   -2.7407   -0.5642   -0.6348 C   0  0  0  0  0  0  0  0  0  0  0  0
   -1.5342    0.1105   -0.1752 C   0  0  0  0  0  0  0  0  0  0  0  0
   -0.3269   -0.0736   -0.7789 C   0  0  0  0  0  0  0  0  0  0  0  0
    0.8270    0.5833   -0.3287 C   0  0  0  0  0  0  0  0  0  0  0  0
    2.3804    0.3505   -1.1018 S   0  0  0  0  0  6  0  0  0  0  0  0
    3.1611    1.6536   -1.0112 O   0  0  0  0  0  0  0  0  0  0  0  0
    2.1287    0.1057   -2.5480 O   0  0  0  0  0  0  0  0  0  0  0  0
    3.2762   -0.9234   -0.4046 N   0  0  0  0  0  0  0  0  0  0  0  0
    3.6073   -0.7415    0.9690 C   0  0  0  0  0  0  0  0  0  0  0  0
    5.0291   -1.0662    1.3088 C   0  0  0  0  0  0  0  0  0  0  0  0
    6.0103   -0.6419    0.3765 N   0  0  0  0  0  0  0  0  0  0  0  0
    6.9195    0.3576    0.9013 C   0  0  0  0  0  0  0  0  0  0  0  0
    7.8988    0.7008   -0.2043 C   0  0  0  0  0  0  0  0  0  0  0  0
    8.6577   -0.5062   -0.6250 C   0  0  0  0  0  0  0  0  0  0  0  0
    8.4526   -1.6153   -0.0827 O   0  0  0  0  0  0  0  0  0  0  0  0
    9.6361   -0.4362   -1.6529 N   0  0  0  0  0  0  0  0  0  0  0  0
   10.3295   -1.5392   -2.0371 O   0  0  0  0  0  0  0  0  0  0  0  0
    5.5550   -0.3570   -0.9407 C   0  0  0  0  0  0  0  0  0  0  0  0
    4.3784   -1.2540   -1.2473 C   0  0  0  0  0  0  0  0  0  0  0  0
    0.7720    1.4414    0.7467 C   0  0  0  0  0  0  0  0  0  0  0  0
   -0.4455    1.6362    1.3670 C   0  0  0  0  0  0  0  0  0  0  0  0
   -1.5724    0.9839    0.9141 C   0  0  0  0  0  0  0  0  0  0  0  0
   -2.8063    1.1521    1.5075 O   0  0  0  0  0  0  0  0  0  0  0  0
   -3.0757    1.9819    2.6082 C   0  0  0  0  0  0  0  0  0  0  0  0
   -2.7514    3.4007    2.2685 C   0  0  0  0  0  0  0  0  0  0  0  0
   -3.9215   -0.3374    0.0146 N   0  0  0  0  0  0  0  0  0  0  0  0
   -5.0763   -0.9207   -0.3503 C   0  0  0  0  0  0  0  0  0  0  0  0
   -7.5691    2.3980   -0.9914 H   0  0  0  0  0  0  0  0  0  0  0  0
   -8.9357    1.8190    0.0281 H   0  0  0  0  0  0  0  0  0  0  0  0
   -7.9369    0.6591   -0.8875 H   0  0  0  0  0  0  0  0  0  0  0  0
   -7.3246    1.9555    1.7301 H   0  0  0  0  0  0  0  0  0  0  0  0
   -5.9170    1.7800    0.6025 H   0  0  0  0  0  0  0  0  0  0  0  0
   -7.8902   -0.3920    1.4982 H   0  0  0  0  0  0  0  0  0  0  0  0
   -6.1679   -0.1419    2.1177 H   0  0  0  0  0  0  0  0  0  0  0  0
   -6.4302   -2.7599   -3.6077 H   0  0  0  0  0  0  0  0  0  0  0  0
   -7.9018   -3.1406   -2.6921 H   0  0  0  0  0  0  0  0  0  0  0  0
   -6.3943   -4.1990   -2.5078 H   0  0  0  0  0  0  0  0  0  0  0  0
   -1.9270   -1.6187   -2.1966 H   0  0  0  0  0  0  0  0  0  0  0  0
   -0.2148   -0.7437   -1.6398 H   0  0  0  0  0  0  0  0  0  0  0  0
    2.9787   -1.4850    1.5448 H   0  0  0  0  0  0  0  0  0  0  0  0
    3.3418    0.2405    1.3706 H   0  0  0  0  0  0  0  0  0  0  0  0
    5.2478   -0.5477    2.2882 H   0  0  0  0  0  0  0  0  0  0  0  0
    5.1880   -2.1547    1.5275 H   0  0  0  0  0  0  0  0  0  0  0  0
    7.4643   -0.0669    1.7558 H   0  0  0  0  0  0  0  0  0  0  0  0
    6.3971    1.2675    1.2327 H   0  0  0  0  0  0  0  0  0  0  0  0
    7.4088    1.1174   -1.0877 H   0  0  0  0  0  0  0  0  0  0  0  0
    8.6660    1.4292    0.1508 H   0  0  0  0  0  0  0  0  0  0  0  0
    9.8500    0.4595   -2.1408 H   0  0  0  0  0  0  0  0  0  0  0  0
   10.6165   -2.0409   -1.2139 H   0  0  0  0  0  0  0  0  0  0  0  0
    5.2826    0.7032   -1.1079 H   0  0  0  0  0  0  0  0  0  0  0  0
    6.4169   -0.5766   -1.6355 H   0  0  0  0  0  0  0  0  0  0  0  0
    4.0935   -1.1867   -2.3102 H   0  0  0  0  0  0  0  0  0  0  0  0
    4.6777   -2.3152   -1.0043 H   0  0  0  0  0  0  0  0  0  0  0  0
    1.6467    1.9707    1.1269 H   0  0  0  0  0  0  0  0  0  0  0  0
   -0.4660    2.3139    2.2149 H   0  0  0  0  0  0  0  0  0  0  0  0
   -2.5694    1.6267    3.5310 H   0  0  0  0  0  0  0  0  0  0  0  0
   -4.1711    1.8997    2.8230 H   0  0  0  0  0  0  0  0  0  0  0  0
   -2.2918    3.5354    1.2843 H   0  0  0  0  0  0  0  0  0  0  0  0
   -3.6908    4.0223    2.2393 H   0  0  0  0  0  0  0  0  0  0  0  0
   -2.1058    3.8253    3.0650 H   0  0  0  0  0  0  0  0  0  0  0  0
  1  2  1  0
  2  3  1  0
  3  4  1  0
  4  5  2  0
  5  6  1  0
  6  7  1  0
  6  8  1  0
  8  9  1  0
  9 10  2  0
  9 11  1  0
 11 12  1  0
 12 13  1  0
 13 14  2  0
 14 15  1  0
 15 16  1  0
 16 17  2  0
 16 18  2  0
 16 19  1  0
 19 20  1  0
 20 21  1  0
 21 22  1  0
 22 23  1  0
 23 24  1  0
 24 25  1  0
 25 26  2  0
 25 27  1  0
 27 28  1  0
 22 29  1  0
 29 30  1  0
 15 31  2  0
 31 32  1  0
 32 33  2  0
 33 34  1  0
 34 35  1  0
 35 36  1  0
 12 37  2  0
 37 38  1  0
 38  4  1  0
 38  8  2  0
 33 13  1  0
 30 19  1  0
  1 39  1  0
  1 40  1  0
  1 41  1  0
  2 42  1  0
  2 43  1  0
  3 44  1  0
  3 45  1  0
  7 46  1  0
  7 47  1  0
  7 48  1  0
 11 49  1  0
 14 50  1  0
 20 51  1  0
 20 52  1  0
 21 53  1  0
 21 54  1  0
 23 55  1  0
 23 56  1  0
 24 57  1  0
 24 58  1  0
 27 59  1  0
 28 60  1  0
 29 61  1  0
 29 62  1  0
 30 63  1  0
 30 64  1  0
 31 65  1  0
 32 66  1  0
 35 67  1  0
 35 68  1  0
 36 69  1  0
 36 70  1  0
 36 71  1  0
M  END
$$$$
