@<TRIPOS>MOLECULE
*****
 46 49 0 0 0
SMALL
GASTEIGER

@<TRIPOS>ATOM
      1 C           6.2081   -0.6833    1.1022 C.3     1  UNL1        0.0302
      2 N           4.9612   -0.2346    0.5157 N.ar    1  UNL1       -0.2741
      3 C           3.8357    0.0628    1.1869 C.ar    1  UNL1        0.0308
      4 C           2.9155    0.4405    0.2349 C.ar    1  UNL1        0.0185
      5 C           1.5283    0.8520    0.5621 C.3     1  UNL1        0.0870
      6 C           0.7465    0.9427   -0.7225 C.3     1  UNL1       -0.0158
      7 C          -0.7435    1.0584   -0.4750 C.3     1  UNL1        0.0080
      8 C          -1.5222    1.0376   -1.7438 C.3     1  UNL1        0.0461
      9 C          -0.8493    1.6786   -2.9209 C.3     1  UNL1        0.1027
     10 F           0.3495    1.0782   -3.2463 F       1  UNL1       -0.2479
     11 S          -1.8120   -0.6977   -2.1864 S.3     1  UNL1       -0.0848
     12 C          -0.7934   -1.6893   -1.1258 C.2     1  UNL1        0.1479
     13 N          -0.2584   -2.9225   -1.5889 N.pl3   1  UNL1       -0.3380
     14 N          -0.5578   -1.2676    0.0516 N.2     1  UNL1       -0.2495
     15 C          -1.1023   -0.0244    0.5002 C.3     1  UNL1        0.1188
     16 C          -2.5182   -0.1697    0.8183 C.ar    1  UNL1        0.0178
     17 C          -3.1027   -1.4032    0.6840 C.ar    1  UNL1       -0.0507
     18 C          -4.4420   -1.6433    0.9744 C.ar    1  UNL1       -0.0259
     19 C          -5.1855   -0.5774    1.4133 C.ar    1  UNL1        0.1261
     20 F          -6.4997   -0.7834    1.7051 F       1  UNL1       -0.2054
     21 C          -4.6274    0.6741    1.5590 C.ar    1  UNL1        0.0091
     22 C          -3.3082    0.8694    1.2632 C.ar    1  UNL1        0.1317
     23 F          -2.7319    2.0770    1.3940 F       1  UNL1       -0.2050
     24 C          -0.2958    0.3262    1.7788 C.3     1  UNL1        0.0781
     25 O           1.0147   -0.0313    1.4705 O.3     1  UNL1       -0.3691
     26 C           3.5122    0.3621   -1.0048 C.ar    1  UNL1        0.0550
     27 N           4.7624   -0.0556   -0.7767 N.ar    1  UNL1       -0.1796
     28 H           6.9431    0.1701    1.1571 H       1  UNL1        0.0473
     29 H           6.6464   -1.5487    0.5787 H       1  UNL1        0.0473
     30 H           6.0550   -0.9945    2.1679 H       1  UNL1        0.0473
     31 H           3.6949    0.0098    2.2777 H       1  UNL1        0.0830
     32 H           1.6123    1.8464    1.0691 H       1  UNL1        0.0647
     33 H           0.9733    0.0355   -1.3162 H       1  UNL1        0.0297
     34 H           1.1066    1.8576   -1.2378 H       1  UNL1        0.0297
     35 H          -0.8787    2.0807   -0.0093 H       1  UNL1        0.0341
     36 H          -2.5211    1.5290   -1.6494 H       1  UNL1        0.0445
     37 H          -0.7433    2.7767   -2.8178 H       1  UNL1        0.0626
     38 H          -1.5158    1.5265   -3.8050 H       1  UNL1        0.0626
     39 H          -0.7885   -3.5347   -2.2455 H       1  UNL1        0.1442
     40 H           0.6819   -3.2588   -1.2891 H       1  UNL1        0.1442
     41 H          -2.5668   -2.3037    0.3456 H       1  UNL1        0.0623
     42 H          -4.8707   -2.6376    0.8549 H       1  UNL1        0.0646
     43 H          -5.2489    1.5069    1.9126 H       1  UNL1        0.0675
     44 H          -0.7301   -0.3306    2.5618 H       1  UNL1        0.0588
     45 H          -0.3966    1.4007    2.0026 H       1  UNL1        0.0588
     46 H           3.0632    0.5922   -1.9806 H       1  UNL1        0.0851
@<TRIPOS>BOND
     1     1     2    1
     2     2     3   ar
     3     3     4   ar
     4     4     5    1
     5     5     6    1
     6     6     7    1
     7     7     8    1
     8     8     9    1
     9     9    10    1
    10     8    11    1
    11    11    12    1
    12    12    13    1
    13    12    14    2
    14    14    15    1
    15    15    16    1
    16    16    17   ar
    17    17    18   ar
    18    18    19   ar
    19    19    20    1
    20    19    21   ar
    21    21    22   ar
    22    22    23    1
    23    15    24    1
    24    24    25    1
    25     4    26   ar
    26    26    27   ar
    27    27     2   ar
    28    25     5    1
    29    15     7    1
    30    22    16   ar
    31     1    28    1
    32     1    29    1
    33     1    30    1
    34     3    31    1
    35     5    32    1
    36     6    33    1
    37     6    34    1
    38     7    35    1
    39     8    36    1
    40     9    37    1
    41     9    38    1
    42    13    39    1
    43    13    40    1
    44    17    41    1
    45    18    42    1
    46    21    43    1
    47    24    44    1
    48    24    45    1
    49    26    46    1
