
     RDKit          3D

 46 49  0  0  0  0  0  0  0  0999 V2000
    6.2081   -0.6833    1.1022 C   0  0  0  0  0  0  0  0  0  0  0  0
    4.9612   -0.2346    0.5157 N   0  0  0  0  0  0  0  0  0  0  0  0
    3.8357    0.0628    1.1869 C   0  0  0  0  0  0  0  0  0  0  0  0
    2.9155    0.4405    0.2349 C   0  0  0  0  0  0  0  0  0  0  0  0
    1.5283    0.8520    0.5621 C   0  0  1  0  0  0  0  0  0  0  0  0
    0.7465    0.9427   -0.7225 C   0  0  0  0  0  0  0  0  0  0  0  0
   -0.7435    1.0584   -0.4750 C   0  0  1  0  0  0  0  0  0  0  0  0
   -1.5222    1.0376   -1.7438 C   0  0  1  0  0  0  0  0  0  0  0  0
   -0.8493    1.6786   -2.9209 C   0  0  0  0  0  0  0  0  0  0  0  0
    0.3495    1.0782   -3.2463 F   0  0  0  0  0  0  0  0  0  0  0  0
   -1.8120   -0.6977   -2.1864 S   0  0  0  0  0  0  0  0  0  0  0  0
   -0.7934   -1.6893   -1.1258 C   0  0  0  0  0  0  0  0  0  0  0  0
   -0.2584   -2.9225   -1.5889 N   0  0  0  0  0  0  0  0  0  0  0  0
   -0.5578   -1.2676    0.0516 N   0  0  0  0  0  0  0  0  0  0  0  0
   -1.1023   -0.0244    0.5002 C   0  0  2  0  0  0  0  0  0  0  0  0
   -2.5182   -0.1697    0.8183 C   0  0  0  0  0  0  0  0  0  0  0  0
   -3.1027   -1.4032    0.6840 C   0  0  0  0  0  0  0  0  0  0  0  0
   -4.4420   -1.6433    0.9744 C   0  0  0  0  0  0  0  0  0  0  0  0
   -5.1855   -0.5774    1.4133 C   0  0  0  0  0  0  0  0  0  0  0  0
   -6.4997   -0.7834    1.7051 F   0  0  0  0  0  0  0  0  0  0  0  0
   -4.6274    0.6741    1.5590 C   0  0  0  0  0  0  0  0  0  0  0  0
   -3.3082    0.8694    1.2632 C   0  0  0  0  0  0  0  0  0  0  0  0
   -2.7319    2.0770    1.3940 F   0  0  0  0  0  0  0  0  0  0  0  0
   -0.2958    0.3262    1.7788 C   0  0  0  0  0  0  0  0  0  0  0  0
    1.0147   -0.0313    1.4705 O   0  0  0  0  0  0  0  0  0  0  0  0
    3.5122    0.3621   -1.0048 C   0  0  0  0  0  0  0  0  0  0  0  0
    4.7624   -0.0556   -0.7767 N   0  0  0  0  0  0  0  0  0  0  0  0
    6.9431    0.1701    1.1571 H   0  0  0  0  0  0  0  0  0  0  0  0
    6.6464   -1.5487    0.5787 H   0  0  0  0  0  0  0  0  0  0  0  0
    6.0550   -0.9945    2.1679 H   0  0  0  0  0  0  0  0  0  0  0  0
    3.6949    0.0098    2.2777 H   0  0  0  0  0  0  0  0  0  0  0  0
    1.6123    1.8464    1.0691 H   0  0  0  0  0  0  0  0  0  0  0  0
    0.9733    0.0355   -1.3162 H   0  0  0  0  0  0  0  0  0  0  0  0
    1.1066    1.8576   -1.2378 H   0  0  0  0  0  0  0  0  0  0  0  0
   -0.8787    2.0807   -0.0093 H   0  0  0  0  0  0  0  0  0  0  0  0
   -2.5211    1.5290   -1.6494 H   0  0  0  0  0  0  0  0  0  0  0  0
   -0.7433    2.7767   -2.8178 H   0  0  0  0  0  0  0  0  0  0  0  0
   -1.5158    1.5265   -3.8050 H   0  0  0  0  0  0  0  0  0  0  0  0
   -0.7885   -3.5347   -2.2455 H   0  0  0  0  0  0  0  0  0  0  0  0
    0.6819   -3.2588   -1.2891 H   0  0  0  0  0  0  0  0  0  0  0  0
   -2.5668   -2.3037    0.3456 H   0  0  0  0  0  0  0  0  0  0  0  0
   -4.8707   -2.6376    0.8549 H   0  0  0  0  0  0  0  0  0  0  0  0
   -5.2489    1.5069    1.9126 H   0  0  0  0  0  0  0  0  0  0  0  0
   -0.7301   -0.3306    2.5618 H   0  0  0  0  0  0  0  0  0  0  0  0
   -0.3966    1.4007    2.0026 H   0  0  0  0  0  0  0  0  0  0  0  0
    3.0632    0.5922   -1.9806 H   0  0  0  0  0  0  0  0  0  0  0  0
  1  2  1  0
  2  3  1  0
  3  4  2  0
  4  5  1  0
  5  6  1  0
  6  7  1  0
  7  8  1  0
  8  9  1  0
  9 10  1  0
  8 11  1  0
 11 12  1  0
 12 13  1  0
 12 14  2  0
 14 15  1  0
 15 16  1  1
 16 17  2  0
 17 18  1  0
 18 19  2  0
 19 20  1  0
 19 21  1  0
 21 22  2  0
 22 23  1  0
 15 24  1  0
 24 25  1  0
  4 26  1  0
 26 27  2  0
 27  2  1  0
 25  5  1  0
 15  7  1  0
 22 16  1  0
  1 28  1  0
  1 29  1  0
  1 30  1  0
  3 31  1  0
  5 32  1  1
  6 33  1  0
  6 34  1  0
  7 35  1  1
  8 36  1  1
  9 37  1  0
  9 38  1  0
 13 39  1  0
 13 40  1  0
 17 41  1  0
 18 42  1  0
 21 43  1  0
 24 44  1  0
 24 45  1  0
 26 46  1  0
M  END
$$$$
