@<TRIPOS>MOLECULE
*****
 59 61 0 0 0
SMALL
GASTEIGER

@<TRIPOS>ATOM
      1 C          -0.3251   -3.8194   -1.5242 C.3     1  UNL1        0.0376
      2 O          -0.5176   -2.5469   -1.0798 O.3     1  UNL1       -0.3724
      3 C          -1.7959   -2.0874   -1.0152 C.3     1  UNL1        0.0915
      4 C          -2.7231   -2.8731   -0.1104 C.3     1  UNL1       -0.0318
      5 C          -2.4162   -2.1479   -2.3927 C.3     1  UNL1       -0.0318
      6 C          -1.7804   -0.6892   -0.5097 C.ar    1  UNL1        0.0228
      7 C          -2.2937    0.2950   -1.3206 C.ar    1  UNL1        0.0359
      8 N          -2.3111    1.5467   -0.9320 N.ar    1  UNL1       -0.2544
      9 C          -1.8261    1.9353    0.2838 C.ar    1  UNL1        0.0755
     10 C          -1.9044    3.3477    0.5914 C.ar    1  UNL1        0.0369
     11 C          -2.4494    4.2161   -0.3243 C.ar    1  UNL1       -0.0314
     12 C          -2.5553    5.5794   -0.0955 C.ar    1  UNL1        0.0418
     13 CL         -3.2719    6.5943   -1.3427 Cl      1  UNL1       -0.0835
     14 C          -2.1028    6.0953    1.0857 C.ar    1  UNL1       -0.0406
     15 C          -1.5567    5.2556    2.0137 C.ar    1  UNL1       -0.0244
     16 C          -1.4580    3.8693    1.7610 C.ar    1  UNL1        0.1326
     17 F          -0.8976    3.1747    2.7694 F       1  UNL1       -0.2048
     18 C          -1.3183    0.9509    1.0817 C.ar    1  UNL1       -0.0141
     19 C          -1.2643   -0.4114    0.7368 C.ar    1  UNL1        0.0408
     20 N          -0.7263   -1.3091    1.6420 N.pl3   1  UNL1       -0.3134
     21 C           0.2634   -2.2880    1.6098 C.ar    1  UNL1        0.0465
     22 C          -0.1106   -3.6352    1.8925 C.ar    1  UNL1       -0.0217
     23 C           0.7642   -4.6760    1.8776 C.ar    1  UNL1        0.0293
     24 N           2.0407   -4.4101    1.5810 N.ar    1  UNL1       -0.2624
     25 C           2.4350   -3.1606    1.3107 C.ar    1  UNL1        0.0415
     26 C           1.5626   -2.0537    1.3157 C.ar    1  UNL1        0.0758
     27 C           2.1688   -0.7558    1.0589 C.2     1  UNL1        0.2474
     28 O           1.5060    0.2862    1.2393 O.2     1  UNL1       -0.2701
     29 N           3.4858   -0.5432    0.6054 N.am    1  UNL1       -0.3088
     30 C           4.0331    0.7818    0.3673 C.3     1  UNL1        0.0377
     31 C           3.2911    1.5616   -0.6606 C.3     1  UNL1        0.0679
     32 C           4.0734    2.8473   -0.9069 C.3     1  UNL1       -0.0375
     33 O           3.3311    0.8530   -1.8844 O.3     1  UNL1       -0.3905
     34 H          -0.6778   -4.0114   -2.5529 H       1  UNL1        0.0524
     35 H          -0.7188   -4.5740   -0.8017 H       1  UNL1        0.0524
     36 H           0.7846   -4.0288   -1.5713 H       1  UNL1        0.0524
     37 H          -3.7534   -2.7442   -0.5010 H       1  UNL1        0.0261
     38 H          -2.4976   -3.9373   -0.0536 H       1  UNL1        0.0261
     39 H          -2.7439   -2.4593    0.9186 H       1  UNL1        0.0261
     40 H          -2.5054   -3.2276   -2.6782 H       1  UNL1        0.0261
     41 H          -3.4928   -1.7989   -2.3420 H       1  UNL1        0.0261
     42 H          -1.8244   -1.6132   -3.1404 H       1  UNL1        0.0261
     43 H          -2.6922    0.0145   -2.3165 H       1  UNL1        0.0834
     44 H          -2.8228    3.8435   -1.2808 H       1  UNL1        0.0639
     45 H          -2.1847    7.1494    1.2626 H       1  UNL1        0.0633
     46 H          -1.2092    5.6922    2.9348 H       1  UNL1        0.0647
     47 H          -0.9287    1.2251    2.0538 H       1  UNL1        0.0658
     48 H          -1.1910   -1.2403    2.6427 H       1  UNL1        0.1522
     49 H          -1.1555   -3.7689    2.1282 H       1  UNL1        0.0651
     50 H           0.3899   -5.6760    2.1065 H       1  UNL1        0.0830
     51 H           3.4890   -3.0398    1.0849 H       1  UNL1        0.0838
     52 H           4.1048   -1.3442    0.4240 H       1  UNL1        0.1491
     53 H           5.0991    0.7603    0.1498 H       1  UNL1        0.0487
     54 H           3.9199    1.3326    1.3456 H       1  UNL1        0.0487
     55 H           2.2484    1.7846   -0.3897 H       1  UNL1        0.0606
     56 H           3.5917    3.7077   -0.3732 H       1  UNL1        0.0255
     57 H           5.0978    2.7808   -0.4801 H       1  UNL1        0.0255
     58 H           4.1744    3.0572   -1.9950 H       1  UNL1        0.0255
     59 H           4.1488    0.3329   -1.9251 H       1  UNL1        0.2098
@<TRIPOS>BOND
     1     1     2    1
     2     2     3    1
     3     3     4    1
     4     3     5    1
     5     3     6    1
     6     6     7   ar
     7     7     8   ar
     8     8     9   ar
     9     9    10    1
    10    10    11   ar
    11    11    12   ar
    12    12    13    1
    13    12    14   ar
    14    14    15   ar
    15    15    16   ar
    16    16    17    1
    17     9    18   ar
    18    18    19   ar
    19    19    20    1
    20    20    21    1
    21    21    22   ar
    22    22    23   ar
    23    23    24   ar
    24    24    25   ar
    25    25    26   ar
    26    26    27    1
    27    27    28    2
    28    27    29   am
    29    29    30    1
    30    30    31    1
    31    31    32    1
    32    31    33    1
    33    19     6   ar
    34    26    21   ar
    35    16    10   ar
    36     1    34    1
    37     1    35    1
    38     1    36    1
    39     4    37    1
    40     4    38    1
    41     4    39    1
    42     5    40    1
    43     5    41    1
    44     5    42    1
    45     7    43    1
    46    11    44    1
    47    14    45    1
    48    15    46    1
    49    18    47    1
    50    20    48    1
    51    22    49    1
    52    23    50    1
    53    25    51    1
    54    29    52    1
    55    30    53    1
    56    30    54    1
    57    31    55    1
    58    32    56    1
    59    32    57    1
    60    32    58    1
    61    33    59    1
