
     RDKit          3D

 64 68  0  0  0  0  0  0  0  0999 V2000
    8.7825    3.5332   -0.0385 C   0  0  0  0  0  0  0  0  0  0  0  0
    8.3869    2.0751   -0.0872 C   0  0  0  0  0  0  0  0  0  0  0  0
    8.8161    0.9829   -0.0541 N   0  0  0  0  0  0  0  0  0  0  0  0
    8.1568   -0.1493   -0.1256 C   0  0  0  0  0  0  0  0  0  0  0  0
    6.8181   -0.0671   -0.2533 C   0  0  0  0  0  0  0  0  0  0  0  0
    5.7502   -1.0873   -0.3632 C   0  0  1  0  0  0  0  0  0  0  0  0
    4.8171   -0.9821    0.8234 C   0  0  0  0  0  0  0  0  0  0  0  0
    3.7944   -2.1144    0.6558 C   0  0  0  0  0  0  0  0  0  0  0  0
    2.8914   -1.6765   -0.4796 C   0  0  1  0  0  0  0  0  0  0  0  0
    2.3616   -0.3769   -0.1303 N   0  0  0  0  0  0  0  0  0  0  0  0
    1.6046   -0.3896    1.0847 C   0  0  0  0  0  0  0  0  0  0  0  0
    0.3488   -0.0105    0.2898 C   0  0  0  0  0  0  0  0  0  0  0  0
   -0.6283   -1.0797    0.2159 N   0  0  0  0  0  0  0  0  0  0  0  0
   -1.9848   -0.8732    0.5503 C   0  0  0  0  0  0  0  0  0  0  0  0
   -2.3541    0.2636    0.9205 O   0  0  0  0  0  0  0  0  0  0  0  0
   -2.9588   -1.9692    0.4688 C   0  0  0  0  0  0  0  0  0  0  0  0
   -4.2563   -1.4871    0.8621 N   0  0  0  0  0  0  0  0  0  0  0  0
   -4.8638   -0.4319    0.1403 C   0  0  0  0  0  0  0  0  0  0  0  0
   -4.3619    0.2129   -0.9196 N   0  0  0  0  0  0  0  0  0  0  0  0
   -5.1902    1.1411   -1.3460 N   0  0  0  0  0  0  0  0  0  0  0  0
   -5.0104    2.0614   -2.4785 C   0  0  0  0  0  0  0  0  0  0  0  0
   -6.2741    1.1044   -0.5376 C   0  0  0  0  0  0  0  0  0  0  0  0
   -7.4552    1.8338   -0.4970 C   0  0  0  0  0  0  0  0  0  0  0  0
   -8.4017    1.5633    0.4693 C   0  0  0  0  0  0  0  0  0  0  0  0
   -8.2319    0.5813    1.4214 C   0  0  0  0  0  0  0  0  0  0  0  0
   -9.2902    0.3287    2.4474 C   0  0  0  0  0  0  0  0  0  0  0  0
   -9.7940    1.5557    2.8415 F   0  0  0  0  0  0  0  0  0  0  0  0
  -10.3065   -0.3760    1.8189 F   0  0  0  0  0  0  0  0  0  0  0  0
   -8.7916   -0.3850    3.5085 F   0  0  0  0  0  0  0  0  0  0  0  0
   -7.0615   -0.1474    1.3875 C   0  0  0  0  0  0  0  0  0  0  0  0
   -6.1147    0.1240    0.4200 C   0  0  0  0  0  0  0  0  0  0  0  0
    1.2488    0.0834   -0.9128 C   0  0  0  0  0  0  0  0  0  0  0  0
    3.7150   -1.6407   -1.7292 C   0  0  0  0  0  0  0  0  0  0  0  0
    4.9645   -0.8263   -1.6169 C   0  0  0  0  0  0  0  0  0  0  0  0
    6.5358    1.6899   -0.2674 S   0  0  0  0  0  0  0  0  0  0  0  0
    9.5869    3.6275    0.7019 H   0  0  0  0  0  0  0  0  0  0  0  0
    9.0999    3.8617   -1.0549 H   0  0  0  0  0  0  0  0  0  0  0  0
    7.9203    4.1678    0.2511 H   0  0  0  0  0  0  0  0  0  0  0  0
    8.6753   -1.1243   -0.0831 H   0  0  0  0  0  0  0  0  0  0  0  0
    6.2353   -2.0600   -0.3238 H   0  0  0  0  0  0  0  0  0  0  0  0
    5.3171   -1.0117    1.7874 H   0  0  0  0  0  0  0  0  0  0  0  0
    4.2417   -0.0280    0.6866 H   0  0  0  0  0  0  0  0  0  0  0  0
    3.2408   -2.3117    1.5755 H   0  0  0  0  0  0  0  0  0  0  0  0
    4.4012   -3.0118    0.3371 H   0  0  0  0  0  0  0  0  0  0  0  0
    2.0927   -2.4314   -0.6248 H   0  0  0  0  0  0  0  0  0  0  0  0
    1.4415   -1.3504    1.5786 H   0  0  0  0  0  0  0  0  0  0  0  0
    1.8973    0.4191    1.8087 H   0  0  0  0  0  0  0  0  0  0  0  0
   -0.1125    0.9354    0.6297 H   0  0  0  0  0  0  0  0  0  0  0  0
   -0.3502   -2.0409   -0.0900 H   0  0  0  0  0  0  0  0  0  0  0  0
   -3.0436   -2.3646   -0.5835 H   0  0  0  0  0  0  0  0  0  0  0  0
   -2.6516   -2.8384    1.0989 H   0  0  0  0  0  0  0  0  0  0  0  0
   -4.7327   -1.9244    1.6774 H   0  0  0  0  0  0  0  0  0  0  0  0
   -3.9560    2.3389   -2.6110 H   0  0  0  0  0  0  0  0  0  0  0  0
   -5.4619    1.5710   -3.3658 H   0  0  0  0  0  0  0  0  0  0  0  0
   -5.6332    2.9635   -2.2830 H   0  0  0  0  0  0  0  0  0  0  0  0
   -7.5734    2.5993   -1.2491 H   0  0  0  0  0  0  0  0  0  0  0  0
   -9.3185    2.1371    0.4925 H   0  0  0  0  0  0  0  0  0  0  0  0
   -6.8970   -0.9227    2.1176 H   0  0  0  0  0  0  0  0  0  0  0  0
    0.9598   -0.5900   -1.7507 H   0  0  0  0  0  0  0  0  0  0  0  0
    1.3983    1.1426   -1.2041 H   0  0  0  0  0  0  0  0  0  0  0  0
    3.1373   -1.2548   -2.5927 H   0  0  0  0  0  0  0  0  0  0  0  0
    3.9875   -2.6849   -1.9819 H   0  0  0  0  0  0  0  0  0  0  0  0
    4.8031    0.2557   -1.7518 H   0  0  0  0  0  0  0  0  0  0  0  0
    5.6321   -1.1340   -2.4745 H   0  0  0  0  0  0  0  0  0  0  0  0
  1  2  1  0
  2  3  2  0
  3  4  1  0
  4  5  2  0
  5  6  1  0
  6  7  1  0
  7  8  1  0
  8  9  1  0
  9 10  1  0
 10 11  1  0
 11 12  1  0
 12 13  1  0
 13 14  1  0
 14 15  2  0
 14 16  1  0
 16 17  1  0
 17 18  1  0
 18 19  2  0
 19 20  1  0
 20 21  1  0
 20 22  1  0
 22 23  2  0
 23 24  1  0
 24 25  2  0
 25 26  1  0
 26 27  1  0
 26 28  1  0
 26 29  1  0
 25 30  1  0
 30 31  2  0
 12 32  1  0
  9 33  1  0
 33 34  1  0
  5 35  1  0
 35  2  1  0
 34  6  1  0
 32 10  1  0
 31 18  1  0
 31 22  1  0
  1 36  1  0
  1 37  1  0
  1 38  1  0
  4 39  1  0
  6 40  1  6
  7 41  1  0
  7 42  1  0
  8 43  1  0
  8 44  1  0
  9 45  1  6
 11 46  1  0
 11 47  1  0
 12 48  1  0
 13 49  1  0
 16 50  1  0
 16 51  1  0
 17 52  1  0
 21 53  1  0
 21 54  1  0
 21 55  1  0
 23 56  1  0
 24 57  1  0
 30 58  1  0
 32 59  1  0
 32 60  1  0
 33 61  1  0
 33 62  1  0
 34 63  1  0
 34 64  1  0
M  END
$$$$
