@<TRIPOS>MOLECULE
*****
 64 68 0 0 0
SMALL
GASTEIGER

@<TRIPOS>ATOM
      1 C           8.7825    3.5332   -0.0385 C.3     1  UNL1       -0.0159
      2 C           8.3869    2.0751   -0.0872 C.ar    1  UNL1        0.0754
      3 N           8.8161    0.9829   -0.0541 N.ar    1  UNL1       -0.2523
      4 C           8.1568   -0.1493   -0.1256 C.ar    1  UNL1        0.0385
      5 C           6.8181   -0.0671   -0.2533 C.ar    1  UNL1        0.0126
      6 C           5.7502   -1.0873   -0.3632 C.3     1  UNL1       -0.0080
      7 C           4.8171   -0.9821    0.8234 C.3     1  UNL1       -0.0443
      8 C           3.7944   -2.1144    0.6558 C.3     1  UNL1       -0.0368
      9 C           2.8914   -1.6765   -0.4796 C.3     1  UNL1        0.0106
     10 N           2.3616   -0.3769   -0.1303 N.3     1  UNL1       -0.2958
     11 C           1.6046   -0.3896    1.0847 C.3     1  UNL1        0.0189
     12 C           0.3488   -0.0105    0.2898 C.3     1  UNL1        0.0486
     13 N          -0.6283   -1.0797    0.2159 N.am    1  UNL1       -0.3087
     14 C          -1.9848   -0.8732    0.5503 C.2     1  UNL1        0.2305
     15 O          -2.3541    0.2636    0.9205 O.2     1  UNL1       -0.2741
     16 C          -2.9588   -1.9692    0.4688 C.3     1  UNL1        0.0870
     17 N          -4.2563   -1.4871    0.8621 N.pl3   1  UNL1       -0.3186
     18 C          -4.8638   -0.4319    0.1403 C.ar    1  UNL1        0.1488
     19 N          -4.3619    0.2129   -0.9196 N.ar    1  UNL1       -0.1554
     20 N          -5.1902    1.1411   -1.3460 N.ar    1  UNL1       -0.2650
     21 C          -5.0104    2.0614   -2.4785 C.3     1  UNL1        0.0309
     22 C          -6.2741    1.1044   -0.5376 C.ar    1  UNL1        0.0705
     23 C          -7.4552    1.8338   -0.4970 C.ar    1  UNL1       -0.0355
     24 C          -8.4017    1.5633    0.4693 C.ar    1  UNL1       -0.0481
     25 C          -8.2319    0.5813    1.4214 C.ar    1  UNL1        0.0556
     26 C          -9.2902    0.3287    2.4474 C.3     1  UNL1        0.4174
     27 F          -9.7940    1.5557    2.8415 F       1  UNL1       -0.1659
     28 F         -10.3065   -0.3760    1.8189 F       1  UNL1       -0.1659
     29 F          -8.7916   -0.3850    3.5085 F       1  UNL1       -0.1659
     30 C          -7.0615   -0.1474    1.3875 C.ar    1  UNL1       -0.0376
     31 C          -6.1147    0.1240    0.4200 C.ar    1  UNL1        0.0419
     32 C           1.2488    0.0834   -0.9128 C.3     1  UNL1        0.0189
     33 C           3.7150   -1.6407   -1.7292 C.3     1  UNL1       -0.0368
     34 C           4.9645   -0.8263   -1.6169 C.3     1  UNL1       -0.0443
     35 S           6.5358    1.6899   -0.2674 S.2     1  UNL1       -0.0771
     36 H           9.5869    3.6275    0.7019 H       1  UNL1        0.0298
     37 H           9.0999    3.8617   -1.0549 H       1  UNL1        0.0298
     38 H           7.9203    4.1678    0.2511 H       1  UNL1        0.0298
     39 H           8.6753   -1.1243   -0.0831 H       1  UNL1        0.0838
     40 H           6.2353   -2.0600   -0.3238 H       1  UNL1        0.0354
     41 H           5.3171   -1.0117    1.7874 H       1  UNL1        0.0272
     42 H           4.2417   -0.0280    0.6866 H       1  UNL1        0.0272
     43 H           3.2408   -2.3117    1.5755 H       1  UNL1        0.0280
     44 H           4.4012   -3.0118    0.3371 H       1  UNL1        0.0280
     45 H           2.0927   -2.4314   -0.6248 H       1  UNL1        0.0462
     46 H           1.4415   -1.3504    1.5786 H       1  UNL1        0.0445
     47 H           1.8973    0.4191    1.8087 H       1  UNL1        0.0445
     48 H          -0.1125    0.9354    0.6297 H       1  UNL1        0.0523
     49 H          -0.3502   -2.0409   -0.0900 H       1  UNL1        0.1491
     50 H          -3.0436   -2.3646   -0.5835 H       1  UNL1        0.0557
     51 H          -2.6516   -2.8384    1.0989 H       1  UNL1        0.0557
     52 H          -4.7327   -1.9244    1.6774 H       1  UNL1        0.1480
     53 H          -3.9560    2.3389   -2.6110 H       1  UNL1        0.0473
     54 H          -5.4619    1.5710   -3.3658 H       1  UNL1        0.0473
     55 H          -5.6332    2.9635   -2.2830 H       1  UNL1        0.0473
     56 H          -7.5734    2.5993   -1.2491 H       1  UNL1        0.0639
     57 H          -9.3185    2.1371    0.4925 H       1  UNL1        0.0624
     58 H          -6.8970   -0.9227    2.1176 H       1  UNL1        0.0631
     59 H           0.9598   -0.5900   -1.7507 H       1  UNL1        0.0445
     60 H           1.3983    1.1426   -1.2041 H       1  UNL1        0.0445
     61 H           3.1373   -1.2548   -2.5927 H       1  UNL1        0.0280
     62 H           3.9875   -2.6849   -1.9819 H       1  UNL1        0.0280
     63 H           4.8031    0.2557   -1.7518 H       1  UNL1        0.0272
     64 H           5.6321   -1.1340   -2.4745 H       1  UNL1        0.0272
@<TRIPOS>BOND
     1     1     2    1
     2     2     3   ar
     3     3     4   ar
     4     4     5   ar
     5     5     6    1
     6     6     7    1
     7     7     8    1
     8     8     9    1
     9     9    10    1
    10    10    11    1
    11    11    12    1
    12    12    13    1
    13    13    14   am
    14    14    15    2
    15    14    16    1
    16    16    17    1
    17    17    18    1
    18    18    19   ar
    19    19    20   ar
    20    20    21    1
    21    20    22   ar
    22    22    23   ar
    23    23    24   ar
    24    24    25   ar
    25    25    26    1
    26    26    27    1
    27    26    28    1
    28    26    29    1
    29    25    30   ar
    30    30    31   ar
    31    12    32    1
    32     9    33    1
    33    33    34    1
    34     5    35   ar
    35    35     2   ar
    36    34     6    1
    37    32    10    1
    38    31    18   ar
    39    31    22   ar
    40     1    36    1
    41     1    37    1
    42     1    38    1
    43     4    39    1
    44     6    40    1
    45     7    41    1
    46     7    42    1
    47     8    43    1
    48     8    44    1
    49     9    45    1
    50    11    46    1
    51    11    47    1
    52    12    48    1
    53    13    49    1
    54    16    50    1
    55    16    51    1
    56    17    52    1
    57    21    53    1
    58    21    54    1
    59    21    55    1
    60    23    56    1
    61    24    57    1
    62    30    58    1
    63    32    59    1
    64    32    60    1
    65    33    61    1
    66    33    62    1
    67    34    63    1
    68    34    64    1
