@<TRIPOS>MOLECULE
*****
 49 53 0 0 0
SMALL
GASTEIGER

@<TRIPOS>ATOM
      1 O          -4.8340   -0.6510   -1.2279 O.2     1  UNL1       -0.2696
      2 C          -5.3973   -0.4605   -0.1389 C.2     1  UNL1        0.2508
      3 N          -4.6889   -0.4642    1.0858 N.am    1  UNL1       -0.3073
      4 C          -3.2879   -0.6715    1.2376 C.3     1  UNL1        0.0510
      5 C          -2.3968    0.3429    0.5732 C.3     1  UNL1        0.1421
      6 O          -2.5622    0.4124   -0.8166 O.3     1  UNL1       -0.4431
      7 C          -1.3160    0.6682   -1.4228 C.2     1  UNL1        0.4081
      8 O          -1.1083    1.1544   -2.5630 O.2     1  UNL1       -0.2259
      9 N          -0.3032    0.2761   -0.5098 N.am    1  UNL1       -0.2239
     10 C           1.1172    0.2319   -0.5488 C.ar    1  UNL1        0.0817
     11 C           1.7618    0.3562   -1.7481 C.ar    1  UNL1       -0.0348
     12 C           3.1397    0.3111   -1.7711 C.ar    1  UNL1       -0.0383
     13 C           3.8477    0.1425   -0.5951 C.ar    1  UNL1        0.0400
     14 N           5.2575    0.0956   -0.6787 N.am    1  UNL1       -0.2672
     15 C           5.9319    0.1546   -1.9703 C.3     1  UNL1        0.0433
     16 C           7.4281    0.1639   -1.6699 C.3     1  UNL1        0.0644
     17 O           7.7279   -0.9798   -0.9389 O.3     1  UNL1       -0.3690
     18 C           7.2901   -0.8791    0.3847 C.3     1  UNL1        0.1242
     19 C           6.0904   -0.0128    0.4679 C.2     1  UNL1        0.2456
     20 O           5.8015    0.6256    1.5365 O.2     1  UNL1       -0.2727
     21 C           3.1720    0.0209    0.5895 C.ar    1  UNL1        0.0034
     22 C           1.7778    0.0622    0.6494 C.ar    1  UNL1        0.1438
     23 O           1.0842   -0.0598    1.8449 O.3     1  UNL1       -0.4881
     24 C          -0.2792    0.3816    1.9053 C.3     1  UNL1        0.1122
     25 C          -0.9717   -0.1599    0.6956 C.3     1  UNL1        0.1067
     26 C          -6.8526   -0.2258   -0.1566 C.ar    1  UNL1        0.0752
     27 C          -7.7124   -0.1807   -1.1955 C.ar    1  UNL1       -0.0411
     28 C          -9.0048    0.0485   -0.9819 C.ar    1  UNL1       -0.0355
     29 C          -9.4026    0.2329    0.3352 C.ar    1  UNL1        0.0787
     30 CL        -11.0411    0.5612    1.0193 Cl      1  UNL1       -0.0758
     31 S          -7.8698    0.0668    1.2457 S.2     1  UNL1       -0.0722
     32 H          -5.2796   -0.2953    1.9409 H       1  UNL1        0.1492
     33 H          -3.0587   -0.7391    2.3391 H       1  UNL1        0.0499
     34 H          -3.0298   -1.7112    0.8744 H       1  UNL1        0.0499
     35 H          -2.4945    1.3504    1.0401 H       1  UNL1        0.0770
     36 H           1.1970    0.4881   -2.6657 H       1  UNL1        0.0638
     37 H           3.6919    0.4079   -2.7196 H       1  UNL1        0.0637
     38 H           5.6574    1.0967   -2.4927 H       1  UNL1        0.0491
     39 H           5.6732   -0.7419   -2.5436 H       1  UNL1        0.0491
     40 H           7.6287    1.0710   -1.0442 H       1  UNL1        0.0576
     41 H           7.9931    0.1403   -2.6019 H       1  UNL1        0.0576
     42 H           6.9682   -1.9078    0.6750 H       1  UNL1        0.0657
     43 H           8.1030   -0.5235    1.0595 H       1  UNL1        0.0657
     44 H           3.6604   -0.1165    1.5293 H       1  UNL1        0.0673
     45 H          -0.3328    1.4820    1.9031 H       1  UNL1        0.0717
     46 H          -0.7499   -0.0566    2.8221 H       1  UNL1        0.0717
     47 H          -0.9699   -1.2625    0.6864 H       1  UNL1        0.0577
     48 H          -7.2981   -0.3423   -2.2327 H       1  UNL1        0.0631
     49 H          -9.7586    0.0959   -1.8070 H       1  UNL1        0.0638
@<TRIPOS>BOND
     1     1     2    2
     2     2     3   am
     3     3     4    1
     4     4     5    1
     5     5     6    1
     6     6     7    1
     7     7     8    2
     8     7     9   am
     9     9    10    1
    10    10    11   ar
    11    11    12   ar
    12    12    13   ar
    13    13    14    1
    14    14    15    1
    15    15    16    1
    16    16    17    1
    17    17    18    1
    18    18    19    1
    19    19    20    2
    20    13    21   ar
    21    21    22   ar
    22    22    23    1
    23    23    24    1
    24    24    25    1
    25     2    26    1
    26    26    27   ar
    27    27    28   ar
    28    28    29   ar
    29    29    30    1
    30    29    31   ar
    31    25     5    1
    32    31    26   ar
    33    25     9    1
    34    22    10   ar
    35    19    14   am
    36     3    32    1
    37     4    33    1
    38     4    34    1
    39     5    35    1
    40    11    36    1
    41    12    37    1
    42    15    38    1
    43    15    39    1
    44    16    40    1
    45    16    41    1
    46    18    42    1
    47    18    43    1
    48    21    44    1
    49    24    45    1
    50    24    46    1
    51    25    47    1
    52    27    48    1
    53    28    49    1
