
     RDKit          3D

 64 68  0  0  0  0  0  0  0  0999 V2000
    0.2259    0.8029   -0.3038 C   0  0  2  0  0  0  0  0  0  0  0  0
   -0.4934   -0.3822   -0.9192 C   0  0  0  0  0  0  0  0  0  0  0  0
    0.2925   -1.0041   -2.0470 C   0  0  0  0  0  0  0  0  0  0  0  0
   -0.5068   -2.1657   -2.5895 C   0  0  0  0  0  0  0  0  0  0  0  0
    0.5085   -0.0130   -3.1653 C   0  0  0  0  0  0  0  0  0  0  0  0
    1.5813    0.3539    0.2638 C   0  0  0  0  0  0  0  0  0  0  0  0
    2.2126    1.3411    1.0402 N   0  0  0  0  0  0  0  0  0  0  0  0
    1.4155    2.3579    1.6312 C   0  0  0  0  0  0  0  0  0  0  0  0
   -0.0063    1.9748    1.9334 C   0  0  0  0  0  0  0  0  0  0  0  0
   -0.5598    1.2666    0.8139 N   0  0  0  0  0  0  0  0  0  0  0  0
   -1.9351    1.1329    1.0416 C   0  0  0  0  0  0  0  0  0  0  0  0
   -2.0615    1.7141    2.1708 O   0  0  0  0  0  0  0  0  0  0  0  0
   -3.3098    0.7545    0.8070 C   0  0  0  0  0  0  0  0  0  0  0  0
   -3.6709   -0.5166    1.1573 N   0  0  0  0  0  0  0  0  0  0  0  0
   -4.9443   -0.9341    0.9686 C   0  0  0  0  0  0  0  0  0  0  0  0
   -5.7641    0.0170    0.4202 C   0  0  0  0  0  0  0  0  0  0  0  0
   -5.4355    1.3141    0.0508 C   0  0  0  0  0  0  0  0  0  0  0  0
   -4.1418    1.6633    0.2690 N   0  0  0  0  0  0  0  0  0  0  0  0
   -7.1776   -0.2963    0.1796 C   0  0  0  0  0  0  0  0  0  0  0  0
   -7.7122   -1.1767    1.0951 C   0  0  0  0  0  0  0  0  0  0  0  0
   -9.0438   -1.5818    1.0272 C   0  0  0  0  0  0  0  0  0  0  0  0
   -9.8087   -1.1011    0.0502 N   0  0  0  0  0  0  0  0  0  0  0  0
   -9.3076   -0.2469   -0.8463 C   0  0  0  0  0  0  0  0  0  0  0  0
   -7.9805    0.1956   -0.8287 C   0  0  0  0  0  0  0  0  0  0  0  0
    3.6788    1.9728    0.5676 S   0  0  0  0  0  0  0  0  0  0  0  0
    4.0613    3.1220    1.4516 O   0  0  0  0  0  0  0  0  0  0  0  0
    3.5036    2.5874   -0.8163 O   0  0  0  0  0  0  0  0  0  0  0  0
    5.0122    0.8878    0.4572 C   0  0  0  0  0  0  0  0  0  0  0  0
    5.8753    0.6417    1.5110 C   0  0  0  0  0  0  0  0  0  0  0  0
    6.8171   -0.2737    1.0679 C   0  0  0  0  0  0  0  0  0  0  0  0
    7.8990   -0.8482    1.7328 C   0  0  0  0  0  0  0  0  0  0  0  0
    8.6988   -1.7380    1.0784 C   0  0  0  0  0  0  0  0  0  0  0  0
   10.0593   -2.4591    1.9101 Cl  0  0  0  0  0  0  0  0  0  0  0  0
    8.3752   -2.0209   -0.2397 C   0  0  0  0  0  0  0  0  0  0  0  0
    7.3059   -1.4522   -0.8936 C   0  0  0  0  0  0  0  0  0  0  0  0
    6.4901   -0.5509   -0.2422 C   0  0  0  0  0  0  0  0  0  0  0  0
    5.3973    0.1631   -0.5858 N   0  0  0  0  0  0  0  0  0  0  0  0
    0.3388    1.6242   -1.0425 H   0  0  0  0  0  0  0  0  0  0  0  0
   -1.5143   -0.1472   -1.2181 H   0  0  0  0  0  0  0  0  0  0  0  0
   -0.5769   -1.1831   -0.1385 H   0  0  0  0  0  0  0  0  0  0  0  0
    1.2406   -1.4372   -1.6685 H   0  0  0  0  0  0  0  0  0  0  0  0
   -0.7538   -2.9196   -1.8255 H   0  0  0  0  0  0  0  0  0  0  0  0
    0.0763   -2.7223   -3.3768 H   0  0  0  0  0  0  0  0  0  0  0  0
   -1.4680   -1.8295   -3.0249 H   0  0  0  0  0  0  0  0  0  0  0  0
    1.4923    0.4595   -3.0802 H   0  0  0  0  0  0  0  0  0  0  0  0
   -0.3361    0.7226   -3.1472 H   0  0  0  0  0  0  0  0  0  0  0  0
    0.4959   -0.5442   -4.1334 H   0  0  0  0  0  0  0  0  0  0  0  0
    2.1682    0.0023   -0.5824 H   0  0  0  0  0  0  0  0  0  0  0  0
    1.2644   -0.4599    0.9822 H   0  0  0  0  0  0  0  0  0  0  0  0
    1.4720    3.3305    1.0873 H   0  0  0  0  0  0  0  0  0  0  0  0
    1.8756    2.5817    2.6404 H   0  0  0  0  0  0  0  0  0  0  0  0
   -0.5586    2.9296    2.0506 H   0  0  0  0  0  0  0  0  0  0  0  0
   -0.1236    1.4408    2.9052 H   0  0  0  0  0  0  0  0  0  0  0  0
   -5.2950   -1.9202    1.2220 H   0  0  0  0  0  0  0  0  0  0  0  0
   -6.1258    2.0134   -0.3795 H   0  0  0  0  0  0  0  0  0  0  0  0
   -7.1820   -1.6298    1.9295 H   0  0  0  0  0  0  0  0  0  0  0  0
   -9.5541   -2.2651    1.6937 H   0  0  0  0  0  0  0  0  0  0  0  0
   -9.9133    0.1462   -1.6330 H   0  0  0  0  0  0  0  0  0  0  0  0
   -7.5138    0.8705   -1.5046 H   0  0  0  0  0  0  0  0  0  0  0  0
    5.8337    1.0858    2.5168 H   0  0  0  0  0  0  0  0  0  0  0  0
    8.0663   -0.5550    2.7697 H   0  0  0  0  0  0  0  0  0  0  0  0
    8.9874   -2.7234   -0.7901 H   0  0  0  0  0  0  0  0  0  0  0  0
    7.0941   -1.7109   -1.9371 H   0  0  0  0  0  0  0  0  0  0  0  0
    4.9594    0.1187   -1.5341 H   0  0  0  0  0  0  0  0  0  0  0  0
  1  2  1  0
  2  3  1  0
  3  4  1  0
  3  5  1  0
  1  6  1  0
  6  7  1  0
  7  8  1  0
  8  9  1  0
  9 10  1  0
 10 11  1  0
 11 12  2  0
 11 13  1  0
 13 14  2  0
 14 15  1  0
 15 16  2  0
 16 17  1  0
 17 18  2  0
 16 19  1  0
 19 20  2  0
 20 21  1  0
 21 22  2  0
 22 23  1  0
 23 24  2  0
  7 25  1  0
 25 26  2  0
 25 27  2  0
 25 28  1  0
 28 29  2  0
 29 30  1  0
 30 31  2  0
 31 32  1  0
 32 33  1  0
 32 34  2  0
 34 35  1  0
 35 36  2  0
 36 37  1  0
 10  1  1  0
 18 13  1  0
 24 19  1  0
 37 28  1  0
 36 30  1  0
  1 38  1  6
  2 39  1  0
  2 40  1  0
  3 41  1  0
  4 42  1  0
  4 43  1  0
  4 44  1  0
  5 45  1  0
  5 46  1  0
  5 47  1  0
  6 48  1  0
  6 49  1  0
  8 50  1  0
  8 51  1  0
  9 52  1  0
  9 53  1  0
 15 54  1  0
 17 55  1  0
 20 56  1  0
 21 57  1  0
 23 58  1  0
 24 59  1  0
 29 60  1  0
 31 61  1  0
 34 62  1  0
 35 63  1  0
 37 64  1  0
M  END
$$$$
