@<TRIPOS>MOLECULE
*****
 64 68 0 0 0
SMALL
GASTEIGER

@<TRIPOS>ATOM
      1 C           0.2259    0.8029   -0.3038 C.3     1  UNL1        0.0410
      2 C          -0.4934   -0.3822   -0.9192 C.3     1  UNL1       -0.0307
      3 C           0.2925   -1.0041   -2.0470 C.3     1  UNL1       -0.0450
      4 C          -0.5068   -2.1657   -2.5895 C.3     1  UNL1       -0.0626
      5 C           0.5085   -0.0130   -3.1653 C.3     1  UNL1       -0.0626
      6 C           1.5813    0.3539    0.2638 C.3     1  UNL1        0.0392
      7 N           2.2126    1.3411    1.0402 N.3     1  UNL1       -0.1720
      8 C           1.4155    2.3579    1.6312 C.3     1  UNL1        0.0364
      9 C          -0.0063    1.9748    1.9334 C.3     1  UNL1        0.0298
     10 N          -0.5598    1.2666    0.8139 N.am    1  UNL1       -0.2894
     11 C          -1.9351    1.1329    1.0416 C.2     1  UNL1        0.2842
     12 O          -2.0615    1.7141    2.1708 O.2     1  UNL1       -0.2666
     13 C          -3.3098    0.7545    0.8070 C.ar    1  UNL1        0.2159
     14 N          -3.6709   -0.5166    1.1573 N.ar    1  UNL1       -0.2312
     15 C          -4.9443   -0.9341    0.9686 C.ar    1  UNL1        0.0393
     16 C          -5.7641    0.0170    0.4202 C.ar    1  UNL1        0.0185
     17 C          -5.4355    1.3141    0.0508 C.ar    1  UNL1        0.0393
     18 N          -4.1418    1.6633    0.2690 N.ar    1  UNL1       -0.2312
     19 C          -7.1776   -0.2963    0.1796 C.ar    1  UNL1       -0.0121
     20 C          -7.7122   -1.1767    1.0951 C.ar    1  UNL1       -0.0358
     21 C          -9.0438   -1.5818    1.0272 C.ar    1  UNL1        0.0281
     22 N          -9.8087   -1.1011    0.0502 N.ar    1  UNL1       -0.2632
     23 C          -9.3076   -0.2469   -0.8463 C.ar    1  UNL1        0.0281
     24 C          -7.9805    0.1956   -0.8287 C.ar    1  UNL1       -0.0358
     25 S           3.6788    1.9728    0.5676 S.O2    1  UNL1        0.0764
     26 O           4.0613    3.1220    1.4516 O.2     1  UNL1       -0.1514
     27 O           3.5036    2.5874   -0.8163 O.2     1  UNL1       -0.1514
     28 C           5.0122    0.8878    0.4572 C.ar    1  UNL1        0.1733
     29 C           5.8753    0.6417    1.5110 C.ar    1  UNL1       -0.0093
     30 C           6.8171   -0.2737    1.0679 C.ar    1  UNL1        0.0030
     31 C           7.8990   -0.8482    1.7328 C.ar    1  UNL1       -0.0342
     32 C           8.6988   -1.7380    1.0784 C.ar    1  UNL1        0.0417
     33 CL         10.0593   -2.4591    1.9101 Cl      1  UNL1       -0.0835
     34 C           8.3752   -2.0209   -0.2397 C.ar    1  UNL1       -0.0414
     35 C           7.3059   -1.4522   -0.8936 C.ar    1  UNL1       -0.0364
     36 C           6.4901   -0.5509   -0.2422 C.ar    1  UNL1        0.0480
     37 N           5.3973    0.1631   -0.5858 N.ar    1  UNL1       -0.3388
     38 H           0.3388    1.6242   -1.0425 H       1  UNL1        0.0514
     39 H          -1.5143   -0.1472   -1.2181 H       1  UNL1        0.0286
     40 H          -0.5769   -1.1831   -0.1385 H       1  UNL1        0.0286
     41 H           1.2406   -1.4372   -1.6685 H       1  UNL1        0.0296
     42 H          -0.7538   -2.9196   -1.8255 H       1  UNL1        0.0232
     43 H           0.0763   -2.7223   -3.3768 H       1  UNL1        0.0232
     44 H          -1.4680   -1.8295   -3.0249 H       1  UNL1        0.0232
     45 H           1.4923    0.4595   -3.0802 H       1  UNL1        0.0232
     46 H          -0.3361    0.7226   -3.1472 H       1  UNL1        0.0232
     47 H           0.4959   -0.5442   -4.1334 H       1  UNL1        0.0232
     48 H           2.1682    0.0023   -0.5824 H       1  UNL1        0.0462
     49 H           1.2644   -0.4599    0.9822 H       1  UNL1        0.0462
     50 H           1.4720    3.3305    1.0873 H       1  UNL1        0.0459
     51 H           1.8756    2.5817    2.6404 H       1  UNL1        0.0459
     52 H          -0.5586    2.9296    2.0506 H       1  UNL1        0.0478
     53 H          -0.1236    1.4408    2.9052 H       1  UNL1        0.0478
     54 H          -5.2950   -1.9202    1.2220 H       1  UNL1        0.0837
     55 H          -6.1258    2.0134   -0.3795 H       1  UNL1        0.0837
     56 H          -7.1820   -1.6298    1.9295 H       1  UNL1        0.0639
     57 H          -9.5541   -2.2651    1.6937 H       1  UNL1        0.0830
     58 H          -9.9133    0.1462   -1.6330 H       1  UNL1        0.0830
     59 H          -7.5138    0.8705   -1.5046 H       1  UNL1        0.0639
     60 H           5.8337    1.0858    2.5168 H       1  UNL1        0.0659
     61 H           8.0663   -0.5550    2.7697 H       1  UNL1        0.0639
     62 H           8.9874   -2.7234   -0.7901 H       1  UNL1        0.0633
     63 H           7.0941   -1.7109   -1.9371 H       1  UNL1        0.0639
     64 H           4.9594    0.1187   -1.5341 H       1  UNL1        0.1672
@<TRIPOS>BOND
     1     1     2    1
     2     2     3    1
     3     3     4    1
     4     3     5    1
     5     1     6    1
     6     6     7    1
     7     7     8    1
     8     8     9    1
     9     9    10    1
    10    10    11   am
    11    11    12    2
    12    11    13    1
    13    13    14   ar
    14    14    15   ar
    15    15    16   ar
    16    16    17   ar
    17    17    18   ar
    18    16    19    1
    19    19    20   ar
    20    20    21   ar
    21    21    22   ar
    22    22    23   ar
    23    23    24   ar
    24     7    25    1
    25    25    26    2
    26    25    27    2
    27    25    28    1
    28    28    29   ar
    29    29    30   ar
    30    30    31   ar
    31    31    32   ar
    32    32    33    1
    33    32    34   ar
    34    34    35   ar
    35    35    36   ar
    36    36    37   ar
    37    10     1    1
    38    18    13   ar
    39    24    19   ar
    40    37    28   ar
    41    36    30   ar
    42     1    38    1
    43     2    39    1
    44     2    40    1
    45     3    41    1
    46     4    42    1
    47     4    43    1
    48     4    44    1
    49     5    45    1
    50     5    46    1
    51     5    47    1
    52     6    48    1
    53     6    49    1
    54     8    50    1
    55     8    51    1
    56     9    52    1
    57     9    53    1
    58    15    54    1
    59    17    55    1
    60    20    56    1
    61    21    57    1
    62    23    58    1
    63    24    59    1
    64    29    60    1
    65    31    61    1
    66    34    62    1
    67    35    63    1
    68    37    64    1
