
     RDKit          3D

 74 79  0  0  0  0  0  0  0  0999 V2000
   -5.8873   -2.6152   -1.4013 C   0  0  0  0  0  0  0  0  0  0  0  0
   -6.5626   -1.4799   -1.9799 N   0  0  0  0  0  0  0  0  0  0  0  0
   -7.9552   -1.6415   -2.3584 C   0  0  0  0  0  0  0  0  0  0  0  0
   -5.8855   -0.2513   -2.1726 C   0  0  0  0  0  0  0  0  0  0  0  0
   -6.5117    0.6977   -2.6864 O   0  0  0  0  0  0  0  0  0  0  0  0
   -4.5141   -0.0965   -1.7904 C   0  0  0  0  0  0  0  0  0  0  0  0
   -3.5235   -0.8925   -2.3814 C   0  0  0  0  0  0  0  0  0  0  0  0
   -2.3576   -0.4786   -1.8048 C   0  0  0  0  0  0  0  0  0  0  0  0
   -1.0717   -0.9231   -2.0197 C   0  0  0  0  0  0  0  0  0  0  0  0
   -0.0988   -0.3359   -1.3126 N   0  0  0  0  0  0  0  0  0  0  0  0
   -0.3180    0.6410   -0.4278 C   0  0  0  0  0  0  0  0  0  0  0  0
    0.7260    1.2409    0.3078 N   0  0  0  0  0  0  0  0  0  0  0  0
    2.0959    0.9820    0.2388 C   0  0  0  0  0  0  0  0  0  0  0  0
    2.6696    0.0843   -0.6154 C   0  0  0  0  0  0  0  0  0  0  0  0
    4.0502   -0.1702   -0.6591 C   0  0  0  0  0  0  0  0  0  0  0  0
    4.8587    0.5309    0.2119 C   0  0  0  0  0  0  0  0  0  0  0  0
    6.2677    0.3239    0.1862 N   0  0  0  0  0  0  0  0  0  0  0  0
    6.7993   -0.4422   -0.9100 C   0  0  0  0  0  0  0  0  0  0  0  0
    6.3924   -0.2558   -2.0829 O   0  0  0  0  0  0  0  0  0  0  0  0
    7.8598   -1.5240   -0.8591 C   0  0  0  0  0  0  0  0  0  0  0  0
    8.8148   -1.0209    0.1229 N   0  0  0  0  0  0  0  0  0  0  0  0
    8.4722   -1.2859    1.4750 C   0  0  0  0  0  0  0  0  0  0  0  0
    7.4365   -0.4144    2.0926 C   0  0  0  0  0  0  0  0  0  0  0  0
    7.1035    0.8229    1.2432 C   0  0  0  0  0  0  0  0  0  0  0  0
    8.4860    1.3105    0.7788 C   0  0  0  0  0  0  0  0  0  0  0  0
    9.1574    0.3565   -0.1447 C   0  0  0  0  0  0  0  0  0  0  0  0
    4.2893    1.4357    1.0741 C   0  0  0  0  0  0  0  0  0  0  0  0
    2.9652    1.6427    1.0773 N   0  0  0  0  0  0  0  0  0  0  0  0
   -1.6014    1.0363   -0.2590 N   0  0  0  0  0  0  0  0  0  0  0  0
   -2.6460    0.5135   -0.9161 C   0  0  0  0  0  0  0  0  0  0  0  0
   -4.0012    0.7459   -0.9138 N   0  0  0  0  0  0  0  0  0  0  0  0
   -4.5442    1.7323   -0.0819 C   0  0  0  0  0  0  0  0  0  0  0  0
   -5.9608    1.8214    0.2191 C   0  0  0  0  0  0  0  0  0  0  0  0
   -6.6411    0.7270    0.9526 C   0  0  0  0  0  0  0  0  0  0  0  0
   -5.8336   -0.3408    1.5520 C   0  0  0  0  0  0  0  0  0  0  0  0
   -4.8853    0.1562    2.6335 C   0  0  0  0  0  0  0  0  0  0  0  0
   -3.5757    0.4499    1.8746 C   0  0  0  0  0  0  0  0  0  0  0  0
   -3.7777    1.7804    1.2406 C   0  0  0  0  0  0  0  0  0  0  0  0
   -4.9083   -2.3987   -0.9680 H   0  0  0  0  0  0  0  0  0  0  0  0
   -5.7761   -3.4478   -2.1610 H   0  0  0  0  0  0  0  0  0  0  0  0
   -6.5126   -3.0649   -0.5978 H   0  0  0  0  0  0  0  0  0  0  0  0
   -8.4270   -0.6696   -2.4958 H   0  0  0  0  0  0  0  0  0  0  0  0
   -7.9629   -2.2920   -3.2702 H   0  0  0  0  0  0  0  0  0  0  0  0
   -8.4235   -2.2394   -1.5294 H   0  0  0  0  0  0  0  0  0  0  0  0
   -3.6359   -1.6643   -3.1265 H   0  0  0  0  0  0  0  0  0  0  0  0
   -0.8137   -1.7008   -2.7097 H   0  0  0  0  0  0  0  0  0  0  0  0
    0.4414    2.0016    1.0210 H   0  0  0  0  0  0  0  0  0  0  0  0
    2.0759   -0.4816   -1.3146 H   0  0  0  0  0  0  0  0  0  0  0  0
    4.4290   -0.9034   -1.3501 H   0  0  0  0  0  0  0  0  0  0  0  0
    7.4655   -2.4816   -0.5248 H   0  0  0  0  0  0  0  0  0  0  0  0
    8.3925   -1.5766   -1.8313 H   0  0  0  0  0  0  0  0  0  0  0  0
    8.1419   -2.3499    1.5380 H   0  0  0  0  0  0  0  0  0  0  0  0
    9.4299   -1.2644    2.0744 H   0  0  0  0  0  0  0  0  0  0  0  0
    7.8164   -0.0231    3.0540 H   0  0  0  0  0  0  0  0  0  0  0  0
    6.5164   -0.9997    2.3112 H   0  0  0  0  0  0  0  0  0  0  0  0
    6.7423    1.6398    1.8428 H   0  0  0  0  0  0  0  0  0  0  0  0
    9.0882    1.3654    1.7349 H   0  0  0  0  0  0  0  0  0  0  0  0
    8.3252    2.3184    0.3568 H   0  0  0  0  0  0  0  0  0  0  0  0
   10.2702    0.5250   -0.0760 H   0  0  0  0  0  0  0  0  0  0  0  0
    8.8845    0.6369   -1.2022 H   0  0  0  0  0  0  0  0  0  0  0  0
    4.9373    1.9802    1.7500 H   0  0  0  0  0  0  0  0  0  0  0  0
   -4.2500    2.7390   -0.5518 H   0  0  0  0  0  0  0  0  0  0  0  0
   -6.6363    2.2688   -0.5629 H   0  0  0  0  0  0  0  0  0  0  0  0
   -6.0350    2.6880    0.9917 H   0  0  0  0  0  0  0  0  0  0  0  0
   -7.3649    0.2369    0.2320 H   0  0  0  0  0  0  0  0  0  0  0  0
   -7.3501    1.0972    1.7615 H   0  0  0  0  0  0  0  0  0  0  0  0
   -5.2475   -0.9621    0.8866 H   0  0  0  0  0  0  0  0  0  0  0  0
   -6.5364   -1.0393    2.0956 H   0  0  0  0  0  0  0  0  0  0  0  0
   -4.6486   -0.6745    3.3595 H   0  0  0  0  0  0  0  0  0  0  0  0
   -5.2368    1.0457    3.1556 H   0  0  0  0  0  0  0  0  0  0  0  0
   -3.4701   -0.4083    1.1834 H   0  0  0  0  0  0  0  0  0  0  0  0
   -2.7660    0.4658    2.6303 H   0  0  0  0  0  0  0  0  0  0  0  0
   -2.8323    2.3492    1.1496 H   0  0  0  0  0  0  0  0  0  0  0  0
   -4.4143    2.4213    1.9076 H   0  0  0  0  0  0  0  0  0  0  0  0
  1  2  1  0
  2  3  1  0
  2  4  1  0
  4  5  2  0
  4  6  1  0
  6  7  2  0
  7  8  1  0
  8  9  2  0
  9 10  1  0
 10 11  2  0
 11 12  1  0
 12 13  1  0
 13 14  2  0
 14 15  1  0
 15 16  2  0
 16 17  1  0
 17 18  1  0
 18 19  2  0
 18 20  1  0
 20 21  1  0
 21 22  1  0
 22 23  1  0
 23 24  1  0
 24 25  1  0
 25 26  1  0
 16 27  1  0
 27 28  2  0
 11 29  1  0
 29 30  2  0
 30 31  1  0
 31 32  1  0
 32 33  1  0
 33 34  1  0
 34 35  1  0
 35 36  1  0
 36 37  1  0
 37 38  1  0
 31  6  1  0
 38 32  1  0
 30  8  1  0
 28 13  1  0
 24 17  1  0
 26 21  1  0
  1 39  1  0
  1 40  1  0
  1 41  1  0
  3 42  1  0
  3 43  1  0
  3 44  1  0
  7 45  1  0
  9 46  1  0
 12 47  1  0
 14 48  1  0
 15 49  1  0
 20 50  1  0
 20 51  1  0
 22 52  1  0
 22 53  1  0
 23 54  1  0
 23 55  1  0
 24 56  1  0
 25 57  1  0
 25 58  1  0
 26 59  1  0
 26 60  1  0
 27 61  1  0
 32 62  1  0
 33 63  1  0
 33 64  1  0
 34 65  1  0
 34 66  1  0
 35 67  1  0
 35 68  1  0
 36 69  1  0
 36 70  1  0
 37 71  1  0
 37 72  1  0
 38 73  1  0
 38 74  1  0
M  END
$$$$
