@<TRIPOS>MOLECULE
*****
 74 79 0 0 0
SMALL
GASTEIGER

@<TRIPOS>ATOM
      1 C          -5.8873   -2.6152   -1.4013 C.3     1  UNL1        0.0032
      2 N          -6.5626   -1.4799   -1.9799 N.am    1  UNL1       -0.3024
      3 C          -7.9552   -1.6415   -2.3584 C.3     1  UNL1        0.0032
      4 C          -5.8855   -0.2513   -2.1726 C.2     1  UNL1        0.2627
      5 O          -6.5117    0.6977   -2.6864 O.2     1  UNL1       -0.2684
      6 C          -4.5141   -0.0965   -1.7904 C.ar    1  UNL1        0.1070
      7 C          -3.5235   -0.8925   -2.3814 C.ar    1  UNL1       -0.0209
      8 C          -2.3576   -0.4786   -1.8048 C.ar    1  UNL1        0.0378
      9 C          -1.0717   -0.9231   -2.0197 C.ar    1  UNL1        0.0419
     10 N          -0.0988   -0.3359   -1.3126 N.ar    1  UNL1       -0.2219
     11 C          -0.3180    0.6410   -0.4278 C.ar    1  UNL1        0.2224
     12 N           0.7260    1.2409    0.3078 N.pl3   1  UNL1       -0.2684
     13 C           2.0959    0.9820    0.2388 C.ar    1  UNL1        0.1251
     14 C           2.6696    0.0843   -0.6154 C.ar    1  UNL1       -0.0197
     15 C           4.0502   -0.1702   -0.6591 C.ar    1  UNL1       -0.0355
     16 C           4.8587    0.5309    0.2119 C.ar    1  UNL1        0.0548
     17 N           6.2677    0.3239    0.1862 N.am    1  UNL1       -0.2658
     18 C           6.7993   -0.4422   -0.9100 C.2     1  UNL1        0.2341
     19 O           6.3924   -0.2558   -2.0829 O.2     1  UNL1       -0.2738
     20 C           7.8598   -1.5240   -0.8591 C.3     1  UNL1        0.0762
     21 N           8.8148   -1.0209    0.1229 N.3     1  UNL1       -0.2939
     22 C           8.4722   -1.2859    1.4750 C.3     1  UNL1        0.0011
     23 C           7.4365   -0.4144    2.0926 C.3     1  UNL1       -0.0210
     24 C           7.1035    0.8229    1.2432 C.3     1  UNL1        0.0335
     25 C           8.4860    1.3105    0.7788 C.3     1  UNL1       -0.0210
     26 C           9.1574    0.3565   -0.1447 C.3     1  UNL1        0.0011
     27 C           4.2893    1.4357    1.0741 C.ar    1  UNL1        0.0511
     28 N           2.9652    1.6427    1.0773 N.ar    1  UNL1       -0.2383
     29 N          -1.6014    1.0363   -0.2590 N.ar    1  UNL1       -0.1962
     30 C          -2.6460    0.5135   -0.9161 C.ar    1  UNL1        0.1466
     31 N          -4.0012    0.7459   -0.9138 N.ar    1  UNL1       -0.3180
     32 C          -4.5442    1.7323   -0.0819 C.3     1  UNL1        0.0366
     33 C          -5.9608    1.8214    0.2191 C.3     1  UNL1       -0.0320
     34 C          -6.6411    0.7270    0.9526 C.3     1  UNL1       -0.0512
     35 C          -5.8336   -0.3408    1.5520 C.3     1  UNL1       -0.0530
     36 C          -4.8853    0.1562    2.6335 C.3     1  UNL1       -0.0530
     37 C          -3.5757    0.4499    1.8746 C.3     1  UNL1       -0.0512
     38 C          -3.7777    1.7804    1.2406 C.3     1  UNL1       -0.0320
     39 H          -4.9083   -2.3987   -0.9680 H       1  UNL1        0.0428
     40 H          -5.7761   -3.4478   -2.1610 H       1  UNL1        0.0428
     41 H          -6.5126   -3.0649   -0.5978 H       1  UNL1        0.0428
     42 H          -8.4270   -0.6696   -2.4958 H       1  UNL1        0.0428
     43 H          -7.9629   -2.2920   -3.2702 H       1  UNL1        0.0428
     44 H          -8.4235   -2.2394   -1.5294 H       1  UNL1        0.0428
     45 H          -3.6359   -1.6643   -3.1265 H       1  UNL1        0.0647
     46 H          -0.8137   -1.7008   -2.7097 H       1  UNL1        0.0838
     47 H           0.4414    2.0016    1.0210 H       1  UNL1        0.1564
     48 H           2.0759   -0.4816   -1.3146 H       1  UNL1        0.0652
     49 H           4.4290   -0.9034   -1.3501 H       1  UNL1        0.0638
     50 H           7.4655   -2.4816   -0.5248 H       1  UNL1        0.0522
     51 H           8.3925   -1.5766   -1.8313 H       1  UNL1        0.0522
     52 H           8.1419   -2.3499    1.5380 H       1  UNL1        0.0427
     53 H           9.4299   -1.2644    2.0744 H       1  UNL1        0.0427
     54 H           7.8164   -0.0231    3.0540 H       1  UNL1        0.0296
     55 H           6.5164   -0.9997    2.3112 H       1  UNL1        0.0296
     56 H           6.7423    1.6398    1.8428 H       1  UNL1        0.0505
     57 H           9.0882    1.3654    1.7349 H       1  UNL1        0.0296
     58 H           8.3252    2.3184    0.3568 H       1  UNL1        0.0296
     59 H          10.2702    0.5250   -0.0760 H       1  UNL1        0.0427
     60 H           8.8845    0.6369   -1.2022 H       1  UNL1        0.0427
     61 H           4.9373    1.9802    1.7500 H       1  UNL1        0.0849
     62 H          -4.2500    2.7390   -0.5518 H       1  UNL1        0.0528
     63 H          -6.6363    2.2688   -0.5629 H       1  UNL1        0.0285
     64 H          -6.0350    2.6880    0.9917 H       1  UNL1        0.0285
     65 H          -7.3649    0.2369    0.2320 H       1  UNL1        0.0266
     66 H          -7.3501    1.0972    1.7615 H       1  UNL1        0.0266
     67 H          -5.2475   -0.9621    0.8866 H       1  UNL1        0.0265
     68 H          -6.5364   -1.0393    2.0956 H       1  UNL1        0.0265
     69 H          -4.6486   -0.6745    3.3595 H       1  UNL1        0.0265
     70 H          -5.2368    1.0457    3.1556 H       1  UNL1        0.0265
     71 H          -3.4701   -0.4083    1.1834 H       1  UNL1        0.0266
     72 H          -2.7660    0.4658    2.6303 H       1  UNL1        0.0266
     73 H          -2.8323    2.3492    1.1496 H       1  UNL1        0.0285
     74 H          -4.4143    2.4213    1.9076 H       1  UNL1        0.0285
@<TRIPOS>BOND
     1     1     2    1
     2     2     3    1
     3     2     4   am
     4     4     5    2
     5     4     6    1
     6     6     7   ar
     7     7     8   ar
     8     8     9   ar
     9     9    10   ar
    10    10    11   ar
    11    11    12    1
    12    12    13    1
    13    13    14   ar
    14    14    15   ar
    15    15    16   ar
    16    16    17    1
    17    17    18   am
    18    18    19    2
    19    18    20    1
    20    20    21    1
    21    21    22    1
    22    22    23    1
    23    23    24    1
    24    24    25    1
    25    25    26    1
    26    16    27   ar
    27    27    28   ar
    28    11    29   ar
    29    29    30   ar
    30    30    31   ar
    31    31    32    1
    32    32    33    1
    33    33    34    1
    34    34    35    1
    35    35    36    1
    36    36    37    1
    37    37    38    1
    38    31     6   ar
    39    38    32    1
    40    30     8   ar
    41    28    13   ar
    42    24    17    1
    43    26    21    1
    44     1    39    1
    45     1    40    1
    46     1    41    1
    47     3    42    1
    48     3    43    1
    49     3    44    1
    50     7    45    1
    51     9    46    1
    52    12    47    1
    53    14    48    1
    54    15    49    1
    55    20    50    1
    56    20    51    1
    57    22    52    1
    58    22    53    1
    59    23    54    1
    60    23    55    1
    61    24    56    1
    62    25    57    1
    63    25    58    1
    64    26    59    1
    65    26    60    1
    66    27    61    1
    67    32    62    1
    68    33    63    1
    69    33    64    1
    70    34    65    1
    71    34    66    1
    72    35    67    1
    73    35    68    1
    74    36    69    1
    75    36    70    1
    76    37    71    1
    77    37    72    1
    78    38    73    1
    79    38    74    1
