
     RDKit          3D

 38 39  0  0  0  0  0  0  0  0999 V2000
   -2.1990   -2.8523   -0.7576 C   0  0  0  0  0  0  0  0  0  0  0  0
   -1.4086   -1.5804   -0.4135 C   0  0  0  0  0  0  0  0  0  0  0  0
   -0.1321   -1.5877   -0.5540 N   0  0  0  0  0  0  0  0  0  0  0  0
    0.6018   -0.5052   -0.2667 C   0  0  0  0  0  0  0  0  0  0  0  0
    2.0445   -0.3331   -0.3644 N   0  0  0  0  0  0  0  0  0  0  0  0
    2.6479    0.8889   -0.0158 C   0  0  0  0  0  0  0  0  0  0  0  0
    1.8912    1.8185    0.3808 O   0  0  0  0  0  0  0  0  0  0  0  0
    4.1398    1.0906   -0.1089 C   0  0  0  0  0  0  0  0  0  0  0  0
    4.5531    0.8768   -1.5426 C   0  0  0  0  0  0  0  0  0  0  0  0
    4.8744    0.1918    0.8238 C   0  0  0  0  0  0  0  0  0  0  0  0
    6.3590    0.4468    0.6861 C   0  0  0  0  0  0  0  0  0  0  0  0
    7.0855   -0.3723    1.5456 F   0  0  0  0  0  0  0  0  0  0  0  0
    6.7944    0.2918   -0.6141 F   0  0  0  0  0  0  0  0  0  0  0  0
    6.6779    1.7463    1.0503 F   0  0  0  0  0  0  0  0  0  0  0  0
   -0.6058    0.6227    0.2459 S   0  0  0  0  0  0  0  0  0  0  0  0
   -2.0423   -0.4568    0.0355 C   0  0  0  0  0  0  0  0  0  0  0  0
   -3.3775   -0.0578    0.3157 C   0  0  0  0  0  0  0  0  0  0  0  0
   -4.4859   -0.8208    0.1712 C   0  0  0  0  0  0  0  0  0  0  0  0
   -5.7834   -0.3561    0.4713 C   0  0  0  0  0  0  0  0  0  0  0  0
   -5.9206    0.9304    0.9303 C   0  0  0  0  0  0  0  0  0  0  0  0
   -7.1858    1.4709    1.2530 N   0  0  0  0  0  0  0  0  0  0  0  0
   -4.8362    1.7029    1.0805 N   0  0  0  0  0  0  0  0  0  0  0  0
   -3.5999    1.2445    0.7893 C   0  0  0  0  0  0  0  0  0  0  0  0
   -2.8720   -2.6896   -1.5803 H   0  0  0  0  0  0  0  0  0  0  0  0
   -2.6995   -3.2543    0.1214 H   0  0  0  0  0  0  0  0  0  0  0  0
   -1.4820   -3.6589   -1.0843 H   0  0  0  0  0  0  0  0  0  0  0  0
    2.6195   -1.1083   -0.6891 H   0  0  0  0  0  0  0  0  0  0  0  0
    4.3450    2.1321    0.1466 H   0  0  0  0  0  0  0  0  0  0  0  0
    3.6488    1.0201   -2.1892 H   0  0  0  0  0  0  0  0  0  0  0  0
    5.3572    1.5924   -1.8107 H   0  0  0  0  0  0  0  0  0  0  0  0
    4.8374   -0.1812   -1.6845 H   0  0  0  0  0  0  0  0  0  0  0  0
    4.5522    0.2774    1.8626 H   0  0  0  0  0  0  0  0  0  0  0  0
    4.6839   -0.8736    0.4991 H   0  0  0  0  0  0  0  0  0  0  0  0
   -4.4045   -1.8149   -0.1815 H   0  0  0  0  0  0  0  0  0  0  0  0
   -6.6290   -1.0199    0.3329 H   0  0  0  0  0  0  0  0  0  0  0  0
   -7.3026    2.2376    1.9498 H   0  0  0  0  0  0  0  0  0  0  0  0
   -8.0164    1.0539    0.7466 H   0  0  0  0  0  0  0  0  0  0  0  0
   -2.7304    1.8867    0.9177 H   0  0  0  0  0  0  0  0  0  0  0  0
  1  2  1  0
  2  3  1  0
  3  4  2  0
  4  5  1  0
  5  6  1  0
  6  7  2  0
  6  8  1  0
  8  9  1  0
  8 10  1  0
 10 11  1  0
 11 12  1  0
 11 13  1  0
 11 14  1  0
  4 15  1  0
 15 16  1  0
 16 17  1  0
 17 18  2  0
 18 19  1  0
 19 20  2  0
 20 21  1  0
 20 22  1  0
 22 23  2  0
 16  2  2  0
 23 17  1  0
  1 24  1  0
  1 25  1  0
  1 26  1  0
  5 27  1  0
  8 28  1  0
  9 29  1  0
  9 30  1  0
  9 31  1  0
 10 32  1  0
 10 33  1  0
 18 34  1  0
 19 35  1  0
 21 36  1  0
 21 37  1  0
 23 38  1  0
M  END
$$$$
