@<TRIPOS>MOLECULE
*****
 38 39 0 0 0
SMALL
GASTEIGER

@<TRIPOS>ATOM
      1 C          -2.1990   -2.8523   -0.7576 C.3     1  UNL1       -0.0212
      2 C          -1.4086   -1.5804   -0.4135 C.ar    1  UNL1        0.0552
      3 N          -0.1321   -1.5877   -0.5540 N.ar    1  UNL1       -0.2292
      4 C           0.6018   -0.5052   -0.2667 C.ar    1  UNL1        0.1651
      5 N           2.0445   -0.3331   -0.3644 N.am    1  UNL1       -0.2645
      6 C           2.6479    0.8889   -0.0158 C.2     1  UNL1        0.2217
      7 O           1.8912    1.8185    0.3808 O.2     1  UNL1       -0.2751
      8 C           4.1398    1.0906   -0.1089 C.3     1  UNL1        0.0412
      9 C           4.5531    0.8768   -1.5426 C.3     1  UNL1       -0.0538
     10 C           4.8744    0.1918    0.8238 C.3     1  UNL1        0.0536
     11 C           6.3590    0.4468    0.6861 C.3     1  UNL1        0.3909
     12 F           7.0855   -0.3723    1.5456 F       1  UNL1       -0.1707
     13 F           6.7944    0.2918   -0.6141 F       1  UNL1       -0.1707
     14 F           6.6779    1.7463    1.0503 F       1  UNL1       -0.1707
     15 S          -0.6058    0.6227    0.2459 S.2     1  UNL1       -0.0517
     16 C          -2.0423   -0.4568    0.0355 C.ar    1  UNL1        0.0450
     17 C          -3.3775   -0.0578    0.3157 C.ar    1  UNL1        0.0087
     18 C          -4.4859   -0.8208    0.1712 C.ar    1  UNL1       -0.0488
     19 C          -5.7834   -0.3561    0.4713 C.ar    1  UNL1       -0.0215
     20 C          -5.9206    0.9304    0.9303 C.ar    1  UNL1        0.1161
     21 N          -7.1858    1.4709    1.2530 N.pl3   1  UNL1       -0.3431
     22 N          -4.8362    1.7029    1.0805 N.ar    1  UNL1       -0.2401
     23 C          -3.5999    1.2445    0.7893 C.ar    1  UNL1        0.0379
     24 H          -2.8720   -2.6896   -1.5803 H       1  UNL1        0.0293
     25 H          -2.6995   -3.2543    0.1214 H       1  UNL1        0.0293
     26 H          -1.4820   -3.6589   -1.0843 H       1  UNL1        0.0293
     27 H           2.6195   -1.1083   -0.6891 H       1  UNL1        0.1567
     28 H           4.3450    2.1321    0.1466 H       1  UNL1        0.0394
     29 H           3.6488    1.0201   -2.1892 H       1  UNL1        0.0237
     30 H           5.3572    1.5924   -1.8107 H       1  UNL1        0.0237
     31 H           4.8374   -0.1812   -1.6845 H       1  UNL1        0.0237
     32 H           4.5522    0.2774    1.8626 H       1  UNL1        0.0359
     33 H           4.6839   -0.8736    0.4991 H       1  UNL1        0.0359
     34 H          -4.4045   -1.8149   -0.1815 H       1  UNL1        0.0625
     35 H          -6.6290   -1.0199    0.3329 H       1  UNL1        0.0652
     36 H          -7.3026    2.2376    1.9498 H       1  UNL1        0.1437
     37 H          -8.0164    1.0539    0.7466 H       1  UNL1        0.1437
     38 H          -2.7304    1.8867    0.9177 H       1  UNL1        0.0836
@<TRIPOS>BOND
     1     1     2    1
     2     2     3   ar
     3     3     4   ar
     4     4     5    1
     5     5     6   am
     6     6     7    2
     7     6     8    1
     8     8     9    1
     9     8    10    1
    10    10    11    1
    11    11    12    1
    12    11    13    1
    13    11    14    1
    14     4    15   ar
    15    15    16   ar
    16    16    17    1
    17    17    18   ar
    18    18    19   ar
    19    19    20   ar
    20    20    21    1
    21    20    22   ar
    22    22    23   ar
    23    16     2   ar
    24    23    17   ar
    25     1    24    1
    26     1    25    1
    27     1    26    1
    28     5    27    1
    29     8    28    1
    30     9    29    1
    31     9    30    1
    32     9    31    1
    33    10    32    1
    34    10    33    1
    35    18    34    1
    36    19    35    1
    37    21    36    1
    38    21    37    1
    39    23    38    1
