
     RDKit          3D

 32 34  0  0  0  0  0  0  0  0999 V2000
   -0.1261   -1.8480    0.7115 C   0  0  0  0  0  0  0  0  0  0  0  0
    0.1055   -0.3690    0.5215 C   0  0  2  0  0  0  0  0  0  0  0  0
   -0.9265    0.4169    1.2835 C   0  0  0  0  0  0  0  0  0  0  0  0
   -2.2691    0.1331    0.8586 N   0  0  0  0  0  0  0  0  0  0  0  0
   -3.1068   -0.7972    1.3198 C   0  0  0  0  0  0  0  0  0  0  0  0
   -4.2831   -0.7047    0.6185 C   0  0  0  0  0  0  0  0  0  0  0  0
   -4.1128    0.2986   -0.2603 N   0  0  0  0  0  0  0  0  0  0  0  0
   -2.8966    0.7851   -0.0966 N   0  0  0  0  0  0  0  0  0  0  0  0
    0.1673    0.0221   -0.9386 C   0  0  2  0  0  0  0  0  0  0  0  0
    0.6221   -1.1024   -1.7675 C   0  0  0  0  0  0  0  0  0  0  0  0
    0.0361   -2.2194   -1.8054 O   0  0  0  0  0  0  0  0  0  0  0  0
    1.7502   -0.9528   -2.5580 O   0  0  0  0  0  0  0  0  0  0  0  0
    1.0684    1.1258   -1.0841 N   0  0  0  0  0  0  0  0  0  0  0  0
    1.6240    2.3818   -1.4283 C   0  0  0  0  0  0  0  0  0  0  0  0
    1.4268    3.3237   -2.2409 O   0  0  0  0  0  0  0  0  0  0  0  0
    2.6994    2.2587   -0.3741 C   0  0  0  0  0  0  0  0  0  0  0  0
    2.3268    0.7970   -0.4569 C   0  0  1  0  0  0  0  0  0  0  0  0
    1.7213    0.1121    1.0839 S   0  0  0  0  0  6  0  0  0  0  0  0
    2.5371   -1.0585    1.5189 O   0  0  0  0  0  0  0  0  0  0  0  0
    1.6704    1.2066    2.0827 O   0  0  0  0  0  0  0  0  0  0  0  0
   -0.2730   -2.0600    1.8103 H   0  0  0  0  0  0  0  0  0  0  0  0
   -1.0715   -2.1831    0.2424 H   0  0  0  0  0  0  0  0  0  0  0  0
    0.7654   -2.4136    0.4012 H   0  0  0  0  0  0  0  0  0  0  0  0
   -0.8460    0.1072    2.3481 H   0  0  0  0  0  0  0  0  0  0  0  0
   -0.7494    1.4928    1.2462 H   0  0  0  0  0  0  0  0  0  0  0  0
   -2.9073   -1.5211    2.1216 H   0  0  0  0  0  0  0  0  0  0  0  0
   -5.1921   -1.3188    0.7376 H   0  0  0  0  0  0  0  0  0  0  0  0
   -0.8489    0.3300   -1.3081 H   0  0  0  0  0  0  0  0  0  0  0  0
    1.9260   -1.5914   -3.3173 H   0  0  0  0  0  0  0  0  0  0  0  0
    2.4682    2.7686    0.5603 H   0  0  0  0  0  0  0  0  0  0  0  0
    3.6718    2.4251   -0.8414 H   0  0  0  0  0  0  0  0  0  0  0  0
    3.0229    0.1548   -0.9892 H   0  0  0  0  0  0  0  0  0  0  0  0
  2  1  1  6
  2  3  1  0
  3  4  1  0
  4  5  1  0
  5  6  2  0
  6  7  1  0
  7  8  2  0
  2  9  1  0
  9 10  1  0
 10 11  2  0
 10 12  1  0
  9 13  1  0
 13 14  1  0
 14 15  2  0
 14 16  1  0
 16 17  1  0
 17 18  1  0
 18 19  2  0
 18 20  2  0
 18  2  1  0
  8  4  1  0
 17 13  1  0
  1 21  1  0
  1 22  1  0
  1 23  1  0
  3 24  1  0
  3 25  1  0
  5 26  1  0
  6 27  1  0
  9 28  1  6
 12 29  1  0
 16 30  1  0
 16 31  1  0
 17 32  1  6
M  END
$$$$
