@<TRIPOS>MOLECULE
*****
 32 34 0 0 0
SMALL
GASTEIGER

@<TRIPOS>ATOM
      1 C          -0.1261   -1.8480    0.7115 C.3     1  UNL1       -0.0358
      2 C           0.1055   -0.3690    0.5215 C.3     1  UNL1        0.1351
      3 C          -0.9265    0.4169    1.2835 C.3     1  UNL1        0.0703
      4 N          -2.2691    0.1331    0.8586 N.ar    1  UNL1       -0.2495
      5 C          -3.1068   -0.7972    1.3198 C.ar    1  UNL1        0.0455
      6 C          -4.2831   -0.7047    0.6185 C.ar    1  UNL1        0.0693
      7 N          -4.1128    0.2986   -0.2603 N.ar    1  UNL1       -0.1380
      8 N          -2.8966    0.7851   -0.0966 N.ar    1  UNL1       -0.0657
      9 C           0.1673    0.0221   -0.9386 C.3     1  UNL1        0.1508
     10 C           0.6221   -1.1024   -1.7675 C.2     1  UNL1        0.3278
     11 O           0.0361   -2.2194   -1.8054 O.2     1  UNL1       -0.2488
     12 O           1.7502   -0.9528   -2.5580 O.3     1  UNL1       -0.4793
     13 N           1.0684    1.1258   -1.0841 N.am    1  UNL1       -0.2632
     14 C           1.6240    2.3818   -1.4283 C.2     1  UNL1        0.2212
     15 O           1.4268    3.3237   -2.2409 O.2     1  UNL1       -0.2754
     16 C           2.6994    2.2587   -0.3741 C.3     1  UNL1        0.0629
     17 C           2.3268    0.7970   -0.4569 C.3     1  UNL1        0.1536
     18 S           1.7213    0.1121    1.0839 S.O2    1  UNL1       -0.0022
     19 O           2.5371   -1.0585    1.5189 O.2     1  UNL1       -0.1719
     20 O           1.6704    1.2066    2.0827 O.2     1  UNL1       -0.1719
     21 H          -0.2730   -2.0600    1.8103 H       1  UNL1        0.0252
     22 H          -1.0715   -2.1831    0.2424 H       1  UNL1        0.0252
     23 H           0.7654   -2.4136    0.4012 H       1  UNL1        0.0252
     24 H          -0.8460    0.1072    2.3481 H       1  UNL1        0.0532
     25 H          -0.7494    1.4928    1.2462 H       1  UNL1        0.0532
     26 H          -2.9073   -1.5211    2.1216 H       1  UNL1        0.0842
     27 H          -5.1921   -1.3188    0.7376 H       1  UNL1        0.0864
     28 H          -0.8489    0.3300   -1.3081 H       1  UNL1        0.0640
     29 H           1.9260   -1.5914   -3.3173 H       1  UNL1        0.2951
     30 H           2.4682    2.7686    0.5603 H       1  UNL1        0.0393
     31 H           3.6718    2.4251   -0.8414 H       1  UNL1        0.0393
     32 H           3.0229    0.1548   -0.9892 H       1  UNL1        0.0750
@<TRIPOS>BOND
     1     2     1    1
     2     2     3    1
     3     3     4    1
     4     4     5   ar
     5     5     6   ar
     6     6     7   ar
     7     7     8   ar
     8     2     9    1
     9     9    10    1
    10    10    11    2
    11    10    12    1
    12     9    13    1
    13    13    14   am
    14    14    15    2
    15    14    16    1
    16    16    17    1
    17    17    18    1
    18    18    19    2
    19    18    20    2
    20    18     2    1
    21     8     4   ar
    22    17    13    1
    23     1    21    1
    24     1    22    1
    25     1    23    1
    26     3    24    1
    27     3    25    1
    28     5    26    1
    29     6    27    1
    30     9    28    1
    31    12    29    1
    32    16    30    1
    33    16    31    1
    34    17    32    1
