
     RDKit          3D

 33 35  0  0  0  0  0  0  0  0999 V2000
    6.0085    0.3289   -0.5101 C   0  0  0  0  0  0  0  0  0  0  0  0
    5.0050   -0.6518   -0.3801 O   0  0  0  0  0  0  0  0  0  0  0  0
    3.6709   -0.2960   -0.2405 C   0  0  0  0  0  0  0  0  0  0  0  0
    3.3339    1.0449   -0.2301 C   0  0  0  0  0  0  0  0  0  0  0  0
    2.0040    1.3772   -0.0904 C   0  0  0  0  0  0  0  0  0  0  0  0
    0.9936    0.4404    0.0393 C   0  0  0  0  0  0  0  0  0  0  0  0
   -0.3343    0.8177    0.1778 C   0  0  0  0  0  0  0  0  0  0  0  0
   -1.3192   -0.1419    0.3051 C   0  0  0  0  0  0  0  0  0  0  0  0
   -2.7103    0.2792    0.4499 C   0  0  0  0  0  0  0  0  0  0  0  0
   -3.0676    1.3006    1.3101 C   0  0  0  0  0  0  0  0  0  0  0  0
   -4.3545    1.6747    1.4304 N   0  0  0  0  0  0  0  0  0  0  0  0
   -5.3523    1.0932    0.7383 C   0  0  0  0  0  0  0  0  0  0  0  0
   -5.0504    0.0712   -0.1317 C   0  0  0  0  0  0  0  0  0  0  0  0
   -3.7371   -0.3146   -0.2581 C   0  0  0  0  0  0  0  0  0  0  0  0
   -3.3704   -1.3757   -1.1528 N   0  0  0  0  0  0  0  0  0  0  0  0
   -0.9734   -1.4787    0.2937 C   0  0  0  0  0  0  0  0  0  0  0  0
    0.3620   -1.8584    0.1544 C   0  0  0  0  0  0  0  0  0  0  0  0
    1.3404   -0.8952    0.0277 C   0  0  0  0  0  0  0  0  0  0  0  0
    2.6679   -1.2365   -0.1115 C   0  0  0  0  0  0  0  0  0  0  0  0
    7.0006   -0.1094   -0.7341 H   0  0  0  0  0  0  0  0  0  0  0  0
    5.6788    1.0169   -1.3179 H   0  0  0  0  0  0  0  0  0  0  0  0
    6.1517    0.9164    0.4408 H   0  0  0  0  0  0  0  0  0  0  0  0
    4.0895    1.8245   -0.3285 H   0  0  0  0  0  0  0  0  0  0  0  0
    1.7456    2.4260   -0.0829 H   0  0  0  0  0  0  0  0  0  0  0  0
   -0.6154    1.8631    0.1879 H   0  0  0  0  0  0  0  0  0  0  0  0
   -2.2702    1.7839    1.8799 H   0  0  0  0  0  0  0  0  0  0  0  0
   -6.3851    1.4417    0.8784 H   0  0  0  0  0  0  0  0  0  0  0  0
   -5.8210   -0.4190   -0.7032 H   0  0  0  0  0  0  0  0  0  0  0  0
   -2.6606   -1.2192   -1.9005 H   0  0  0  0  0  0  0  0  0  0  0  0
   -3.8025   -2.3091   -1.0707 H   0  0  0  0  0  0  0  0  0  0  0  0
   -1.7617   -2.1982    0.3948 H   0  0  0  0  0  0  0  0  0  0  0  0
    0.6101   -2.9067    0.1480 H   0  0  0  0  0  0  0  0  0  0  0  0
    2.9237   -2.2903   -0.1186 H   0  0  0  0  0  0  0  0  0  0  0  0
  1  2  1  0
  2  3  1  0
  3  4  2  0
  4  5  1  0
  5  6  2  0
  6  7  1  0
  7  8  2  0
  8  9  1  0
  9 10  2  0
 10 11  1  0
 11 12  2  0
 12 13  1  0
 13 14  2  0
 14 15  1  0
  8 16  1  0
 16 17  2  0
 17 18  1  0
 18 19  2  0
 19  3  1  0
 18  6  1  0
 14  9  1  0
  1 20  1  0
  1 21  1  0
  1 22  1  0
  4 23  1  0
  5 24  1  0
  7 25  1  0
 10 26  1  0
 12 27  1  0
 13 28  1  0
 15 29  1  0
 15 30  1  0
 16 31  1  0
 17 32  1  0
 19 33  1  0
M  END
$$$$
