@<TRIPOS>MOLECULE
*****
 33 35 0 0 0
SMALL
GASTEIGER

@<TRIPOS>ATOM
      1 C           6.0085    0.3289   -0.5101 C.3     1  UNL1        0.0788
      2 O           5.0050   -0.6518   -0.3801 O.3     1  UNL1       -0.4951
      3 C           3.6709   -0.2960   -0.2405 C.ar    1  UNL1        0.1207
      4 C           3.3339    1.0449   -0.2301 C.ar    1  UNL1       -0.0194
      5 C           2.0040    1.3772   -0.0904 C.ar    1  UNL1       -0.0506
      6 C           0.9936    0.4404    0.0393 C.ar    1  UNL1       -0.0171
      7 C          -0.3343    0.8177    0.1778 C.ar    1  UNL1       -0.0462
      8 C          -1.3192   -0.1419    0.3051 C.ar    1  UNL1       -0.0141
      9 C          -2.7103    0.2792    0.4499 C.ar    1  UNL1        0.0209
     10 C          -3.0676    1.3006    1.3101 C.ar    1  UNL1        0.0370
     11 N          -4.3545    1.6747    1.4304 N.ar    1  UNL1       -0.2625
     12 C          -5.3523    1.0932    0.7383 C.ar    1  UNL1        0.0293
     13 C          -5.0504    0.0712   -0.1317 C.ar    1  UNL1       -0.0223
     14 C          -3.7371   -0.3146   -0.2581 C.ar    1  UNL1        0.0353
     15 N          -3.3704   -1.3757   -1.1528 N.pl3   1  UNL1       -0.3574
     16 C          -0.9734   -1.4787    0.2937 C.ar    1  UNL1       -0.0533
     17 C           0.3620   -1.8584    0.1544 C.ar    1  UNL1       -0.0533
     18 C           1.3404   -0.8952    0.0277 C.ar    1  UNL1       -0.0144
     19 C           2.6679   -1.2365   -0.1115 C.ar    1  UNL1       -0.0122
     20 H           7.0006   -0.1094   -0.7341 H       1  UNL1        0.0660
     21 H           5.6788    1.0169   -1.3179 H       1  UNL1        0.0660
     22 H           6.1517    0.9164    0.4408 H       1  UNL1        0.0660
     23 H           4.0895    1.8245   -0.3285 H       1  UNL1        0.0654
     24 H           1.7456    2.4260   -0.0829 H       1  UNL1        0.0625
     25 H          -0.6154    1.8631    0.1879 H       1  UNL1        0.0630
     26 H          -2.2702    1.7839    1.8799 H       1  UNL1        0.0836
     27 H          -6.3851    1.4417    0.8784 H       1  UNL1        0.0830
     28 H          -5.8210   -0.4190   -0.7032 H       1  UNL1        0.0651
     29 H          -2.6606   -1.2192   -1.9005 H       1  UNL1        0.1423
     30 H          -3.8025   -2.3091   -1.0707 H       1  UNL1        0.1423
     31 H          -1.7617   -2.1982    0.3948 H       1  UNL1        0.0624
     32 H           0.6101   -2.9067    0.1480 H       1  UNL1        0.0624
     33 H           2.9237   -2.2903   -0.1186 H       1  UNL1        0.0660
@<TRIPOS>BOND
     1     1     2    1
     2     2     3    1
     3     3     4   ar
     4     4     5   ar
     5     5     6   ar
     6     6     7   ar
     7     7     8   ar
     8     8     9    1
     9     9    10   ar
    10    10    11   ar
    11    11    12   ar
    12    12    13   ar
    13    13    14   ar
    14    14    15    1
    15     8    16   ar
    16    16    17   ar
    17    17    18   ar
    18    18    19   ar
    19    19     3   ar
    20    18     6   ar
    21    14     9   ar
    22     1    20    1
    23     1    21    1
    24     1    22    1
    25     4    23    1
    26     5    24    1
    27     7    25    1
    28    10    26    1
    29    12    27    1
    30    13    28    1
    31    15    29    1
    32    15    30    1
    33    16    31    1
    34    17    32    1
    35    19    33    1
