@<TRIPOS>MOLECULE
*****
 61 64 0 0 0
SMALL
GASTEIGER

@<TRIPOS>ATOM
      1 C          -7.7592   -1.0728    0.1093 C.3     1  UNL1        0.0719
      2 C          -7.5752   -2.2247   -0.8862 C.3     1  UNL1       -0.0372
      3 C          -6.4200   -0.7060    0.6773 C.3     1  UNL1        0.0396
      4 N          -5.6836    0.2291   -0.1468 N.pl3   1  UNL1       -0.3103
      5 C          -6.4726    1.0262   -1.0593 C.3     1  UNL1        0.0396
      6 C          -7.8378    1.1860   -0.3925 C.3     1  UNL1        0.0719
      7 C          -8.6901    2.1836   -1.1436 C.3     1  UNL1       -0.0372
      8 O          -8.4753   -0.0311   -0.4295 O.3     1  UNL1       -0.3708
      9 C          -4.2633    0.3385   -0.0486 C.ar    1  UNL1        0.1215
     10 C          -3.5295    1.3124   -0.6677 C.ar    1  UNL1       -0.0199
     11 C          -2.1803    1.4306   -0.5891 C.ar    1  UNL1       -0.0357
     12 C          -1.4360    0.5289    0.1575 C.ar    1  UNL1        0.0520
     13 N          -0.0251    0.6923    0.2177 N.am    1  UNL1       -0.2802
     14 C           0.9920   -0.0350    0.9127 C.2     1  UNL1        0.2486
     15 O           0.5788   -0.9975    1.5957 O.2     1  UNL1       -0.2698
     16 C           2.3729    0.4124    0.7589 C.ar    1  UNL1        0.0405
     17 C           2.4895    1.7917    0.9512 C.ar    1  UNL1       -0.0493
     18 C           3.6983    2.4425    0.8427 C.ar    1  UNL1       -0.0605
     19 C           4.7746    1.6349    0.5332 C.ar    1  UNL1       -0.0537
     20 C           4.7098    0.2462    0.3311 C.ar    1  UNL1       -0.0143
     21 C           3.4677   -0.3185    0.4580 C.ar    1  UNL1       -0.0306
     22 C           3.2911   -1.7549    0.2589 C.3     1  UNL1       -0.0384
     23 C           5.9653   -0.4185    0.0280 C.ar    1  UNL1       -0.0174
     24 C           6.6064    0.2158   -1.0442 C.ar    1  UNL1       -0.0506
     25 C           7.8519   -0.2038   -1.5312 C.ar    1  UNL1       -0.0190
     26 C           8.4134   -1.2852   -0.8887 C.ar    1  UNL1        0.1300
     27 O           9.6669   -1.6917   -1.3931 O.3     1  UNL1       -0.4057
     28 C          10.8265   -1.0833   -0.8048 C.3     1  UNL1        0.5752
     29 F          10.8862   -1.3428    0.5472 F       1  UNL1       -0.1328
     30 F          11.9732   -1.5661   -1.3953 F       1  UNL1       -0.1328
     31 F          10.7724    0.2911   -0.9599 F       1  UNL1       -0.1328
     32 C           7.8139   -1.9279    0.1610 C.ar    1  UNL1       -0.0190
     33 C           6.5701   -1.4946    0.6339 C.ar    1  UNL1       -0.0506
     34 C          -2.1887   -0.4292    0.7624 C.ar    1  UNL1        0.0509
     35 N          -3.5253   -0.5167    0.6634 N.ar    1  UNL1       -0.2385
     36 H          -8.3396   -1.5101    0.9779 H       1  UNL1        0.0609
     37 H          -7.7597   -3.2101   -0.3659 H       1  UNL1        0.0255
     38 H          -6.5312   -2.2738   -1.2516 H       1  UNL1        0.0255
     39 H          -8.2286   -2.1249   -1.7711 H       1  UNL1        0.0255
     40 H          -5.8366   -1.6615    0.7378 H       1  UNL1        0.0489
     41 H          -6.4986   -0.3209    1.7327 H       1  UNL1        0.0489
     42 H          -6.0483    1.9910   -1.3292 H       1  UNL1        0.0489
     43 H          -6.6993    0.4392   -1.9952 H       1  UNL1        0.0489
     44 H          -7.6661    1.5816    0.6167 H       1  UNL1        0.0609
     45 H          -8.2831    3.2131   -1.0844 H       1  UNL1        0.0255
     46 H          -9.6745    2.2119   -0.6266 H       1  UNL1        0.0255
     47 H          -8.8282    1.8817   -2.2073 H       1  UNL1        0.0255
     48 H          -4.0388    2.0645   -1.2755 H       1  UNL1        0.0652
     49 H          -1.6810    2.2529   -1.1222 H       1  UNL1        0.0638
     50 H           0.3750    1.4946   -0.3531 H       1  UNL1        0.1552
     51 H           1.6521    2.4620    1.1983 H       1  UNL1        0.0625
     52 H           3.8453    3.5006    0.9799 H       1  UNL1        0.0618
     53 H           5.7477    2.1416    0.4421 H       1  UNL1        0.0624
     54 H           2.5817   -1.9136   -0.6115 H       1  UNL1        0.0278
     55 H           4.2038   -2.3103   -0.0361 H       1  UNL1        0.0278
     56 H           2.8944   -2.2754    1.1740 H       1  UNL1        0.0278
     57 H           6.2132    1.0817   -1.6015 H       1  UNL1        0.0625
     58 H           8.3379    0.2919   -2.3618 H       1  UNL1        0.0654
     59 H           8.2714   -2.7742    0.6507 H       1  UNL1        0.0654
     60 H           6.0176   -1.9264    1.4511 H       1  UNL1        0.0625
     61 H          -1.6853   -1.1689    1.3621 H       1  UNL1        0.0849
@<TRIPOS>BOND
     1     1     2    1
     2     1     3    1
     3     3     4    1
     4     4     5    1
     5     5     6    1
     6     6     7    1
     7     6     8    1
     8     4     9    1
     9     9    10   ar
    10    10    11   ar
    11    11    12   ar
    12    12    13    1
    13    13    14   am
    14    14    15    2
    15    14    16    1
    16    16    17   ar
    17    17    18   ar
    18    18    19   ar
    19    19    20   ar
    20    20    21   ar
    21    21    22    1
    22    20    23    1
    23    23    24   ar
    24    24    25   ar
    25    25    26   ar
    26    26    27    1
    27    27    28    1
    28    28    29    1
    29    28    30    1
    30    28    31    1
    31    26    32   ar
    32    32    33   ar
    33    12    34   ar
    34    34    35   ar
    35     8     1    1
    36    35     9   ar
    37    21    16   ar
    38    33    23   ar
    39     1    36    1
    40     2    37    1
    41     2    38    1
    42     2    39    1
    43     3    40    1
    44     3    41    1
    45     5    42    1
    46     5    43    1
    47     6    44    1
    48     7    45    1
    49     7    46    1
    50     7    47    1
    51    10    48    1
    52    11    49    1
    53    13    50    1
    54    17    51    1
    55    18    52    1
    56    19    53    1
    57    22    54    1
    58    22    55    1
    59    22    56    1
    60    24    57    1
    61    25    58    1
    62    32    59    1
    63    33    60    1
    64    34    61    1
