
     RDKit          3D

 43 44  0  0  0  0  0  0  0  0999 V2000
    4.5304   -0.9492   -1.0368 C   0  0  0  0  0  0  0  0  0  0  0  0
    3.7530    0.0770   -0.4174 N   0  0  0  0  0  0  0  0  0  0  0  0
    4.4241    0.6135    0.7344 C   0  0  0  0  0  0  0  0  0  0  0  0
    2.3856   -0.3569   -0.1035 C   0  0  0  0  0  0  0  0  0  0  0  0
    1.7192    0.8239    0.5365 C   0  0  0  0  0  0  0  0  0  0  0  0
    0.4202    0.6483    0.9187 O   0  0  0  0  0  0  0  0  0  0  0  0
   -0.4807    0.3448   -0.0616 C   0  0  0  0  0  0  0  0  0  0  0  0
   -1.5747    1.3264   -0.2449 C   0  0  0  0  0  0  0  0  0  0  0  0
   -2.8911    0.9353   -0.3906 C   0  0  0  0  0  0  0  0  0  0  0  0
   -3.8586    1.9057   -0.5574 C   0  0  0  0  0  0  0  0  0  0  0  0
   -3.4600    3.2271   -0.5702 C   0  0  0  0  0  0  0  0  0  0  0  0
   -2.1412    3.6278   -0.4245 C   0  0  0  0  0  0  0  0  0  0  0  0
   -1.1789    2.6400   -0.2576 C   0  0  0  0  0  0  0  0  0  0  0  0
   -1.0304   -1.0162    0.1564 C   0  0  0  0  0  0  0  0  0  0  0  0
   -0.8668   -2.0379   -0.7869 C   0  0  0  0  0  0  0  0  0  0  0  0
   -1.3440   -3.3208   -0.6521 C   0  0  0  0  0  0  0  0  0  0  0  0
   -2.0302   -3.5974    0.5041 C   0  0  0  0  0  0  0  0  0  0  0  0
   -2.2101   -2.6144    1.4553 C   0  0  0  0  0  0  0  0  0  0  0  0
   -1.7217   -1.3108    1.3114 C   0  0  0  0  0  0  0  0  0  0  0  0
   -1.9801   -0.3372    2.3990 C   0  0  0  0  0  0  0  0  0  0  0  0
    5.5958   -0.6078   -1.0026 H   0  0  0  0  0  0  0  0  0  0  0  0
    4.4856   -1.9162   -0.5105 H   0  0  0  0  0  0  0  0  0  0  0  0
    4.2991   -1.0581   -2.1314 H   0  0  0  0  0  0  0  0  0  0  0  0
    4.1660    1.6795    0.9198 H   0  0  0  0  0  0  0  0  0  0  0  0
    4.2601   -0.0370    1.6320 H   0  0  0  0  0  0  0  0  0  0  0  0
    5.5219    0.6155    0.5063 H   0  0  0  0  0  0  0  0  0  0  0  0
    2.3857   -1.2585    0.5287 H   0  0  0  0  0  0  0  0  0  0  0  0
    1.8739   -0.6009   -1.0315 H   0  0  0  0  0  0  0  0  0  0  0  0
    2.2956    1.0586    1.4666 H   0  0  0  0  0  0  0  0  0  0  0  0
    1.8183    1.6639   -0.2066 H   0  0  0  0  0  0  0  0  0  0  0  0
    0.0801    0.3166   -1.0255 H   0  0  0  0  0  0  0  0  0  0  0  0
   -3.1426   -0.0982   -0.3729 H   0  0  0  0  0  0  0  0  0  0  0  0
   -4.8886    1.6090   -0.6716 H   0  0  0  0  0  0  0  0  0  0  0  0
   -4.2286    3.9840   -0.7018 H   0  0  0  0  0  0  0  0  0  0  0  0
   -1.9141    4.6876   -0.4463 H   0  0  0  0  0  0  0  0  0  0  0  0
   -0.1854    3.0014   -0.1507 H   0  0  0  0  0  0  0  0  0  0  0  0
   -0.3072   -1.7463   -1.6898 H   0  0  0  0  0  0  0  0  0  0  0  0
   -1.1797   -4.0550   -1.4206 H   0  0  0  0  0  0  0  0  0  0  0  0
   -2.4146   -4.6003    0.6315 H   0  0  0  0  0  0  0  0  0  0  0  0
   -2.7551   -2.8591    2.3580 H   0  0  0  0  0  0  0  0  0  0  0  0
   -1.9517   -0.9045    3.3763 H   0  0  0  0  0  0  0  0  0  0  0  0
   -1.2451    0.4540    2.5091 H   0  0  0  0  0  0  0  0  0  0  0  0
   -3.0335    0.0428    2.3627 H   0  0  0  0  0  0  0  0  0  0  0  0
  1  2  1  0
  2  3  1  0
  2  4  1  0
  4  5  1  0
  5  6  1  0
  6  7  1  0
  7  8  1  0
  8  9  2  0
  9 10  1  0
 10 11  2  0
 11 12  1  0
 12 13  2  0
  7 14  1  0
 14 15  2  0
 15 16  1  0
 16 17  2  0
 17 18  1  0
 18 19  2  0
 19 20  1  0
 13  8  1  0
 19 14  1  0
  1 21  1  0
  1 22  1  0
  1 23  1  0
  3 24  1  0
  3 25  1  0
  3 26  1  0
  4 27  1  0
  4 28  1  0
  5 29  1  0
  5 30  1  0
  7 31  1  0
  9 32  1  0
 10 33  1  0
 11 34  1  0
 12 35  1  0
 13 36  1  0
 15 37  1  0
 16 38  1  0
 17 39  1  0
 18 40  1  0
 20 41  1  0
 20 42  1  0
 20 43  1  0
M  END
$$$$
