@<TRIPOS>MOLECULE
*****
 43 46 0 0 0
SMALL
GASTEIGER

@<TRIPOS>ATOM
      1 C           5.2453    2.6479    0.4912 C.3     1  UNL1        0.0596
      2 S           5.5870    1.0889   -0.2380 S.O2    1  UNL1       -0.0058
      3 O           5.2345    1.1637   -1.7068 O.2     1  UNL1       -0.1696
      4 O           7.0352    0.7380   -0.1502 O.2     1  UNL1       -0.1696
      5 C           4.6917   -0.2310    0.4888 C.ar    1  UNL1        0.0896
      6 C           3.4764   -0.6567    0.0200 C.ar    1  UNL1       -0.0156
      7 C           2.8262   -1.7128    0.6163 C.ar    1  UNL1        0.0354
      8 N           1.5774   -2.0383    0.0576 N.pl3   1  UNL1       -0.2835
      9 C           0.6855   -1.3446   -0.7894 C.ar    1  UNL1        0.2212
     10 N          -0.5774   -1.3422   -0.3493 N.ar    1  UNL1       -0.1992
     11 C          -1.6217   -0.7638   -0.9551 C.ar    1  UNL1        0.1281
     12 N          -2.9029   -0.8549   -0.3459 N.pl3   1  UNL1       -0.2952
     13 C          -3.8361   -0.2933    0.5390 C.ar    1  UNL1        0.0970
     14 C          -3.8548   -0.6094    1.8833 C.ar    1  UNL1        0.0659
     15 CL         -2.7017   -1.7205    2.5706 Cl      1  UNL1       -0.0815
     16 C          -4.8246   -0.0057    2.6589 C.ar    1  UNL1       -0.0379
     17 C          -5.7052    0.8651    2.0604 C.ar    1  UNL1       -0.0146
     18 C          -5.6879    1.1838    0.7125 C.ar    1  UNL1        0.1682
     19 C          -4.7193    0.5870   -0.0928 C.ar    1  UNL1        0.1887
     20 O          -4.8939    1.0458   -1.3725 O.3     1  UNL1       -0.4507
     21 C          -5.9304    1.9986   -1.3970 C.3     1  UNL1        0.2333
     22 O          -6.4783    2.0262   -0.0733 O.3     1  UNL1       -0.4525
     23 C          -1.3793   -0.1105   -2.1411 C.ar    1  UNL1       -0.0033
     24 C          -0.0983   -0.0831   -2.6380 C.ar    1  UNL1        0.0344
     25 N           0.8804   -0.6958   -1.9511 N.ar    1  UNL1       -0.2225
     26 C           3.3567   -2.3808    1.6932 C.ar    1  UNL1       -0.0404
     27 C           4.5756   -1.9737    2.1856 C.ar    1  UNL1       -0.0582
     28 C           5.2241   -0.9017    1.5723 C.ar    1  UNL1       -0.0368
     29 H           6.2020    3.2156    0.6015 H       1  UNL1        0.0468
     30 H           4.7580    2.5082    1.4772 H       1  UNL1        0.0468
     31 H           4.6231    3.2595   -0.1943 H       1  UNL1        0.0468
     32 H           3.1070   -0.0805   -0.8449 H       1  UNL1        0.0655
     33 H           1.2489   -3.0159    0.3347 H       1  UNL1        0.1550
     34 H          -3.2911   -1.7264   -0.7563 H       1  UNL1        0.1537
     35 H          -4.8991   -0.2078    3.7114 H       1  UNL1        0.0634
     36 H          -6.4726    1.3467    2.6573 H       1  UNL1        0.0656
     37 H          -5.6072    2.9842   -1.7336 H       1  UNL1        0.1166
     38 H          -6.7286    1.6231   -2.0672 H       1  UNL1        0.1166
     39 H          -2.2049    0.3703   -2.6584 H       1  UNL1        0.0667
     40 H           0.1508    0.4176   -3.5684 H       1  UNL1        0.0832
     41 H           2.7621   -3.2093    2.1037 H       1  UNL1        0.0636
     42 H           4.9719   -2.5138    3.0400 H       1  UNL1        0.0619
     43 H           6.1953   -0.5976    1.9895 H       1  UNL1        0.0636
@<TRIPOS>BOND
     1     1     2    1
     2     2     3    2
     3     2     4    2
     4     2     5    1
     5     5     6   ar
     6     6     7   ar
     7     7     8    1
     8     8     9    1
     9     9    10   ar
    10    10    11   ar
    11    11    12    1
    12    12    13    1
    13    13    14   ar
    14    14    15    1
    15    14    16   ar
    16    16    17   ar
    17    17    18   ar
    18    18    19   ar
    19    19    20    1
    20    20    21    1
    21    21    22    1
    22    11    23   ar
    23    23    24   ar
    24    24    25   ar
    25     7    26   ar
    26    26    27   ar
    27    27    28   ar
    28    28     5   ar
    29    25     9   ar
    30    19    13   ar
    31    22    18    1
    32     1    29    1
    33     1    30    1
    34     1    31    1
    35     6    32    1
    36     8    33    1
    37    12    34    1
    38    16    35    1
    39    17    36    1
    40    21    37    1
    41    21    38    1
    42    23    39    1
    43    24    40    1
    44    26    41    1
    45    27    42    1
    46    28    43    1
