
     RDKit          3D

 49 51  0  0  0  0  0  0  0  0999 V2000
   -4.2792    3.0003    0.4889 C   0  0  0  0  0  0  0  0  0  0  0  0
   -3.5019    2.1071   -0.0785 C   0  0  0  0  0  0  0  0  0  0  0  0
   -2.0453    2.3466   -0.1564 C   0  0  0  0  0  0  0  0  0  0  0  0
   -1.6116    1.8674   -1.5245 C   0  0  0  0  0  0  0  0  0  0  0  0
   -1.7811    0.3843   -1.5840 C   0  0  0  0  0  0  0  0  0  0  0  0
   -0.5377   -0.2615   -0.9273 C   0  0  0  0  0  0  0  0  0  0  0  0
   -0.7026   -1.6349   -0.9865 O   0  0  0  0  0  0  0  0  0  0  0  0
    0.1924   -2.5649   -0.4976 C   0  0  0  0  0  0  0  0  0  0  0  0
   -0.0340   -3.9555   -0.6014 C   0  0  0  0  0  0  0  0  0  0  0  0
   -1.1737   -4.5530   -1.2027 C   0  0  0  0  0  0  0  0  0  0  0  0
   -2.0947   -5.0537   -1.7063 N   0  0  0  0  0  0  0  0  0  0  0  0
    1.0443   -4.5580   -0.0184 C   0  0  0  0  0  0  0  0  0  0  0  0
    1.2695   -6.0525    0.1200 C   0  0  0  0  0  0  0  0  0  0  0  0
    1.2962   -6.5900   -1.1470 F   0  0  0  0  0  0  0  0  0  0  0  0
    0.3324   -6.6243    0.9309 F   0  0  0  0  0  0  0  0  0  0  0  0
    2.5083   -6.2480    0.7014 F   0  0  0  0  0  0  0  0  0  0  0  0
    1.8528   -3.5892    0.4015 N   0  0  0  0  0  0  0  0  0  0  0  0
    1.3555   -2.3713    0.1212 N   0  0  0  0  0  0  0  0  0  0  0  0
    1.9878   -1.1439    0.4484 C   0  0  0  0  0  0  0  0  0  0  0  0
    1.7998   -0.6097    1.7275 C   0  0  0  0  0  0  0  0  0  0  0  0
    2.4014    0.5716    2.1118 C   0  0  0  0  0  0  0  0  0  0  0  0
    3.1994    1.2401    1.2298 C   0  0  0  0  0  0  0  0  0  0  0  0
    4.0089    2.7429    1.6111 S   0  0  0  0  0  6  0  0  0  0  0  0
    2.9852    4.1336    1.1942 C   0  0  0  0  0  0  0  0  0  0  0  0
    5.2585    2.8124    0.8154 O   0  0  0  0  0  0  0  0  0  0  0  0
    4.3717    2.7461    3.0679 O   0  0  0  0  0  0  0  0  0  0  0  0
    3.3832    0.7116   -0.0303 C   0  0  0  0  0  0  0  0  0  0  0  0
    2.7823   -0.4433   -0.3754 N   0  0  0  0  0  0  0  0  0  0  0  0
   -3.0311   -0.1562   -0.9869 C   0  0  0  0  0  0  0  0  0  0  0  0
   -4.0716    0.8765   -0.6337 C   0  0  0  0  0  0  0  0  0  0  0  0
   -5.3577    2.8516    0.5614 H   0  0  0  0  0  0  0  0  0  0  0  0
   -3.8890    3.9128    0.9050 H   0  0  0  0  0  0  0  0  0  0  0  0
   -1.7842    3.4198    0.0009 H   0  0  0  0  0  0  0  0  0  0  0  0
   -1.5784    1.7054    0.6332 H   0  0  0  0  0  0  0  0  0  0  0  0
   -2.2013    2.3950   -2.3034 H   0  0  0  0  0  0  0  0  0  0  0  0
   -0.5213    2.1002   -1.6090 H   0  0  0  0  0  0  0  0  0  0  0  0
   -1.7756    0.1148   -2.6811 H   0  0  0  0  0  0  0  0  0  0  0  0
   -0.3737    0.1701    0.0675 H   0  0  0  0  0  0  0  0  0  0  0  0
    0.3566    0.0013   -1.5609 H   0  0  0  0  0  0  0  0  0  0  0  0
    1.1696   -1.1364    2.4258 H   0  0  0  0  0  0  0  0  0  0  0  0
    2.2663    1.0010    3.1011 H   0  0  0  0  0  0  0  0  0  0  0  0
    3.3334    5.0180    1.7583 H   0  0  0  0  0  0  0  0  0  0  0  0
    3.0754    4.3832    0.1179 H   0  0  0  0  0  0  0  0  0  0  0  0
    1.9338    3.8650    1.3987 H   0  0  0  0  0  0  0  0  0  0  0  0
    4.0217    1.2391   -0.7471 H   0  0  0  0  0  0  0  0  0  0  0  0
   -3.5377   -0.8910   -1.6717 H   0  0  0  0  0  0  0  0  0  0  0  0
   -2.8211   -0.7579   -0.0547 H   0  0  0  0  0  0  0  0  0  0  0  0
   -4.7510    1.0556   -1.5110 H   0  0  0  0  0  0  0  0  0  0  0  0
   -4.7311    0.4218    0.1560 H   0  0  0  0  0  0  0  0  0  0  0  0
  1  2  2  3
  2  3  1  0
  3  4  1  0
  4  5  1  0
  5  6  1  0
  6  7  1  0
  7  8  1  0
  8  9  2  0
  9 10  1  0
 10 11  3  0
  9 12  1  0
 12 13  1  0
 13 14  1  0
 13 15  1  0
 13 16  1  0
 12 17  2  0
 17 18  1  0
 18 19  1  0
 19 20  2  0
 20 21  1  0
 21 22  2  0
 22 23  1  0
 23 24  1  0
 23 25  2  0
 23 26  2  0
 22 27  1  0
 27 28  2  0
  5 29  1  0
 29 30  1  0
 30  2  1  0
 18  8  1  0
 28 19  1  0
  1 31  1  0
  1 32  1  0
  3 33  1  0
  3 34  1  0
  4 35  1  0
  4 36  1  0
  5 37  1  0
  6 38  1  0
  6 39  1  0
 20 40  1  0
 21 41  1  0
 24 42  1  0
 24 43  1  0
 24 44  1  0
 27 45  1  0
 29 46  1  0
 29 47  1  0
 30 48  1  0
 30 49  1  0
M  END
$$$$
