@<TRIPOS>MOLECULE
*****
 49 51 0 0 0
SMALL
GASTEIGER

@<TRIPOS>ATOM
      1 C          -4.2792    3.0003    0.4889 C.2     1  UNL1       -0.0994
      2 C          -3.5019    2.1071   -0.0785 C.2     1  UNL1       -0.0766
      3 C          -2.0453    2.3466   -0.1564 C.3     1  UNL1       -0.0316
      4 C          -1.6116    1.8674   -1.5245 C.3     1  UNL1       -0.0434
      5 C          -1.7811    0.3843   -1.5840 C.3     1  UNL1       -0.0062
      6 C          -0.5377   -0.2615   -0.9273 C.3     1  UNL1        0.0941
      7 O          -0.7026   -1.6349   -0.9865 O.3     1  UNL1       -0.4751
      8 C           0.1924   -2.5649   -0.4976 C.ar    1  UNL1        0.2378
      9 C          -0.0340   -3.9555   -0.6014 C.ar    1  UNL1        0.1447
     10 C          -1.1737   -4.5530   -1.2027 C.1     1  UNL1        0.1067
     11 N          -2.0947   -5.0537   -1.7063 N.1     1  UNL1       -0.1906
     12 C           1.0443   -4.5580   -0.0184 C.ar    1  UNL1        0.1867
     13 C           1.2695   -6.0525    0.1200 C.3     1  UNL1        0.4373
     14 F           1.2962   -6.5900   -1.1470 F       1  UNL1       -0.1643
     15 F           0.3324   -6.6243    0.9309 F       1  UNL1       -0.1643
     16 F           2.5083   -6.2480    0.7014 F       1  UNL1       -0.1643
     17 N           1.8528   -3.5892    0.4015 N.ar    1  UNL1       -0.1565
     18 N           1.3555   -2.3713    0.1212 N.ar    1  UNL1       -0.1805
     19 C           1.9878   -1.1439    0.4484 C.ar    1  UNL1        0.1578
     20 C           1.7998   -0.6097    1.7275 C.ar    1  UNL1       -0.0155
     21 C           2.4014    0.5716    2.1118 C.ar    1  UNL1       -0.0319
     22 C           3.1994    1.2401    1.2298 C.ar    1  UNL1        0.1060
     23 S           4.0089    2.7429    1.6111 S.O2    1  UNL1       -0.0044
     24 C           2.9852    4.1336    1.1942 C.3     1  UNL1        0.0596
     25 O           5.2585    2.8124    0.8154 O.2     1  UNL1       -0.1696
     26 O           4.3717    2.7461    3.0679 O.2     1  UNL1       -0.1696
     27 C           3.3832    0.7116   -0.0303 C.ar    1  UNL1        0.0547
     28 N           2.7823   -0.4433   -0.3754 N.ar    1  UNL1       -0.2342
     29 C          -3.0311   -0.1562   -0.9869 C.3     1  UNL1       -0.0434
     30 C          -4.0716    0.8765   -0.6337 C.3     1  UNL1       -0.0316
     31 H          -5.3577    2.8516    0.5614 H       1  UNL1        0.0534
     32 H          -3.8890    3.9128    0.9050 H       1  UNL1        0.0534
     33 H          -1.7842    3.4198    0.0009 H       1  UNL1        0.0310
     34 H          -1.5784    1.7054    0.6332 H       1  UNL1        0.0310
     35 H          -2.2013    2.3950   -2.3034 H       1  UNL1        0.0272
     36 H          -0.5213    2.1002   -1.6090 H       1  UNL1        0.0272
     37 H          -1.7756    0.1148   -2.6811 H       1  UNL1        0.0334
     38 H          -0.3737    0.1701    0.0675 H       1  UNL1        0.0700
     39 H           0.3566    0.0013   -1.5609 H       1  UNL1        0.0700
     40 H           1.1696   -1.1364    2.4258 H       1  UNL1        0.0655
     41 H           2.2663    1.0010    3.1011 H       1  UNL1        0.0638
     42 H           3.3334    5.0180    1.7583 H       1  UNL1        0.0468
     43 H           3.0754    4.3832    0.1179 H       1  UNL1        0.0468
     44 H           1.9338    3.8650    1.3987 H       1  UNL1        0.0468
     45 H           4.0217    1.2391   -0.7471 H       1  UNL1        0.0850
     46 H          -3.5377   -0.8910   -1.6717 H       1  UNL1        0.0272
     47 H          -2.8211   -0.7579   -0.0547 H       1  UNL1        0.0272
     48 H          -4.7510    1.0556   -1.5110 H       1  UNL1        0.0310
     49 H          -4.7311    0.4218    0.1560 H       1  UNL1        0.0310
@<TRIPOS>BOND
     1     1     2    2
     2     2     3    1
     3     3     4    1
     4     4     5    1
     5     5     6    1
     6     6     7    1
     7     7     8    1
     8     8     9   ar
     9     9    10    1
    10    10    11    3
    11     9    12   ar
    12    12    13    1
    13    13    14    1
    14    13    15    1
    15    13    16    1
    16    12    17   ar
    17    17    18   ar
    18    18    19    1
    19    19    20   ar
    20    20    21   ar
    21    21    22   ar
    22    22    23    1
    23    23    24    1
    24    23    25    2
    25    23    26    2
    26    22    27   ar
    27    27    28   ar
    28     5    29    1
    29    29    30    1
    30    30     2    1
    31    18     8   ar
    32    28    19   ar
    33     1    31    1
    34     1    32    1
    35     3    33    1
    36     3    34    1
    37     4    35    1
    38     4    36    1
    39     5    37    1
    40     6    38    1
    41     6    39    1
    42    20    40    1
    43    21    41    1
    44    24    42    1
    45    24    43    1
    46    24    44    1
    47    27    45    1
    48    29    46    1
    49    29    47    1
    50    30    48    1
    51    30    49    1
