@<TRIPOS>MOLECULE
*****
 16 16 0 0 0
SMALL
GASTEIGER

@<TRIPOS>ATOM
      1 O           2.6576    0.8742   -0.3313 O.3     1  UNL1       -0.4770
      2 C           2.0060   -0.2722    0.1473 C.2     1  UNL1        0.3404
      3 O           2.6955   -1.2332    0.5508 O.2     1  UNL1       -0.2450
      4 C           0.5304   -0.2086    0.1179 C.ar    1  UNL1        0.1001
      5 C          -0.0887   -1.3636    0.6002 C.ar    1  UNL1       -0.0442
      6 C          -1.4733   -1.4164    0.6197 C.ar    1  UNL1       -0.0608
      7 C          -2.1751   -0.3146    0.1572 C.ar    1  UNL1       -0.0583
      8 C          -1.5647    0.8276   -0.3198 C.ar    1  UNL1       -0.0194
      9 C          -0.1856    0.8767   -0.3377 C.ar    1  UNL1        0.1308
     10 O           0.5239    1.9860   -0.8007 O.3     1  UNL1       -0.5059
     11 H           3.6312    0.9835   -0.0161 H       1  UNL1        0.2954
     12 H           0.4328   -2.2244    0.9615 H       1  UNL1        0.0627
     13 H          -2.0877   -2.2231    0.9562 H       1  UNL1        0.0618
     14 H          -3.2727   -0.2782    0.1399 H       1  UNL1        0.0619
     15 H          -2.1259    1.6823   -0.6785 H       1  UNL1        0.0654
     16 H           0.4963    2.3041   -1.7665 H       1  UNL1        0.2922
@<TRIPOS>BOND
     1     1     2    1
     2     2     3    2
     3     2     4    1
     4     4     5   ar
     5     5     6   ar
     6     6     7   ar
     7     7     8   ar
     8     8     9   ar
     9     9    10    1
    10     9     4   ar
    11     1    11    1
    12     5    12    1
    13     6    13    1
    14     7    14    1
    15     8    15    1
    16    10    16    1
