@<TRIPOS>MOLECULE
*****
 64 68 0 0 0
SMALL
GASTEIGER

@<TRIPOS>ATOM
      1 C           9.4535    1.0267    0.4640 C.3     1  UNL1        0.0788
      2 O           8.9862    0.0869   -0.4780 O.3     1  UNL1       -0.4951
      3 C           7.8150   -0.6208   -0.2584 C.ar    1  UNL1        0.1201
      4 C           7.3582   -1.5399   -1.1787 C.ar    1  UNL1       -0.0196
      5 C           6.2040   -2.2509   -0.9840 C.ar    1  UNL1       -0.0536
      6 C           5.4357   -2.0770    0.1575 C.ar    1  UNL1       -0.0301
      7 C           4.2121   -2.8524    0.3704 C.3     1  UNL1        0.0371
      8 N           3.0264   -2.2974   -0.2608 N.am    1  UNL1       -0.3072
      9 C           2.3252   -1.2235    0.2677 C.2     1  UNL1        0.2471
     10 O           2.7755   -0.7307    1.3743 O.2     1  UNL1       -0.2701
     11 C           1.1452   -0.5832   -0.2669 C.ar    1  UNL1        0.0721
     12 C           0.4244    0.3574    0.4834 C.ar    1  UNL1       -0.0416
     13 C          -0.6946    0.9663    0.0214 C.ar    1  UNL1       -0.0217
     14 C          -1.4223    2.0056    0.8538 C.3     1  UNL1        0.0815
     15 N          -0.4766    3.0422    1.1123 N.am    1  UNL1       -0.2881
     16 C          -0.6522    4.3623    0.6767 C.2     1  UNL1        0.3043
     17 O           0.2168    5.2701    0.8552 O.2     1  UNL1       -0.2525
     18 N          -1.8535    4.7086    0.0045 N.am    1  UNL1       -0.2729
     19 C          -2.8470    3.6945   -0.2161 C.2     1  UNL1        0.0191
     20 C          -4.0849    4.1417   -0.9135 C.3     1  UNL1       -0.0259
     21 C          -2.6479    2.4489    0.1841 C.2     1  UNL1        0.0559
     22 C          -3.7534    1.4719   -0.0386 C.2     1  UNL1        0.2478
     23 O          -4.8269    1.7882   -0.5909 O.2     1  UNL1       -0.2701
     24 N          -3.6626    0.1122    0.3662 N.am    1  UNL1       -0.2816
     25 C          -4.7167   -0.8154    0.1464 C.ar    1  UNL1        0.0344
     26 C          -4.7888   -1.5662   -1.0043 C.ar    1  UNL1       -0.0384
     27 C          -5.8321   -2.4729   -1.2048 C.ar    1  UNL1       -0.0345
     28 C          -6.8042   -2.6354   -0.2645 C.ar    1  UNL1        0.0658
     29 N          -7.9064   -3.4322   -0.2111 N.ar    1  UNL1       -0.2770
     30 N          -8.5162   -3.1922    0.9434 N.ar    1  UNL1       -0.1812
     31 C          -7.8480   -2.2639    1.6463 C.ar    1  UNL1        0.0569
     32 C          -6.7526   -1.8968    0.8914 C.ar    1  UNL1        0.0212
     33 C          -5.7059   -0.9917    1.0851 C.ar    1  UNL1       -0.0298
     34 C          -1.1504    0.6586   -1.2299 C.ar    1  UNL1       -0.0537
     35 C          -0.4866   -0.2649   -2.0305 C.ar    1  UNL1       -0.0254
     36 C           0.6553   -0.8588   -1.5063 C.ar    1  UNL1        0.1355
     37 F           1.2566   -1.7387   -2.3436 F       1  UNL1       -0.2047
     38 C           5.8801   -1.1720    1.0706 C.ar    1  UNL1       -0.0536
     39 C           7.0593   -0.4411    0.8783 C.ar    1  UNL1       -0.0196
     40 H           8.7801    1.8803    0.6141 H       1  UNL1        0.0660
     41 H           9.6335    0.4454    1.4124 H       1  UNL1        0.0660
     42 H          10.4544    1.4145    0.1775 H       1  UNL1        0.0660
     43 H           7.9613   -1.6799   -2.0801 H       1  UNL1        0.0654
     44 H           5.8504   -2.9687   -1.7064 H       1  UNL1        0.0622
     45 H           4.3136   -3.9190    0.0841 H       1  UNL1        0.0512
     46 H           4.0241   -2.8711    1.4837 H       1  UNL1        0.0512
     47 H           2.6927   -2.7353   -1.1427 H       1  UNL1        0.1493
     48 H           0.8095    0.5783    1.4661 H       1  UNL1        0.0629
     49 H          -1.6415    1.4738    1.8202 H       1  UNL1        0.0601
     50 H           0.4196    2.8597    1.6565 H       1  UNL1        0.1512
     51 H          -2.0299    5.6677   -0.3284 H       1  UNL1        0.1561
     52 H          -4.2855    3.5943   -1.8542 H       1  UNL1        0.0290
     53 H          -4.0197    5.2255   -1.1726 H       1  UNL1        0.0290
     54 H          -4.9527    4.0311   -0.2492 H       1  UNL1        0.0290
     55 H          -2.8083   -0.2232    0.8524 H       1  UNL1        0.1551
     56 H          -4.0280   -1.4495   -1.7576 H       1  UNL1        0.0637
     57 H          -5.8977   -3.0712   -2.1112 H       1  UNL1        0.0639
     58 H          -8.2371   -4.1203   -0.9368 H       1  UNL1        0.1889
     59 H          -8.0668   -1.8422    2.6149 H       1  UNL1        0.0854
     60 H          -5.6756   -0.4164    1.9978 H       1  UNL1        0.0643
     61 H          -2.0305    1.0999   -1.6820 H       1  UNL1        0.0622
     62 H          -0.8408   -0.5082   -3.0097 H       1  UNL1        0.0646
     63 H           5.3670   -0.9693    1.9917 H       1  UNL1        0.0622
     64 H           7.4082    0.2793    1.6100 H       1  UNL1        0.0654
@<TRIPOS>BOND
     1     1     2    1
     2     2     3    1
     3     3     4   ar
     4     4     5   ar
     5     5     6   ar
     6     6     7    1
     7     7     8    1
     8     8     9   am
     9     9    10    2
    10     9    11    1
    11    11    12   ar
    12    12    13   ar
    13    13    14    1
    14    14    15    1
    15    15    16   am
    16    16    17    2
    17    16    18   am
    18    18    19    1
    19    19    20    1
    20    19    21    2
    21    21    22    1
    22    22    23    2
    23    22    24   am
    24    24    25    1
    25    25    26   ar
    26    26    27   ar
    27    27    28   ar
    28    28    29   ar
    29    29    30   ar
    30    30    31   ar
    31    31    32   ar
    32    32    33   ar
    33    13    34   ar
    34    34    35   ar
    35    35    36   ar
    36    36    37    1
    37     6    38   ar
    38    38    39   ar
    39    39     3   ar
    40    36    11   ar
    41    21    14    1
    42    33    25   ar
    43    32    28   ar
    44     1    40    1
    45     1    41    1
    46     1    42    1
    47     4    43    1
    48     5    44    1
    49     7    45    1
    50     7    46    1
    51     8    47    1
    52    12    48    1
    53    14    49    1
    54    15    50    1
    55    18    51    1
    56    20    52    1
    57    20    53    1
    58    20    54    1
    59    24    55    1
    60    26    56    1
    61    27    57    1
    62    29    58    1
    63    31    59    1
    64    33    60    1
    65    34    61    1
    66    35    62    1
    67    38    63    1
    68    39    64    1
