@<TRIPOS>MOLECULE
*****
 66 69 0 0 0
SMALL
GASTEIGER

@<TRIPOS>ATOM
      1 O           9.5481   -2.2611    0.1923 O.2     1  UNL1       -0.3402
      2 N           8.2767   -1.6997    0.2853 N.2     1  UNL1        0.1093
      3 C           8.0703   -0.4522    0.4832 C.cat   1  UNL1        0.4083
      4 N           9.3832    0.1008    0.5660 N.pl3   1  UNL1       -0.2487
      5 N           6.6884   -0.0537    0.5528 N.pl3   1  UNL1       -0.2222
      6 C           5.8179   -0.4260   -0.5483 C.3     1  UNL1        0.0609
      7 C           4.5703    0.4467   -0.4777 C.3     1  UNL1       -0.0195
      8 C           4.1283    0.3661    0.9871 C.3     1  UNL1       -0.0201
      9 C           5.0342    1.3223    1.7291 C.3     1  UNL1       -0.0195
     10 C           6.3990    0.6828    1.7674 C.3     1  UNL1        0.0609
     11 C           2.6774    0.7194    1.1286 C.3     1  UNL1        0.0147
     12 N           1.9171   -0.2417    0.3200 N.am    1  UNL1       -0.3135
     13 C           0.4995   -0.0698    0.3195 C.2     1  UNL1        0.2336
     14 O           0.1728    0.9034    1.0374 O.2     1  UNL1       -0.2738
     15 C          -0.2174   -1.0729   -0.5202 C.3     1  UNL1        0.1026
     16 C          -0.0048   -0.7671   -2.0090 C.3     1  UNL1       -0.0240
     17 C          -0.9221    0.3946   -2.3275 C.3     1  UNL1       -0.0309
     18 C          -1.8432    0.4924   -1.1504 C.3     1  UNL1        0.0412
     19 C          -3.2821    0.7034   -1.5321 C.3     1  UNL1        0.0393
     20 N          -4.0726   -0.4513   -1.5362 N.3     1  UNL1       -0.1703
     21 C          -4.0499   -1.3512   -0.4662 C.3     1  UNL1        0.0967
     22 C          -2.7213   -1.4300    0.2153 C.2     1  UNL1        0.2322
     23 O          -2.4867   -2.0338    1.2808 O.2     1  UNL1       -0.2741
     24 N          -1.6404   -0.7481   -0.4262 N.am    1  UNL1       -0.2845
     25 S          -5.6281   -0.1846   -2.1470 S.O2    1  UNL1        0.0364
     26 O          -6.4242   -1.4674   -2.2709 O.2     1  UNL1       -0.1577
     27 O          -5.4441    0.4051   -3.5494 O.2     1  UNL1       -0.1577
     28 C          -6.6113    0.9712   -1.2681 C.3     1  UNL1        0.1069
     29 C          -6.8770    0.6604    0.1363 C.ar    1  UNL1       -0.0250
     30 C          -7.9616   -0.1682    0.4415 C.ar    1  UNL1       -0.0570
     31 C          -8.3685   -0.5487    1.7053 C.ar    1  UNL1       -0.0615
     32 C          -7.6149   -0.0486    2.7499 C.ar    1  UNL1       -0.0617
     33 C          -6.5312    0.7740    2.5314 C.ar    1  UNL1       -0.0615
     34 C          -6.1654    1.1247    1.2509 C.ar    1  UNL1       -0.0570
     35 H           9.9339   -2.3307   -0.7378 H       1  UNL1        0.3503
     36 H           9.9841   -0.0664    1.4101 H       1  UNL1        0.2413
     37 H           9.6905    0.6611   -0.2401 H       1  UNL1        0.2413
     38 H           5.4702   -1.4870   -0.4564 H       1  UNL1        0.0634
     39 H           6.2999   -0.2256   -1.5232 H       1  UNL1        0.0634
     40 H           3.8106    0.0974   -1.1798 H       1  UNL1        0.0297
     41 H           4.8797    1.4817   -0.6734 H       1  UNL1        0.0297
     42 H           4.3071   -0.6637    1.3608 H       1  UNL1        0.0318
     43 H           4.7131    1.5274    2.7668 H       1  UNL1        0.0297
     44 H           5.1362    2.2757    1.1600 H       1  UNL1        0.0297
     45 H           6.3600   -0.0627    2.5999 H       1  UNL1        0.0634
     46 H           7.1938    1.4417    1.9309 H       1  UNL1        0.0634
     47 H           2.5097    1.7402    0.7376 H       1  UNL1        0.0465
     48 H           2.3983    0.6908    2.1827 H       1  UNL1        0.0465
     49 H           2.4035   -1.0149   -0.2272 H       1  UNL1        0.1487
     50 H           0.0289   -2.0991   -0.2664 H       1  UNL1        0.0597
     51 H           1.0382   -0.5729   -2.2606 H       1  UNL1        0.0288
     52 H          -0.3520   -1.7055   -2.5351 H       1  UNL1        0.0288
     53 H          -0.2603    1.3024   -2.4171 H       1  UNL1        0.0284
     54 H          -1.4473    0.2748   -3.2949 H       1  UNL1        0.0284
     55 H          -1.5151    1.3362   -0.5186 H       1  UNL1        0.0514
     56 H          -3.7211    1.4285   -0.7944 H       1  UNL1        0.0462
     57 H          -3.3110    1.1778   -2.5360 H       1  UNL1        0.0462
     58 H          -4.7933   -1.1959    0.3369 H       1  UNL1        0.0539
     59 H          -4.1998   -2.3942   -0.8834 H       1  UNL1        0.0539
     60 H          -6.2156    2.0109   -1.3552 H       1  UNL1        0.0565
     61 H          -7.6071    1.0073   -1.7896 H       1  UNL1        0.0565
     62 H          -8.5539   -0.5605   -0.3973 H       1  UNL1        0.0621
     63 H          -9.2254   -1.1950    1.8168 H       1  UNL1        0.0618
     64 H          -7.9658   -0.3712    3.7379 H       1  UNL1        0.0618
     65 H          -5.9828    1.1314    3.3916 H       1  UNL1        0.0618
     66 H          -5.3236    1.7690    1.0400 H       1  UNL1        0.0621
@<TRIPOS>BOND
     1     1     2    1
     2     2     3    2
     3     3     4    1
     4     3     5    1
     5     5     6    1
     6     6     7    1
     7     7     8    1
     8     8     9    1
     9     9    10    1
    10     8    11    1
    11    11    12    1
    12    12    13   am
    13    13    14    2
    14    13    15    1
    15    15    16    1
    16    16    17    1
    17    17    18    1
    18    18    19    1
    19    19    20    1
    20    20    21    1
    21    21    22    1
    22    22    23    2
    23    22    24   am
    24    20    25    1
    25    25    26    2
    26    25    27    2
    27    25    28    1
    28    28    29    1
    29    29    30   ar
    30    30    31   ar
    31    31    32   ar
    32    32    33   ar
    33    33    34   ar
    34    10     5    1
    35    24    15    1
    36    34    29   ar
    37    24    18    1
    38     1    35    1
    39     4    36    1
    40     4    37    1
    41     6    38    1
    42     6    39    1
    43     7    40    1
    44     7    41    1
    45     8    42    1
    46     9    43    1
    47     9    44    1
    48    10    45    1
    49    10    46    1
    50    11    47    1
    51    11    48    1
    52    12    49    1
    53    15    50    1
    54    16    51    1
    55    16    52    1
    56    17    53    1
    57    17    54    1
    58    18    55    1
    59    19    56    1
    60    19    57    1
    61    21    58    1
    62    21    59    1
    63    28    60    1
    64    28    61    1
    65    30    62    1
    66    31    63    1
    67    32    64    1
    68    33    65    1
    69    34    66    1
