@<TRIPOS>MOLECULE
*****
 28 30 0 0 0
SMALL
GASTEIGER

@<TRIPOS>ATOM
      1 O           5.2076   -0.3432    0.8616 O.3     1  UNL1       -0.4795
      2 C           3.8174   -0.3025    0.9123 C.2     1  UNL1        0.3228
      3 O           3.4423   -0.2446    2.1312 O.2     1  UNL1       -0.2492
      4 C           3.1057   -0.3336   -0.3972 C.3     1  UNL1        0.1199
      5 N           1.6786   -0.2881   -0.2517 N.am    1  UNL1       -0.2233
      6 C           0.8131   -1.4113   -0.1219 C.2     1  UNL1        0.2542
      7 O           1.3781   -2.5373   -0.1395 O.2     1  UNL1       -0.2695
      8 C          -0.6474   -1.2348    0.0223 C.ar    1  UNL1        0.0457
      9 C          -1.4288   -2.3684    0.1438 C.ar    1  UNL1       -0.0490
     10 C          -2.7759   -2.1318    0.2741 C.ar    1  UNL1       -0.0605
     11 C          -3.3639   -0.8916    0.2899 C.ar    1  UNL1       -0.0540
     12 C          -2.5511    0.2401    0.1653 C.ar    1  UNL1       -0.0164
     13 C          -3.1191    1.5115    0.1780 C.ar    1  UNL1       -0.0540
     14 C          -2.3072    2.6251    0.0541 C.ar    1  UNL1       -0.0605
     15 C          -0.9467    2.4456   -0.0797 C.ar    1  UNL1       -0.0490
     16 C          -0.4140    1.1699   -0.0886 C.ar    1  UNL1        0.0457
     17 C           1.0283    0.9982   -0.2311 C.2     1  UNL1        0.2542
     18 O           1.7347    2.0245   -0.3410 O.2     1  UNL1       -0.2695
     19 C          -1.1897    0.0356    0.0323 C.ar    1  UNL1        0.0064
     20 H           5.8093    0.1824    1.5148 H       1  UNL1        0.2951
     21 H           3.3475   -1.2469   -0.9854 H       1  UNL1        0.0585
     22 H           3.4089    0.5379   -1.0277 H       1  UNL1        0.0585
     23 H          -1.0057   -3.3578    0.1359 H       1  UNL1        0.0625
     24 H          -3.4782   -2.9470    0.3759 H       1  UNL1        0.0618
     25 H          -4.4229   -0.7357    0.3935 H       1  UNL1        0.0624
     26 H          -4.1775    1.6564    0.2818 H       1  UNL1        0.0624
     27 H          -2.6656    3.6495    0.0540 H       1  UNL1        0.0618
     28 H          -0.2778    3.2980   -0.1794 H       1  UNL1        0.0625
@<TRIPOS>BOND
     1     1     2    1
     2     2     3    2
     3     2     4    1
     4     4     5    1
     5     5     6   am
     6     6     7    2
     7     6     8    1
     8     8     9   ar
     9     9    10   ar
    10    10    11   ar
    11    11    12   ar
    12    12    13   ar
    13    13    14   ar
    14    14    15   ar
    15    15    16   ar
    16    16    17    1
    17    17    18    2
    18    16    19   ar
    19    17     5   am
    20    19     8   ar
    21    19    12   ar
    22     1    20    1
    23     4    21    1
    24     4    22    1
    25     9    23    1
    26    10    24    1
    27    11    25    1
    28    13    26    1
    29    14    27    1
    30    15    28    1
