@<TRIPOS>MOLECULE
*****
 77 79 0 0 0
SMALL
GASTEIGER

@<TRIPOS>ATOM
      1 O          -3.4279    0.3677    0.8447 O.2     1  UNL1       -0.2509
      2 C          -3.0163   -0.7528    0.5009 C.2     1  UNL1        0.3072
      3 C          -3.9949   -1.8576    0.7867 C.3     1  UNL1        0.0452
      4 C          -3.4913   -3.1798    0.3194 C.3     1  UNL1       -0.0390
      5 C          -4.4844   -4.2587    0.6273 C.3     1  UNL1       -0.0272
      6 C          -5.7632   -3.9551   -0.0580 C.ar    1  UNL1       -0.0473
      7 C          -5.9813   -4.4209   -1.3590 C.ar    1  UNL1       -0.0586
      8 C          -7.1893   -4.1372   -1.9899 C.ar    1  UNL1       -0.0615
      9 C          -8.1758   -3.4174   -1.3847 C.ar    1  UNL1       -0.0617
     10 C          -7.9911   -2.9482   -0.1118 C.ar    1  UNL1       -0.0615
     11 C          -6.8108   -3.2228    0.5107 C.ar    1  UNL1       -0.0586
     12 O          -1.8285   -1.0711   -0.0805 O.3     1  UNL1       -0.4608
     13 C          -0.8407   -0.1216   -0.3899 C.3     1  UNL1        0.1325
     14 C          -0.3992    0.5233    0.9087 C.3     1  UNL1        0.1706
     15 C          -0.1713   -0.5622    1.8937 C.3     1  UNL1        0.1325
     16 O           0.8641   -1.4205    1.7289 O.3     1  UNL1       -0.4608
     17 C           2.1908   -1.3727    1.7131 C.2     1  UNL1        0.3072
     18 O           1.9107   -0.1940    1.9322 O.2     1  UNL1       -0.2509
     19 C           3.6568   -1.3591    1.6884 C.3     1  UNL1        0.0452
     20 C           4.1616   -0.8028    0.3708 C.3     1  UNL1       -0.0390
     21 C           3.6715   -1.6603   -0.7388 C.3     1  UNL1       -0.0272
     22 C           4.0798   -3.0600   -0.7172 C.ar    1  UNL1       -0.0473
     23 C           3.4207   -4.1203   -0.1304 C.ar    1  UNL1       -0.0586
     24 C           3.8987   -5.4232   -0.1665 C.ar    1  UNL1       -0.0615
     25 C           5.0903   -5.6644   -0.8214 C.ar    1  UNL1       -0.0617
     26 C           5.7850   -4.6137   -1.4272 C.ar    1  UNL1       -0.0615
     27 C           5.2533   -3.3272   -1.3567 C.ar    1  UNL1       -0.0586
     28 O           0.5844    1.4808    0.7350 O.3     1  UNL1       -0.4544
     29 C           0.3959    2.8256    0.9856 C.2     1  UNL1        0.3076
     30 O          -0.6547    3.4064    1.3984 O.2     1  UNL1       -0.2508
     31 C           1.2930    3.9993    0.8707 C.3     1  UNL1        0.0452
     32 C           0.5686    5.2509    1.2777 C.3     1  UNL1       -0.0390
     33 C           1.4282    6.4739    1.1875 C.3     1  UNL1       -0.0272
     34 C           1.9554    6.7707   -0.1470 C.ar    1  UNL1       -0.0473
     35 C           1.1910    7.5862   -0.9897 C.ar    1  UNL1       -0.0586
     36 C           1.5856    7.9357   -2.2641 C.ar    1  UNL1       -0.0615
     37 C           2.7867    7.4771   -2.7666 C.ar    1  UNL1       -0.0617
     38 C           3.5588    6.6710   -1.9552 C.ar    1  UNL1       -0.0615
     39 C           3.1575    6.3256   -0.6802 C.ar    1  UNL1       -0.0586
     40 H          -4.1034   -1.8881    1.8903 H       1  UNL1        0.0378
     41 H          -4.9822   -1.6067    0.3449 H       1  UNL1        0.0378
     42 H          -3.3043   -3.1089   -0.7648 H       1  UNL1        0.0274
     43 H          -2.5588   -3.4365    0.8598 H       1  UNL1        0.0274
     44 H          -4.7043   -4.3628    1.6967 H       1  UNL1        0.0313
     45 H          -4.1061   -5.2640    0.3066 H       1  UNL1        0.0313
     46 H          -5.2415   -4.9969   -1.8937 H       1  UNL1        0.0620
     47 H          -7.3499   -4.5060   -3.0111 H       1  UNL1        0.0618
     48 H          -9.1373   -3.1807   -1.8612 H       1  UNL1        0.0618
     49 H          -8.7374   -2.3619    0.4386 H       1  UNL1        0.0618
     50 H          -6.6578   -2.8465    1.5336 H       1  UNL1        0.0620
     51 H           0.0322   -0.6210   -0.7982 H       1  UNL1        0.0736
     52 H          -1.3134    0.6086   -1.0747 H       1  UNL1        0.0736
     53 H          -1.3094    1.0985    1.2751 H       1  UNL1        0.0803
     54 H          -0.1148   -0.1026    2.9420 H       1  UNL1        0.0736
     55 H          -1.1172   -1.1912    1.9896 H       1  UNL1        0.0736
     56 H           4.0008   -2.4352    1.7392 H       1  UNL1        0.0378
     57 H           4.1143   -0.8892    2.5714 H       1  UNL1        0.0378
     58 H           3.6371    0.1910    0.2515 H       1  UNL1        0.0274
     59 H           5.2304   -0.5849    0.3780 H       1  UNL1        0.0274
     60 H           3.8733   -1.1609   -1.7245 H       1  UNL1        0.0313
     61 H           2.5437   -1.6458   -0.6826 H       1  UNL1        0.0313
     62 H           2.4974   -3.9028    0.3712 H       1  UNL1        0.0620
     63 H           3.2992   -6.1987    0.3302 H       1  UNL1        0.0618
     64 H           5.3698   -6.7123   -0.7894 H       1  UNL1        0.0618
     65 H           6.6845   -4.9596   -1.8916 H       1  UNL1        0.0618
     66 H           5.9000   -2.6311   -1.8673 H       1  UNL1        0.0620
     67 H           1.7583    4.0393   -0.1153 H       1  UNL1        0.0378
     68 H           2.1068    3.8714    1.6437 H       1  UNL1        0.0378
     69 H           0.2808    5.1483    2.3470 H       1  UNL1        0.0274
     70 H          -0.3972    5.3640    0.7257 H       1  UNL1        0.0274
     71 H           0.8121    7.3624    1.5192 H       1  UNL1        0.0313
     72 H           2.2245    6.4070    1.9558 H       1  UNL1        0.0313
     73 H           0.2310    7.9819   -0.6535 H       1  UNL1        0.0620
     74 H           0.9446    8.5766   -2.8707 H       1  UNL1        0.0618
     75 H           3.0521    7.7757   -3.7650 H       1  UNL1        0.0618
     76 H           4.5147    6.3057   -2.3539 H       1  UNL1        0.0618
     77 H           3.7594    5.6934   -0.0367 H       1  UNL1        0.0620
@<TRIPOS>BOND
     1     1     2    2
     2     2     3    1
     3     3     4    1
     4     4     5    1
     5     5     6    1
     6     6     7   ar
     7     7     8   ar
     8     8     9   ar
     9     9    10   ar
    10    10    11   ar
    11     2    12    1
    12    12    13    1
    13    13    14    1
    14    14    15    1
    15    15    16    1
    16    16    17    1
    17    17    18    2
    18    17    19    1
    19    19    20    1
    20    20    21    1
    21    21    22    1
    22    22    23   ar
    23    23    24   ar
    24    24    25   ar
    25    25    26   ar
    26    26    27   ar
    27    14    28    1
    28    28    29    1
    29    29    30    2
    30    29    31    1
    31    31    32    1
    32    32    33    1
    33    33    34    1
    34    34    35   ar
    35    35    36   ar
    36    36    37   ar
    37    37    38   ar
    38    38    39   ar
    39    11     6   ar
    40    27    22   ar
    41    39    34   ar
    42     3    40    1
    43     3    41    1
    44     4    42    1
    45     4    43    1
    46     5    44    1
    47     5    45    1
    48     7    46    1
    49     8    47    1
    50     9    48    1
    51    10    49    1
    52    11    50    1
    53    13    51    1
    54    13    52    1
    55    14    53    1
    56    15    54    1
    57    15    55    1
    58    19    56    1
    59    19    57    1
    60    20    58    1
    61    20    59    1
    62    21    60    1
    63    21    61    1
    64    23    62    1
    65    24    63    1
    66    25    64    1
    67    26    65    1
    68    27    66    1
    69    31    67    1
    70    31    68    1
    71    32    69    1
    72    32    70    1
    73    33    71    1
    74    33    72    1
    75    35    73    1
    76    36    74    1
    77    37    75    1
    78    38    76    1
    79    39    77    1
