@<TRIPOS>MOLECULE
*****
 44 45 0 0 0
SMALL
GASTEIGER

@<TRIPOS>ATOM
      1 C          -4.6800   -0.6265   -0.9051 C.3     1  UNL1       -0.0606
      2 C          -4.1676    0.5469   -0.1358 C.3     1  UNL1       -0.0185
      3 C          -4.6153    0.4232    1.3108 C.3     1  UNL1       -0.0606
      4 C          -2.6615    0.6854   -0.1539 C.3     1  UNL1        0.1319
      5 N          -2.2903    1.8180    0.6027 N.3     1  UNL1       -0.1750
      6 S          -1.3083    1.5287    1.9631 S.O2    1  UNL1        0.0592
      7 O          -0.9295    2.8283    2.6599 O.2     1  UNL1       -0.1530
      8 O          -1.9033    0.5624    2.9474 O.2     1  UNL1       -0.1530
      9 C           0.1840    0.8269    1.4110 C.ar    1  UNL1        0.1053
     10 C           0.3148   -0.5277    1.3368 C.ar    1  UNL1       -0.0348
     11 C           1.5111   -1.0621    0.8909 C.ar    1  UNL1       -0.0522
     12 C           2.5875   -0.2870    0.5144 C.ar    1  UNL1       -0.0177
     13 C           3.8361   -0.8811    0.0484 C.ar    1  UNL1       -0.0152
     14 C           4.6618   -0.2780   -0.8743 C.ar    1  UNL1       -0.0539
     15 C           5.8264   -0.8644   -1.2883 C.ar    1  UNL1       -0.0585
     16 C           6.2323   -2.0816   -0.8073 C.ar    1  UNL1       -0.0264
     17 C           5.4280   -2.7145    0.1196 C.ar    1  UNL1        0.1240
     18 F           5.8192   -3.9121    0.5986 F       1  UNL1       -0.2055
     19 C           4.2439   -2.1120    0.5366 C.ar    1  UNL1       -0.0187
     20 C           2.4168    1.0879    0.6036 C.ar    1  UNL1       -0.0522
     21 C           1.2187    1.6393    1.0505 C.ar    1  UNL1       -0.0348
     22 P          -2.1265    0.7141   -1.8715 P.3     1  UNL1        0.3463
     23 O          -2.8081   -0.4248   -2.5950 O.2     1  UNL1       -0.2571
     24 O          -0.4638    0.4543   -2.0266 O.3     1  UNL1       -0.3230
     25 O          -2.5731    2.1422   -2.6596 O.3     1  UNL1       -0.3230
     26 H          -5.0356   -0.3871   -1.9289 H       1  UNL1        0.0233
     27 H          -3.9700   -1.4599   -0.8684 H       1  UNL1        0.0233
     28 H          -5.6162   -0.9791   -0.3762 H       1  UNL1        0.0233
     29 H          -4.6097    1.5046   -0.5272 H       1  UNL1        0.0317
     30 H          -5.7291    0.2650    1.3386 H       1  UNL1        0.0233
     31 H          -4.3312    1.3049    1.9115 H       1  UNL1        0.0233
     32 H          -4.1706   -0.4668    1.7980 H       1  UNL1        0.0233
     33 H          -2.2378   -0.2189    0.3149 H       1  UNL1        0.0605
     34 H          -3.0386    2.4737    0.8557 H       1  UNL1        0.1490
     35 H          -0.4870   -1.2033    1.6163 H       1  UNL1        0.0637
     36 H           1.5828   -2.1409    0.8439 H       1  UNL1        0.0624
     37 H           4.3537    0.6802   -1.2605 H       1  UNL1        0.0624
     38 H           6.4793   -0.3807   -2.0221 H       1  UNL1        0.0619
     39 H           7.1487   -2.5374   -1.1368 H       1  UNL1        0.0646
     40 H           3.6252   -2.6264    1.2669 H       1  UNL1        0.0652
     41 H           3.2633    1.6856    0.3073 H       1  UNL1        0.0624
     42 H           1.1758    2.7288    1.0877 H       1  UNL1        0.0637
     43 H          -0.3214   -0.5297   -1.8700 H       1  UNL1        0.2198
     44 H          -1.8351    2.8016   -2.6812 H       1  UNL1        0.2198
@<TRIPOS>BOND
     1     1     2    1
     2     2     3    1
     3     2     4    1
     4     4     5    1
     5     5     6    1
     6     6     7    2
     7     6     8    2
     8     6     9    1
     9     9    10   ar
    10    10    11   ar
    11    11    12   ar
    12    12    13    1
    13    13    14   ar
    14    14    15   ar
    15    15    16   ar
    16    16    17   ar
    17    17    18    1
    18    17    19   ar
    19    12    20   ar
    20    20    21   ar
    21     4    22    1
    22    22    23    2
    23    22    24    1
    24    22    25    1
    25    21     9   ar
    26    19    13   ar
    27     1    26    1
    28     1    27    1
    29     1    28    1
    30     2    29    1
    31     3    30    1
    32     3    31    1
    33     3    32    1
    34     4    33    1
    35     5    34    1
    36    10    35    1
    37    11    36    1
    38    14    37    1
    39    15    38    1
    40    16    39    1
    41    19    40    1
    42    20    41    1
    43    21    42    1
    44    24    43    1
    45    25    44    1
