
     RDKit          3D

 44 45  0  0  0  0  0  0  0  0999 V2000
   -4.6800   -0.6265   -0.9051 C   0  0  0  0  0  0  0  0  0  0  0  0
   -4.1676    0.5469   -0.1358 C   0  0  0  0  0  0  0  0  0  0  0  0
   -4.6153    0.4232    1.3108 C   0  0  0  0  0  0  0  0  0  0  0  0
   -2.6615    0.6854   -0.1539 C   0  0  2  0  0  0  0  0  0  0  0  0
   -2.2903    1.8180    0.6027 N   0  0  0  0  0  0  0  0  0  0  0  0
   -1.3083    1.5287    1.9631 S   0  0  0  0  0  6  0  0  0  0  0  0
   -0.9295    2.8283    2.6599 O   0  0  0  0  0  0  0  0  0  0  0  0
   -1.9033    0.5624    2.9474 O   0  0  0  0  0  0  0  0  0  0  0  0
    0.1840    0.8269    1.4110 C   0  0  0  0  0  0  0  0  0  0  0  0
    0.3148   -0.5277    1.3368 C   0  0  0  0  0  0  0  0  0  0  0  0
    1.5111   -1.0621    0.8909 C   0  0  0  0  0  0  0  0  0  0  0  0
    2.5875   -0.2870    0.5144 C   0  0  0  0  0  0  0  0  0  0  0  0
    3.8361   -0.8811    0.0484 C   0  0  0  0  0  0  0  0  0  0  0  0
    4.6618   -0.2780   -0.8743 C   0  0  0  0  0  0  0  0  0  0  0  0
    5.8264   -0.8644   -1.2883 C   0  0  0  0  0  0  0  0  0  0  0  0
    6.2323   -2.0816   -0.8073 C   0  0  0  0  0  0  0  0  0  0  0  0
    5.4280   -2.7145    0.1196 C   0  0  0  0  0  0  0  0  0  0  0  0
    5.8192   -3.9121    0.5986 F   0  0  0  0  0  0  0  0  0  0  0  0
    4.2439   -2.1120    0.5366 C   0  0  0  0  0  0  0  0  0  0  0  0
    2.4168    1.0879    0.6036 C   0  0  0  0  0  0  0  0  0  0  0  0
    1.2187    1.6393    1.0505 C   0  0  0  0  0  0  0  0  0  0  0  0
   -2.1265    0.7141   -1.8715 P   0  0  0  0  0  5  0  0  0  0  0  0
   -2.8081   -0.4248   -2.5950 O   0  0  0  0  0  0  0  0  0  0  0  0
   -0.4638    0.4543   -2.0266 O   0  0  0  0  0  0  0  0  0  0  0  0
   -2.5731    2.1422   -2.6596 O   0  0  0  0  0  0  0  0  0  0  0  0
   -5.0356   -0.3871   -1.9289 H   0  0  0  0  0  0  0  0  0  0  0  0
   -3.9700   -1.4599   -0.8684 H   0  0  0  0  0  0  0  0  0  0  0  0
   -5.6162   -0.9791   -0.3762 H   0  0  0  0  0  0  0  0  0  0  0  0
   -4.6097    1.5046   -0.5272 H   0  0  0  0  0  0  0  0  0  0  0  0
   -5.7291    0.2650    1.3386 H   0  0  0  0  0  0  0  0  0  0  0  0
   -4.3312    1.3049    1.9115 H   0  0  0  0  0  0  0  0  0  0  0  0
   -4.1706   -0.4668    1.7980 H   0  0  0  0  0  0  0  0  0  0  0  0
   -2.2378   -0.2189    0.3149 H   0  0  0  0  0  0  0  0  0  0  0  0
   -3.0386    2.4737    0.8557 H   0  0  0  0  0  0  0  0  0  0  0  0
   -0.4870   -1.2033    1.6163 H   0  0  0  0  0  0  0  0  0  0  0  0
    1.5828   -2.1409    0.8439 H   0  0  0  0  0  0  0  0  0  0  0  0
    4.3537    0.6802   -1.2605 H   0  0  0  0  0  0  0  0  0  0  0  0
    6.4793   -0.3807   -2.0221 H   0  0  0  0  0  0  0  0  0  0  0  0
    7.1487   -2.5374   -1.1368 H   0  0  0  0  0  0  0  0  0  0  0  0
    3.6252   -2.6264    1.2669 H   0  0  0  0  0  0  0  0  0  0  0  0
    3.2633    1.6856    0.3073 H   0  0  0  0  0  0  0  0  0  0  0  0
    1.1758    2.7288    1.0877 H   0  0  0  0  0  0  0  0  0  0  0  0
   -0.3214   -0.5297   -1.8700 H   0  0  0  0  0  0  0  0  0  0  0  0
   -1.8351    2.8016   -2.6812 H   0  0  0  0  0  0  0  0  0  0  0  0
  1  2  1  0
  2  3  1  0
  2  4  1  0
  4  5  1  0
  5  6  1  0
  6  7  2  0
  6  8  2  0
  6  9  1  0
  9 10  2  0
 10 11  1  0
 11 12  2  0
 12 13  1  0
 13 14  2  0
 14 15  1  0
 15 16  2  0
 16 17  1  0
 17 18  1  0
 17 19  2  0
 12 20  1  0
 20 21  2  0
  4 22  1  0
 22 23  2  0
 22 24  1  0
 22 25  1  0
 21  9  1  0
 19 13  1  0
  1 26  1  0
  1 27  1  0
  1 28  1  0
  2 29  1  0
  3 30  1  0
  3 31  1  0
  3 32  1  0
  4 33  1  1
  5 34  1  0
 10 35  1  0
 11 36  1  0
 14 37  1  0
 15 38  1  0
 16 39  1  0
 19 40  1  0
 20 41  1  0
 21 42  1  0
 24 43  1  0
 25 44  1  0
M  END
$$$$
