@<TRIPOS>MOLECULE
*****
 62 66 0 0 0
SMALL
GASTEIGER

@<TRIPOS>ATOM
      1 C           8.2199   -3.4804   -0.3133 C.3     1  UNL1        0.0788
      2 O           7.2990   -2.9662    0.6194 O.3     1  UNL1       -0.4951
      3 C           6.7863   -1.6798    0.3913 C.ar    1  UNL1        0.1201
      4 C           7.1611   -0.9332   -0.7029 C.ar    1  UNL1       -0.0196
      5 C           6.6331    0.3264   -0.8892 C.ar    1  UNL1       -0.0536
      6 C           5.7231    0.8872   -0.0068 C.ar    1  UNL1       -0.0295
      7 C           5.1565    2.2353   -0.2027 C.3     1  UNL1        0.0452
      8 N           3.9359    2.2271   -0.9862 N.am    1  UNL1       -0.2598
      9 C           3.9021    2.3336   -2.4109 C.2     1  UNL1        0.2915
     10 O           4.8749    2.4476   -3.2071 O.2     1  UNL1       -0.2661
     11 C           2.4939    2.2846   -2.7817 C.2     1  UNL1        0.2496
     12 O           2.0323    2.3492   -3.9632 O.2     1  UNL1       -0.2817
     13 C           1.7060    2.1493   -1.5714 C.ar    1  UNL1        0.0502
     14 C           0.3243    2.0610   -1.4009 C.ar    1  UNL1       -0.0226
     15 C          -0.1856    1.9374   -0.1375 C.ar    1  UNL1        0.1063
     16 S          -1.9201    1.8293    0.0593 S.O2    1  UNL1        0.0612
     17 O          -2.5550    2.6648   -1.0186 O.2     1  UNL1       -0.1528
     18 O          -2.2477    2.4892    1.3665 O.2     1  UNL1       -0.1528
     19 N          -2.3576    0.1933   -0.0269 N.3     1  UNL1       -0.1703
     20 C          -1.6835   -0.5027    1.0804 C.3     1  UNL1        0.0210
     21 C          -2.5241   -0.0688    2.2712 C.3     1  UNL1       -0.0370
     22 C          -3.8701    0.2894    1.7258 C.3     1  UNL1       -0.0313
     23 C          -3.7314   -0.1085    0.2699 C.3     1  UNL1        0.0659
     24 C          -4.7175    0.5511   -0.6112 C.3     1  UNL1        0.1067
     25 O          -6.0483    0.2854   -0.3687 O.3     1  UNL1       -0.4904
     26 C          -6.8002   -0.8438   -0.4202 C.ar    1  UNL1        0.1206
     27 C          -6.3659   -2.0868   -0.7791 C.ar    1  UNL1       -0.0199
     28 C          -7.2000   -3.1722   -0.7982 C.ar    1  UNL1       -0.0583
     29 C          -8.5201   -3.0125   -0.4464 C.ar    1  UNL1       -0.0615
     30 C          -9.0251   -1.7934   -0.0761 C.ar    1  UNL1       -0.0583
     31 C          -8.1591   -0.7339   -0.0695 C.ar    1  UNL1       -0.0199
     32 C           0.6833    1.9040    0.9298 C.ar    1  UNL1       -0.0335
     33 C           2.0599    1.9920    0.7600 C.ar    1  UNL1       -0.0377
     34 C           2.5832    2.1171   -0.5154 C.ar    1  UNL1        0.0481
     35 C           5.3496    0.1419    1.0845 C.ar    1  UNL1       -0.0536
     36 C           5.8829   -1.1319    1.2738 C.ar    1  UNL1       -0.0196
     37 H           7.6999   -3.6623   -1.2726 H       1  UNL1        0.0660
     38 H           9.0953   -2.8005   -0.4623 H       1  UNL1        0.0660
     39 H           8.5949   -4.4640    0.0462 H       1  UNL1        0.0660
     40 H           7.8738   -1.3803   -1.3880 H       1  UNL1        0.0654
     41 H           6.9292    0.9028   -1.7435 H       1  UNL1        0.0622
     42 H           4.9826    2.7655    0.7623 H       1  UNL1        0.0518
     43 H           5.8964    2.8457   -0.7473 H       1  UNL1        0.0518
     44 H          -0.2993    2.0933   -2.2764 H       1  UNL1        0.0645
     45 H          -0.6295   -0.2420    1.1638 H       1  UNL1        0.0444
     46 H          -1.8242   -1.5882    0.8609 H       1  UNL1        0.0444
     47 H          -2.0455    0.7145    2.8716 H       1  UNL1        0.0279
     48 H          -2.6566   -1.0062    2.8878 H       1  UNL1        0.0279
     49 H          -4.6860   -0.3598    2.1516 H       1  UNL1        0.0282
     50 H          -4.1927    1.3140    1.8815 H       1  UNL1        0.0282
     51 H          -3.8162   -1.2029    0.2545 H       1  UNL1        0.0513
     52 H          -4.5772    1.6689   -0.4754 H       1  UNL1        0.0713
     53 H          -4.5374    0.3528   -1.7000 H       1  UNL1        0.0713
     54 H          -5.3377   -2.2480   -1.0777 H       1  UNL1        0.0654
     55 H          -6.8352   -4.1732   -1.0903 H       1  UNL1        0.0619
     56 H          -9.1763   -3.8864   -0.4656 H       1  UNL1        0.0618
     57 H         -10.0850   -1.6766    0.2037 H       1  UNL1        0.0619
     58 H          -8.5633    0.2356    0.2256 H       1  UNL1        0.0654
     59 H           0.3293    1.8084    1.9472 H       1  UNL1        0.0638
     60 H           2.7400    1.9661    1.6007 H       1  UNL1        0.0637
     61 H           4.6517    0.5364    1.7886 H       1  UNL1        0.0622
     62 H           5.5731   -1.6956    2.1383 H       1  UNL1        0.0654
@<TRIPOS>BOND
     1     1     2    1
     2     2     3    1
     3     3     4   ar
     4     4     5   ar
     5     5     6   ar
     6     6     7    1
     7     7     8    1
     8     8     9   am
     9     9    10    2
    10     9    11    1
    11    11    12    2
    12    11    13    1
    13    13    14   ar
    14    14    15   ar
    15    15    16    1
    16    16    17    2
    17    16    18    2
    18    16    19    1
    19    19    20    1
    20    20    21    1
    21    21    22    1
    22    22    23    1
    23    23    24    1
    24    24    25    1
    25    25    26    1
    26    26    27   ar
    27    27    28   ar
    28    28    29   ar
    29    29    30   ar
    30    30    31   ar
    31    15    32   ar
    32    32    33   ar
    33    33    34   ar
    34     6    35   ar
    35    35    36   ar
    36    36     3   ar
    37    34     8    1
    38    34    13   ar
    39    23    19    1
    40    31    26   ar
    41     1    37    1
    42     1    38    1
    43     1    39    1
    44     4    40    1
    45     5    41    1
    46     7    42    1
    47     7    43    1
    48    14    44    1
    49    20    45    1
    50    20    46    1
    51    21    47    1
    52    21    48    1
    53    22    49    1
    54    22    50    1
    55    23    51    1
    56    24    52    1
    57    24    53    1
    58    27    54    1
    59    28    55    1
    60    29    56    1
    61    30    57    1
    62    31    58    1
    63    32    59    1
    64    33    60    1
    65    35    61    1
    66    36    62    1
