@<TRIPOS>MOLECULE
*****
 85 89 0 0 0
SMALL
GASTEIGER

@<TRIPOS>ATOM
      1 C          -6.8657    0.6255   -0.6180 C.3     1  UNL1        0.0877
      2 O          -6.1944    0.1035   -1.7277 O.3     1  UNL1       -0.3890
      3 C          -8.2327    1.1549   -1.0093 C.3     1  UNL1        0.0214
      4 C          -9.1650    0.3482   -0.1225 C.3     1  UNL1        0.1423
      5 O          -8.3702    0.0575    1.0064 O.3     1  UNL1       -0.3483
      6 C          -7.2371   -0.4632    0.3671 C.3     1  UNL1        0.1108
      7 C          -6.0751   -0.6605    1.3022 C.3     1  UNL1        0.0878
      8 O          -5.0120   -1.1759    0.5753 O.3     1  UNL1       -0.2837
      9 P          -3.7048   -1.4050    1.6103 P.3     1  UNL1        0.4835
     10 O          -2.7264   -2.6254    0.9938 O.3     1  UNL1       -0.3022
     11 O          -4.2160   -1.7471    2.9793 O.2     1  UNL1       -0.2269
     12 O          -2.7907    0.0298    1.6378 O.3     1  UNL1       -0.1858
     13 P          -2.3730    0.5119    0.0908 P.3     1  UNL1        0.4918
     14 O          -3.1823   -0.3072   -1.1196 O.3     1  UNL1       -0.3019
     15 O          -2.7262    1.9970   -0.0151 O.2     1  UNL1       -0.2265
     16 O          -0.7073    0.4217   -0.1781 O.3     1  UNL1       -0.1855
     17 P          -0.2628   -0.8046   -1.2237 P.3     1  UNL1        0.4918
     18 O           0.7491   -0.2750   -2.4697 O.3     1  UNL1       -0.3019
     19 O          -1.4775   -1.4104   -1.8866 O.2     1  UNL1       -0.2265
     20 O           0.5002   -2.0014   -0.2889 O.3     1  UNL1       -0.1855
     21 P           2.1623   -2.0675   -0.5790 P.3     1  UNL1        0.4918
     22 O           2.3534   -2.5608   -2.1942 O.3     1  UNL1       -0.3019
     23 O           2.7311   -3.1372    0.2965 O.2     1  UNL1       -0.2265
     24 O           2.8973   -0.5770   -0.2889 O.3     1  UNL1       -0.1858
     25 P           4.2243   -0.3133   -1.2754 P.3     1  UNL1        0.4835
     26 O           4.3576   -1.6213   -2.3365 O.3     1  UNL1       -0.3022
     27 O           3.9814    0.9441   -2.0779 O.2     1  UNL1       -0.2269
     28 O           5.6662   -0.1272   -0.3769 O.3     1  UNL1       -0.2837
     29 C           5.8662   -1.3121    0.2856 C.3     1  UNL1        0.0879
     30 C           7.1160   -1.3086    1.1353 C.3     1  UNL1        0.1134
     31 O           8.2735   -1.0884    0.3905 O.3     1  UNL1       -0.3456
     32 C           9.2417   -0.9620    1.3815 C.3     1  UNL1        0.1667
     33 N          10.4668   -0.3771    0.8690 N.ar    1  UNL1       -0.2855
     34 C          11.6971   -0.5247    1.4155 C.ar    1  UNL1        0.1004
     35 N          12.5424    0.1722    0.6384 N.ar    1  UNL1       -0.2306
     36 C          11.8792    0.7554   -0.3832 C.ar    1  UNL1        0.1473
     37 C          12.3629    1.5572   -1.4098 C.ar    1  UNL1        0.1472
     38 N          13.7389    1.8976   -1.5283 N.pl3   1  UNL1       -0.3413
     39 N          11.4355    1.9902   -2.2862 N.ar    1  UNL1       -0.2188
     40 C          10.1390    1.6565   -2.1556 C.ar    1  UNL1        0.1205
     41 N           9.7097    0.8775   -1.1474 N.ar    1  UNL1       -0.2159
     42 C          10.5542    0.4020   -0.2320 C.ar    1  UNL1        0.1674
     43 C           8.6208   -0.1372    2.4851 C.3     1  UNL1        0.1285
     44 O           8.7400   -0.9025    3.6610 O.3     1  UNL1       -0.3847
     45 C           7.1562   -0.0879    2.0487 C.3     1  UNL1        0.1135
     46 O           6.3072   -0.2375    3.1413 O.3     1  UNL1       -0.3864
     47 N         -10.3585    1.0834    0.2479 N.ar    1  UNL1       -0.2722
     48 C         -11.5944    0.7366   -0.1583 C.ar    1  UNL1        0.0198
     49 C         -12.7471    1.4170    0.1785 C.ar    1  UNL1        0.0273
     50 C         -14.0745    0.9737   -0.3083 C.3     1  UNL1       -0.0333
     51 C         -12.5712    2.5358    0.9986 C.ar    1  UNL1        0.2212
     52 O         -13.6990    3.2371    1.3534 O.3     1  UNL1       -0.4921
     53 N         -11.3297    2.8600    1.3895 N.ar    1  UNL1       -0.1575
     54 C         -10.2601    2.1636    1.0307 C.ar    1  UNL1        0.3535
     55 O          -9.1115    2.5267    1.4374 O.2     1  UNL1       -0.2443
     56 H          -6.2609    1.3847   -0.0871 H       1  UNL1        0.0621
     57 H          -6.6039   -0.7816   -1.9465 H       1  UNL1        0.2099
     58 H          -8.2962    2.2278   -0.8261 H       1  UNL1        0.0335
     59 H          -8.4040    0.8860   -2.0861 H       1  UNL1        0.0335
     60 H          -9.3965   -0.6163   -0.5896 H       1  UNL1        0.0840
     61 H          -7.5525   -1.3842   -0.1362 H       1  UNL1        0.0646
     62 H          -6.3673   -1.4587    2.0362 H       1  UNL1        0.0592
     63 H          -5.8498    0.2757    1.8145 H       1  UNL1        0.0592
     64 H          -3.2427   -3.1717    0.3564 H       1  UNL1        0.2220
     65 H          -3.3166    0.2166   -1.9334 H       1  UNL1        0.2220
     66 H           0.5699    0.6605   -2.7277 H       1  UNL1        0.2220
     67 H           2.1374   -3.5333   -2.1912 H       1  UNL1        0.2220
     68 H           5.2897   -1.9587   -2.4065 H       1  UNL1        0.2220
     69 H           5.9018   -2.2055   -0.3526 H       1  UNL1        0.0592
     70 H           5.0146   -1.4488    0.9816 H       1  UNL1        0.0592
     71 H           7.1680   -2.1784    1.7960 H       1  UNL1        0.0647
     72 H           9.4666   -2.0134    1.7006 H       1  UNL1        0.0866
     73 H          11.9405   -1.0934    2.3025 H       1  UNL1        0.1030
     74 H          13.6979    2.7070   -0.8401 H       1  UNL1        0.1438
     75 H          14.3841    2.6101   -1.1219 H       1  UNL1        0.1438
     76 H           9.4936    2.0575   -2.9094 H       1  UNL1        0.1048
     77 H           9.0534    0.8652    2.5883 H       1  UNL1        0.0665
     78 H           8.8374   -1.8763    3.4481 H       1  UNL1        0.2101
     79 H           7.0077    0.8438    1.4902 H       1  UNL1        0.0647
     80 H           6.0790    0.7019    3.4249 H       1  UNL1        0.2100
     81 H         -11.7210   -0.1320   -0.7938 H       1  UNL1        0.0816
     82 H         -13.9618   -0.0404   -0.7069 H       1  UNL1        0.0280
     83 H         -14.7913    1.0348    0.5383 H       1  UNL1        0.0280
     84 H         -14.4358    1.5957   -1.1741 H       1  UNL1        0.0280
     85 H         -14.2461    3.0066    2.1873 H       1  UNL1        0.2937
@<TRIPOS>BOND
     1     1     2    1
     2     1     3    1
     3     3     4    1
     4     4     5    1
     5     5     6    1
     6     6     7    1
     7     7     8    1
     8     8     9    1
     9     9    10    1
    10     9    11    2
    11     9    12    1
    12    12    13    1
    13    13    14    1
    14    13    15    2
    15    13    16    1
    16    16    17    1
    17    17    18    1
    18    17    19    2
    19    17    20    1
    20    20    21    1
    21    21    22    1
    22    21    23    2
    23    21    24    1
    24    24    25    1
    25    25    26    1
    26    25    27    2
    27    25    28    1
    28    28    29    1
    29    29    30    1
    30    30    31    1
    31    31    32    1
    32    32    33    1
    33    33    34   ar
    34    34    35   ar
    35    35    36   ar
    36    36    37   ar
    37    37    38    1
    38    37    39   ar
    39    39    40   ar
    40    40    41   ar
    41    41    42   ar
    42    32    43    1
    43    43    44    1
    44    43    45    1
    45    45    46    1
    46     4    47    1
    47    47    48   ar
    48    48    49   ar
    49    49    50    1
    50    49    51   ar
    51    51    52    1
    52    51    53   ar
    53    53    54   ar
    54    54    55    2
    55     6     1    1
    56    45    30    1
    57    54    47   ar
    58    42    33   ar
    59    42    36   ar
    60     1    56    1
    61     2    57    1
    62     3    58    1
    63     3    59    1
    64     4    60    1
    65     6    61    1
    66     7    62    1
    67     7    63    1
    68    10    64    1
    69    14    65    1
    70    18    66    1
    71    22    67    1
    72    26    68    1
    73    29    69    1
    74    29    70    1
    75    30    71    1
    76    32    72    1
    77    34    73    1
    78    38    74    1
    79    38    75    1
    80    40    76    1
    81    43    77    1
    82    44    78    1
    83    45    79    1
    84    46    80    1
    85    48    81    1
    86    50    82    1
    87    50    83    1
    88    50    84    1
    89    52    85    1
