@<TRIPOS>MOLECULE
*****
 55 57 0 0 0
SMALL
GASTEIGER

@<TRIPOS>ATOM
      1 C          -4.7472   -3.8054   -0.8422 C.2     1  UNL1       -0.0938
      2 C          -4.0428   -2.9929   -1.5982 C.2     1  UNL1       -0.0066
      3 C          -4.2815   -1.5578   -1.6486 C.2     1  UNL1        0.2406
      4 O          -3.5686   -0.8086   -2.4010 O.2     1  UNL1       -0.2705
      5 N          -5.2861   -0.9049   -0.8945 N.am    1  UNL1       -0.2804
      6 C          -5.4577    0.5040   -0.9952 C.ar    1  UNL1        0.0553
      7 C          -6.3073    0.9761   -1.9886 C.ar    1  UNL1       -0.0386
      8 C          -6.5384    2.3183   -2.1532 C.ar    1  UNL1       -0.0596
      9 C          -5.9005    3.2150   -1.2986 C.ar    1  UNL1       -0.0570
     10 C          -5.0569    2.7181   -0.3148 C.ar    1  UNL1       -0.0274
     11 C          -4.3849    3.6855    0.5876 C.3     1  UNL1       -0.0379
     12 C          -4.8237    1.3888   -0.1465 C.ar    1  UNL1        0.0580
     13 N          -3.9616    0.8805    0.8606 N.pl3   1  UNL1       -0.2819
     14 C          -2.5820    0.6878    0.7303 C.ar    1  UNL1        0.2197
     15 N          -1.8735    0.1881    1.7267 N.ar    1  UNL1       -0.2190
     16 C          -0.5594   -0.0054    1.6429 C.ar    1  UNL1        0.0743
     17 C           0.0970    0.3244    0.4773 C.ar    1  UNL1        0.1571
     18 O           1.4749    0.1325    0.3604 O.3     1  UNL1       -0.4841
     19 C           2.1834   -0.4069    1.4603 C.3     1  UNL1        0.1204
     20 C           3.6264   -0.5338    1.1427 C.ar    1  UNL1        0.0671
     21 C           4.4615    0.5830    1.1331 C.ar    1  UNL1        0.1741
     22 F           3.9660    1.8250    1.4165 F       1  UNL1       -0.2012
     23 C           5.7962    0.4940    0.8447 C.ar    1  UNL1        0.1591
     24 O           6.5934    1.6029    0.8416 O.3     1  UNL1       -0.4921
     25 C           7.9766    1.5903    0.5547 C.3     1  UNL1        0.0789
     26 C           6.3365   -0.7403    0.5534 C.ar    1  UNL1        0.0275
     27 C           5.5242   -1.8703    0.5562 C.ar    1  UNL1        0.1591
     28 O           6.0415   -3.1152    0.2678 O.3     1  UNL1       -0.4921
     29 C           7.3979   -3.3134   -0.0401 C.3     1  UNL1        0.0789
     30 C           4.1854   -1.7741    0.8465 C.ar    1  UNL1        0.1741
     31 F           3.3634   -2.8423    0.8604 F       1  UNL1       -0.2012
     32 C          -0.6491    0.8467   -0.5617 C.ar    1  UNL1        0.0743
     33 N          -1.9802    1.0193   -0.4149 N.ar    1  UNL1       -0.2190
     34 H          -4.5670   -4.8690   -0.8078 H       1  UNL1        0.0536
     35 H          -5.5475   -3.4442   -0.2134 H       1  UNL1        0.0536
     36 H          -3.2545   -3.4102   -2.2068 H       1  UNL1        0.0663
     37 H          -5.9012   -1.4488   -0.2659 H       1  UNL1        0.1552
     38 H          -6.8078    0.2615   -2.6597 H       1  UNL1        0.0637
     39 H          -7.2011    2.7114   -2.9256 H       1  UNL1        0.0618
     40 H          -6.0441    4.2839   -1.3803 H       1  UNL1        0.0621
     41 H          -4.6097    3.3678    1.6317 H       1  UNL1        0.0278
     42 H          -3.3018    3.7753    0.3958 H       1  UNL1        0.0278
     43 H          -4.8114    4.7051    0.4802 H       1  UNL1        0.0278
     44 H          -4.4045    0.6288    1.7822 H       1  UNL1        0.1551
     45 H           0.0153   -0.4273    2.4948 H       1  UNL1        0.0869
     46 H           1.7688   -1.4168    1.6493 H       1  UNL1        0.0750
     47 H           2.1045    0.2452    2.3558 H       1  UNL1        0.0750
     48 H           8.0752    1.4071   -0.5350 H       1  UNL1        0.0660
     49 H           8.4326    0.7210    1.0719 H       1  UNL1        0.0660
     50 H           8.4776    2.5271    0.7892 H       1  UNL1        0.0660
     51 H           7.3855   -0.8622    0.3193 H       1  UNL1        0.0693
     52 H           8.0613   -2.9598    0.7913 H       1  UNL1        0.0660
     53 H           7.5639   -4.4164   -0.1979 H       1  UNL1        0.0660
     54 H           7.7242   -2.8074   -0.9690 H       1  UNL1        0.0660
     55 H          -0.1811    1.1189   -1.4904 H       1  UNL1        0.0869
@<TRIPOS>BOND
     1     1     2    2
     2     2     3    1
     3     3     4    2
     4     3     5   am
     5     5     6    1
     6     6     7   ar
     7     7     8   ar
     8     8     9   ar
     9     9    10   ar
    10    10    11    1
    11    10    12   ar
    12    12    13    1
    13    13    14    1
    14    14    15   ar
    15    15    16   ar
    16    16    17   ar
    17    17    18    1
    18    18    19    1
    19    19    20    1
    20    20    21   ar
    21    21    22    1
    22    21    23   ar
    23    23    24    1
    24    24    25    1
    25    23    26   ar
    26    26    27   ar
    27    27    28    1
    28    28    29    1
    29    27    30   ar
    30    30    31    1
    31    17    32   ar
    32    32    33   ar
    33    12     6   ar
    34    33    14   ar
    35    30    20   ar
    36     1    34    1
    37     1    35    1
    38     2    36    1
    39     5    37    1
    40     7    38    1
    41     8    39    1
    42     9    40    1
    43    11    41    1
    44    11    42    1
    45    11    43    1
    46    13    44    1
    47    16    45    1
    48    19    46    1
    49    19    47    1
    50    25    48    1
    51    25    49    1
    52    25    50    1
    53    26    51    1
    54    29    52    1
    55    29    53    1
    56    29    54    1
    57    32    55    1
