@<TRIPOS>MOLECULE
*****
 59 62 0 0 0
SMALL
GASTEIGER

@<TRIPOS>ATOM
      1 C           5.4501   -0.4061   -0.7253 C.3     1  UNL1        0.0494
      2 N           5.4725    0.1009    0.6129 N.pl3   1  UNL1       -0.2244
      3 C           6.1276    1.2916    1.1270 C.3     1  UNL1        0.0943
      4 C           5.1869    1.6670    2.2684 C.3     1  UNL1        0.1330
      5 N           4.6696    0.3845    2.6611 N.2     1  UNL1       -0.1140
      6 C           4.8225   -0.5004    1.7454 C.cat   1  UNL1        0.3692
      7 N           4.4305   -1.8632    1.7956 N.pl3   1  UNL1       -0.2235
      8 C           5.3324   -2.9364    1.5229 C.3     1  UNL1        0.0496
      9 C           3.0560   -2.1764    2.1383 C.3     1  UNL1        0.0856
     10 C           2.0944   -1.5950    1.1957 C.ar    1  UNL1       -0.0158
     11 C           1.5885   -0.3436    1.4211 C.ar    1  UNL1       -0.0550
     12 C           0.6826    0.2308    0.5534 C.ar    1  UNL1       -0.0493
     13 C           0.2366   -0.4069   -0.5761 C.ar    1  UNL1        0.0370
     14 C          -0.7065    0.1264   -1.5288 C.2     1  UNL1        0.2483
     15 O          -1.0594   -0.5503   -2.5534 O.2     1  UNL1       -0.2699
     16 N          -1.2653    1.3957   -1.3664 N.am    1  UNL1       -0.2808
     17 C          -2.1973    1.9812   -2.2634 C.ar    1  UNL1        0.0459
     18 C          -1.7680    2.7355   -3.3366 C.ar    1  UNL1       -0.0384
     19 C          -2.6978    3.2979   -4.2002 C.ar    1  UNL1       -0.0416
     20 C          -4.0399    3.0940   -3.9723 C.ar    1  UNL1        0.0418
     21 CL         -5.2703    3.7738   -5.0216 Cl      1  UNL1       -0.0835
     22 C          -4.4983    2.3327   -2.8903 C.ar    1  UNL1       -0.0295
     23 C          -3.5382    1.7798   -2.0389 C.ar    1  UNL1        0.0596
     24 C          -3.9466    0.9798   -0.8910 C.2     1  UNL1        0.2511
     25 O          -3.0516    0.5083   -0.1449 O.2     1  UNL1       -0.2697
     26 N          -5.2727    0.6839   -0.5387 N.am    1  UNL1       -0.2663
     27 C          -5.7505   -0.0738    0.5430 C.ar    1  UNL1        0.1252
     28 C          -5.0041   -0.6986    1.5055 C.ar    1  UNL1       -0.0201
     29 C          -5.5968   -1.4350    2.5485 C.ar    1  UNL1       -0.0387
     30 C          -6.9628   -1.5474    2.6288 C.ar    1  UNL1        0.0592
     31 CL         -7.7507   -2.4531    3.9079 Cl      1  UNL1       -0.0820
     32 C          -7.6908   -0.9098    1.6486 C.ar    1  UNL1        0.0480
     33 N          -7.1022   -0.2239    0.6792 N.ar    1  UNL1       -0.2387
     34 C           0.7624   -1.6860   -0.7939 C.ar    1  UNL1       -0.0493
     35 C           1.6676   -2.2630    0.0707 C.ar    1  UNL1       -0.0550
     36 H           4.4795   -0.8128   -1.0378 H       1  UNL1        0.0597
     37 H           5.6712    0.4503   -1.4129 H       1  UNL1        0.0597
     38 H           6.2921   -1.1355   -0.8977 H       1  UNL1        0.0597
     39 H           7.1192    1.0238    1.5946 H       1  UNL1        0.0667
     40 H           6.2215    2.0913    0.3897 H       1  UNL1        0.0667
     41 H           5.7198    2.1825    3.0800 H       1  UNL1        0.0723
     42 H           4.3592    2.2753    1.8486 H       1  UNL1        0.0723
     43 H           5.3471   -3.2453    0.4569 H       1  UNL1        0.0597
     44 H           5.0699   -3.8729    2.0970 H       1  UNL1        0.0597
     45 H           6.3353   -2.6395    1.8995 H       1  UNL1        0.0597
     46 H           2.9095   -3.2781    2.2270 H       1  UNL1        0.0685
     47 H           2.8090   -1.7764    3.1639 H       1  UNL1        0.0685
     48 H           1.9008    0.2013    2.2870 H       1  UNL1        0.0621
     49 H           0.2898    1.2356    0.7537 H       1  UNL1        0.0625
     50 H          -1.0170    2.0094   -0.5405 H       1  UNL1        0.1552
     51 H          -0.7010    2.8686   -3.4756 H       1  UNL1        0.0637
     52 H          -2.3975    3.8844   -5.0363 H       1  UNL1        0.0633
     53 H          -5.5552    2.1957   -2.7449 H       1  UNL1        0.0640
     54 H          -6.0091    1.0958   -1.1880 H       1  UNL1        0.1566
     55 H          -3.9445   -0.6352    1.4781 H       1  UNL1        0.0652
     56 H          -4.9886   -1.9145    3.2894 H       1  UNL1        0.0634
     57 H          -8.7751   -1.0153    1.7361 H       1  UNL1        0.0845
     58 H           0.4251   -2.2191   -1.6868 H       1  UNL1        0.0625
     59 H           2.0287   -3.2641   -0.1724 H       1  UNL1        0.0621
@<TRIPOS>BOND
     1     1     2    1
     2     2     3    1
     3     3     4    1
     4     4     5    1
     5     5     6    2
     6     6     7    1
     7     7     8    1
     8     7     9    1
     9     9    10    1
    10    10    11   ar
    11    11    12   ar
    12    12    13   ar
    13    13    14    1
    14    14    15    2
    15    14    16   am
    16    16    17    1
    17    17    18   ar
    18    18    19   ar
    19    19    20   ar
    20    20    21    1
    21    20    22   ar
    22    22    23   ar
    23    23    24    1
    24    24    25    2
    25    24    26   am
    26    26    27    1
    27    27    28   ar
    28    28    29   ar
    29    29    30   ar
    30    30    31    1
    31    30    32   ar
    32    32    33   ar
    33    13    34   ar
    34    34    35   ar
    35     6     2    1
    36    35    10   ar
    37    23    17   ar
    38    33    27   ar
    39     1    36    1
    40     1    37    1
    41     1    38    1
    42     3    39    1
    43     3    40    1
    44     4    41    1
    45     4    42    1
    46     8    43    1
    47     8    44    1
    48     8    45    1
    49     9    46    1
    50     9    47    1
    51    11    48    1
    52    12    49    1
    53    16    50    1
    54    18    51    1
    55    19    52    1
    56    22    53    1
    57    26    54    1
    58    28    55    1
    59    29    56    1
    60    32    57    1
    61    34    58    1
    62    35    59    1
