@<TRIPOS>MOLECULE
*****
 43 45 0 0 0
SMALL
GASTEIGER

@<TRIPOS>ATOM
      1 C          -1.5336    0.3909    1.2777 C.3     1  UNL1       -0.0338
      2 C          -2.1083    0.2743   -0.1246 C.3     1  UNL1        0.1120
      3 C          -0.9834    0.1149   -1.0921 C.ar    1  UNL1        0.1058
      4 N           0.3076    0.0847   -0.6673 N.ar    1  UNL1       -0.2314
      5 C           1.3402   -0.0597   -1.4862 C.ar    1  UNL1        0.1257
      6 N           2.7085   -0.0900   -1.0193 N.am    1  UNL1       -0.2650
      7 C           3.0106    0.0343    0.3498 C.2     1  UNL1        0.2691
      8 O           1.9883    0.1826    1.1090 O.2     1  UNL1       -0.2681
      9 C           4.3142    0.0183    0.9848 C.ar    1  UNL1        0.1440
     10 N           4.3977    0.4650    2.2866 N.ar    1  UNL1       -0.2478
     11 C           5.5346    0.4791    2.9741 C.ar    1  UNL1        0.0425
     12 C           6.7334    0.0495    2.4518 C.ar    1  UNL1        0.0374
     13 BR          8.3462    0.0932    3.4913 Br      1  UNL1       -0.0487
     14 C           6.7108   -0.4056    1.1637 C.ar    1  UNL1       -0.0257
     15 C           5.4948   -0.4107    0.4574 C.ar    1  UNL1        0.0725
     16 CL          5.5242   -1.0467   -1.1784 Cl      1  UNL1       -0.0811
     17 C           1.1172   -0.1866   -2.8337 C.ar    1  UNL1       -0.0188
     18 C          -0.1619   -0.1669   -3.3548 C.ar    1  UNL1       -0.0213
     19 C          -1.2121   -0.0116   -2.4408 C.ar    1  UNL1        0.1471
     20 F          -2.4694    0.0143   -2.9426 F       1  UNL1       -0.2035
     21 C          -3.0059   -0.9364   -0.1951 C.3     1  UNL1        0.0238
     22 C          -4.3578   -0.7258    0.4309 C.3     1  UNL1        0.1998
     23 C          -4.5674   -1.6669    1.6047 C.3     1  UNL1        0.4266
     24 F          -4.4682   -2.9637    1.1000 F       1  UNL1       -0.1669
     25 F          -5.7949   -1.5102    2.1726 F       1  UNL1       -0.1669
     26 F          -3.6030   -1.5138    2.5725 F       1  UNL1       -0.1669
     27 O          -4.5689    0.6202    0.8145 O.2     1  UNL1       -0.4534
     28 C          -4.0499    1.6253    0.0080 C.2     1  UNL1        0.2765
     29 N          -4.8128    2.8134   -0.3099 N.pl3   1  UNL1       -0.3134
     30 N          -2.8604    1.4633   -0.4493 N.2     1  UNL1       -0.2241
     31 H          -1.2469   -0.6192    1.6147 H       1  UNL1        0.0257
     32 H          -2.3248    0.7734    1.9369 H       1  UNL1        0.0257
     33 H          -0.6644    1.0768    1.2521 H       1  UNL1        0.0257
     34 H           3.4783   -0.1853   -1.6935 H       1  UNL1        0.1566
     35 H           5.5769    0.8415    4.0130 H       1  UNL1        0.0841
     36 H           7.6109   -0.7595    0.6838 H       1  UNL1        0.0644
     37 H           1.9478   -0.3057   -3.5208 H       1  UNL1        0.0653
     38 H          -0.3085   -0.2671   -4.4017 H       1  UNL1        0.0648
     39 H          -3.1602   -1.3008   -1.2263 H       1  UNL1        0.0331
     40 H          -2.5025   -1.7882    0.3551 H       1  UNL1        0.0331
     41 H          -5.1819   -0.9811   -0.2993 H       1  UNL1        0.0826
     42 H          -5.5192    3.1576    0.3744 H       1  UNL1        0.1466
     43 H          -4.6760    3.3291   -1.1964 H       1  UNL1        0.1466
@<TRIPOS>BOND
     1     2     1    1
     2     2     3    1
     3     3     4   ar
     4     4     5   ar
     5     5     6    1
     6     6     7   am
     7     7     8    2
     8     7     9    1
     9     9    10   ar
    10    10    11   ar
    11    11    12   ar
    12    12    13    1
    13    12    14   ar
    14    14    15   ar
    15    15    16    1
    16     5    17   ar
    17    17    18   ar
    18    18    19   ar
    19    19    20    1
    20     2    21    1
    21    21    22    1
    22    22    23    1
    23    23    24    1
    24    23    25    1
    25    23    26    1
    26    22    27    1
    27    27    28    1
    28    28    29    1
    29    28    30    2
    30    30     2    1
    31    19     3   ar
    32    15     9   ar
    33     1    31    1
    34     1    32    1
    35     1    33    1
    36     6    34    1
    37    11    35    1
    38    14    36    1
    39    17    37    1
    40    18    38    1
    41    21    39    1
    42    21    40    1
    43    22    41    1
    44    29    42    1
    45    29    43    1
