
     RDKit          3D

 43 45  0  0  0  0  0  0  0  0999 V2000
   -1.5336    0.3909    1.2777 C   0  0  0  0  0  0  0  0  0  0  0  0
   -2.1083    0.2743   -0.1246 C   0  0  1  0  0  0  0  0  0  0  0  0
   -0.9834    0.1149   -1.0921 C   0  0  0  0  0  0  0  0  0  0  0  0
    0.3076    0.0847   -0.6673 N   0  0  0  0  0  0  0  0  0  0  0  0
    1.3402   -0.0597   -1.4862 C   0  0  0  0  0  0  0  0  0  0  0  0
    2.7085   -0.0900   -1.0193 N   0  0  0  0  0  0  0  0  0  0  0  0
    3.0106    0.0343    0.3498 C   0  0  0  0  0  0  0  0  0  0  0  0
    1.9883    0.1826    1.1090 O   0  0  0  0  0  0  0  0  0  0  0  0
    4.3142    0.0183    0.9848 C   0  0  0  0  0  0  0  0  0  0  0  0
    4.3977    0.4650    2.2866 N   0  0  0  0  0  0  0  0  0  0  0  0
    5.5346    0.4791    2.9741 C   0  0  0  0  0  0  0  0  0  0  0  0
    6.7334    0.0495    2.4518 C   0  0  0  0  0  0  0  0  0  0  0  0
    8.3462    0.0932    3.4913 Br  0  0  0  0  0  0  0  0  0  0  0  0
    6.7108   -0.4056    1.1637 C   0  0  0  0  0  0  0  0  0  0  0  0
    5.4948   -0.4107    0.4574 C   0  0  0  0  0  0  0  0  0  0  0  0
    5.5242   -1.0467   -1.1784 Cl  0  0  0  0  0  0  0  0  0  0  0  0
    1.1172   -0.1866   -2.8337 C   0  0  0  0  0  0  0  0  0  0  0  0
   -0.1619   -0.1669   -3.3548 C   0  0  0  0  0  0  0  0  0  0  0  0
   -1.2121   -0.0116   -2.4408 C   0  0  0  0  0  0  0  0  0  0  0  0
   -2.4694    0.0143   -2.9426 F   0  0  0  0  0  0  0  0  0  0  0  0
   -3.0059   -0.9364   -0.1951 C   0  0  0  0  0  0  0  0  0  0  0  0
   -4.3578   -0.7258    0.4309 C   0  0  1  0  0  0  0  0  0  0  0  0
   -4.5674   -1.6669    1.6047 C   0  0  0  0  0  0  0  0  0  0  0  0
   -4.4682   -2.9637    1.1000 F   0  0  0  0  0  0  0  0  0  0  0  0
   -5.7949   -1.5102    2.1726 F   0  0  0  0  0  0  0  0  0  0  0  0
   -3.6030   -1.5138    2.5725 F   0  0  0  0  0  0  0  0  0  0  0  0
   -4.5689    0.6202    0.8145 O   0  0  0  0  0  0  0  0  0  0  0  0
   -4.0499    1.6253    0.0080 C   0  0  0  0  0  0  0  0  0  0  0  0
   -4.8128    2.8134   -0.3099 N   0  0  0  0  0  0  0  0  0  0  0  0
   -2.8604    1.4633   -0.4493 N   0  0  0  0  0  0  0  0  0  0  0  0
   -1.2469   -0.6192    1.6147 H   0  0  0  0  0  0  0  0  0  0  0  0
   -2.3248    0.7734    1.9369 H   0  0  0  0  0  0  0  0  0  0  0  0
   -0.6644    1.0768    1.2521 H   0  0  0  0  0  0  0  0  0  0  0  0
    3.4783   -0.1853   -1.6935 H   0  0  0  0  0  0  0  0  0  0  0  0
    5.5769    0.8415    4.0130 H   0  0  0  0  0  0  0  0  0  0  0  0
    7.6109   -0.7595    0.6838 H   0  0  0  0  0  0  0  0  0  0  0  0
    1.9478   -0.3057   -3.5208 H   0  0  0  0  0  0  0  0  0  0  0  0
   -0.3085   -0.2671   -4.4017 H   0  0  0  0  0  0  0  0  0  0  0  0
   -3.1602   -1.3008   -1.2263 H   0  0  0  0  0  0  0  0  0  0  0  0
   -2.5025   -1.7882    0.3551 H   0  0  0  0  0  0  0  0  0  0  0  0
   -5.1819   -0.9811   -0.2993 H   0  0  0  0  0  0  0  0  0  0  0  0
   -5.5192    3.1576    0.3744 H   0  0  0  0  0  0  0  0  0  0  0  0
   -4.6760    3.3291   -1.1964 H   0  0  0  0  0  0  0  0  0  0  0  0
  2  1  1  1
  2  3  1  0
  3  4  2  0
  4  5  1  0
  5  6  1  0
  6  7  1  0
  7  8  2  0
  7  9  1  0
  9 10  2  0
 10 11  1  0
 11 12  2  0
 12 13  1  0
 12 14  1  0
 14 15  2  0
 15 16  1  0
  5 17  2  0
 17 18  1  0
 18 19  2  0
 19 20  1  0
  2 21  1  0
 21 22  1  0
 22 23  1  0
 23 24  1  0
 23 25  1  0
 23 26  1  0
 22 27  1  0
 27 28  1  0
 28 29  1  0
 28 30  2  0
 30  2  1  0
 19  3  1  0
 15  9  1  0
  1 31  1  0
  1 32  1  0
  1 33  1  0
  6 34  1  0
 11 35  1  0
 14 36  1  0
 17 37  1  0
 18 38  1  0
 21 39  1  0
 21 40  1  0
 22 41  1  6
 29 42  1  0
 29 43  1  0
M  END
$$$$
