@<TRIPOS>MOLECULE
*****
 142 145 0 0 0
SMALL
GASTEIGER

@<TRIPOS>ATOM
      1 C          10.4917    0.0264    0.7168 C.2     1  UNL1       -0.0099
      2 C           9.5772   -0.8491    1.0964 C.2     1  UNL1       -0.0650
      3 C           8.4571   -1.7760    0.9639 C.3     1  UNL1        0.0026
      4 C           7.4216   -1.4519    2.0178 C.3     1  UNL1       -0.0565
      5 C           7.9158   -1.8120   -0.4411 C.3     1  UNL1        0.0735
      6 O           6.8678   -2.7816   -0.4977 O.3     1  UNL1       -0.3785
      7 C           7.1920   -3.8804   -1.2420 C.3     1  UNL1        0.0369
      8 C           7.4632   -0.5334   -0.9935 C.3     1  UNL1        0.0414
      9 C           6.9898   -0.8411   -2.4526 C.3     1  UNL1       -0.0533
     10 C           6.3387    0.1922   -0.3750 C.2     1  UNL1        0.1386
     11 O           6.6055    1.3369    0.0459 O.2     1  UNL1       -0.2970
     12 C           5.0023   -0.3196   -0.2375 C.3     1  UNL1        0.0065
     13 C           3.8193    0.5853   -0.1873 C.3     1  UNL1       -0.0414
     14 C           3.4393    1.3599   -1.3601 C.3     1  UNL1       -0.0170
     15 C           4.5168    2.3077   -1.8423 C.3     1  UNL1       -0.0601
     16 C           2.1644    2.0597   -1.4539 C.3     1  UNL1        0.0643
     17 C           0.8432    1.4610   -1.4128 C.3     1  UNL1        0.0113
     18 C           0.2764    0.7280   -0.2848 C.3     1  UNL1        0.1103
     19 O          -1.0732    0.2509   -0.5894 O.3     1  UNL1       -0.4608
     20 C          -1.4117   -1.0515   -0.5155 C.2     1  UNL1        0.3098
     21 O          -0.5340   -1.8358   -0.1711 O.2     1  UNL1       -0.2507
     22 C          -2.6780   -1.8356   -0.7667 C.3     1  UNL1        0.0713
     23 C          -2.5601   -3.2394   -0.4080 C.3     1  UNL1        0.0732
     24 C          -3.7306   -4.0912   -0.7778 C.3     1  UNL1       -0.0233
     25 C          -5.0117   -4.0201   -0.0698 C.3     1  UNL1       -0.0392
     26 C          -5.9521   -5.1001   -0.6673 C.3     1  UNL1       -0.0623
     27 C          -5.7293   -2.6872    0.0329 C.3     1  UNL1       -0.0238
     28 C          -7.0477   -2.8566    0.7270 C.3     1  UNL1        0.0608
     29 O          -7.8517   -3.7154   -0.0606 O.3     1  UNL1       -0.3914
     30 C          -7.8069   -1.6586    1.1102 C.3     1  UNL1        0.0142
     31 C          -8.8792   -2.1570    2.1548 C.3     1  UNL1       -0.0573
     32 C          -8.6383   -1.0385    0.0482 C.3     1  UNL1        0.1080
     33 O          -9.4587   -0.0367    0.6786 O.3     1  UNL1       -0.3732
     34 C         -10.7898   -0.2811    0.4314 C.3     1  UNL1        0.0373
     35 C          -7.8801   -0.3302   -0.9836 C.ar    1  UNL1        0.1088
     36 C          -7.3363   -0.4423   -2.2764 C.ar    1  UNL1        0.1183
     37 O          -6.7962    0.7285   -2.6170 O.2     1  UNL1       -0.4420
     38 C          -6.9749    1.5314   -1.6276 C.ar    1  UNL1        0.2494
     39 N          -7.6129    0.9567   -0.6266 N.ar    1  UNL1       -0.2100
     40 C          -6.7291    2.8829   -1.1891 C.ar    1  UNL1        0.1641
     41 C          -7.1096    3.9623   -1.9999 C.ar    1  UNL1        0.1251
     42 O          -6.7573    5.0582   -1.3212 O.2     1  UNL1       -0.4416
     43 C          -6.2090    4.6875   -0.1942 C.ar    1  UNL1        0.2498
     44 N          -6.1714    3.3514   -0.0716 N.ar    1  UNL1       -0.2028
     45 C          -5.7518    5.7257    0.6978 C.ar    1  UNL1        0.1640
     46 C          -5.9590    6.8629    1.4073 C.ar    1  UNL1        0.1250
     47 O          -4.7972    7.1091    2.0232 O.2     1  UNL1       -0.4433
     48 C          -3.9167    6.2091    1.7350 C.ar    1  UNL1        0.2202
     49 N          -4.5117    5.3529    0.9128 N.ar    1  UNL1       -0.2047
     50 C          -2.5440    5.7624    1.9502 C.2     1  UNL1       -0.0035
     51 C          -2.1088    4.5154    1.9191 C.2     1  UNL1       -0.0765
     52 C          -1.1154    3.4186    2.0052 C.3     1  UNL1       -0.0075
     53 C          -1.0184    2.6441    0.6968 C.3     1  UNL1        0.0677
     54 O          -2.2182    2.1096    0.3206 O.3     1  UNL1       -0.3791
     55 C          -2.8048    2.5819   -0.8125 C.3     1  UNL1        0.0368
     56 C           0.0354    1.5620    0.9619 C.3     1  UNL1        0.0199
     57 C          -0.4940    0.5957    1.9999 C.3     1  UNL1       -0.0567
     58 O          -2.3220   -3.5309    0.9226 O.3     1  UNL1       -0.3351
     59 C          -1.2432   -4.2515    1.2787 C.3     1  UNL1        0.2134
     60 N          -1.6265   -5.6133    1.7568 N.3     1  UNL1       -0.2828
     61 O          -0.3616   -3.7014    2.1839 O.3     1  UNL1       -0.3550
     62 O           2.2009    2.9080   -2.5942 O.3     1  UNL1       -0.3794
     63 C           2.0598    4.2389   -2.2136 C.3     1  UNL1        0.0368
     64 N          11.5191    0.7488    1.3780 N.pl3   1  UNL1       -0.3168
     65 C          11.3697    2.0571    2.0188 C.3     1  UNL1        0.0022
     66 C          12.7416   -0.0259    1.3134 C.3     1  UNL1        0.1098
     67 O          12.4642   -1.2416    1.9455 O.3     1  UNL1       -0.3770
     68 H          10.3026    0.0774   -0.3401 H       1  UNL1        0.0777
     69 H           9.8268   -0.9089    2.1939 H       1  UNL1        0.0588
     70 H           8.8737   -2.8067    1.2101 H       1  UNL1        0.0366
     71 H           6.5600   -2.1251    1.9813 H       1  UNL1        0.0236
     72 H           7.2237   -0.3847    2.0646 H       1  UNL1        0.0236
     73 H           7.9318   -1.6936    2.9967 H       1  UNL1        0.0236
     74 H           8.7072   -2.2426   -1.0675 H       1  UNL1        0.0608
     75 H           6.2873   -4.5580   -1.2042 H       1  UNL1        0.0524
     76 H           8.0189   -4.4842   -0.7921 H       1  UNL1        0.0524
     77 H           7.3829   -3.6501   -2.2880 H       1  UNL1        0.0524
     78 H           8.3056    0.1388   -1.1714 H       1  UNL1        0.0400
     79 H           6.8444    0.0765   -3.0166 H       1  UNL1        0.0237
     80 H           6.1499   -1.5345   -2.4001 H       1  UNL1        0.0237
     81 H           7.8738   -1.4066   -2.8680 H       1  UNL1        0.0237
     82 H           4.7912   -1.2103   -0.9239 H       1  UNL1        0.0342
     83 H           4.9510   -0.8648    0.7641 H       1  UNL1        0.0342
     84 H           2.9735   -0.1223    0.0657 H       1  UNL1        0.0273
     85 H           3.8483    1.2425    0.7432 H       1  UNL1        0.0273
     86 H           3.4427    0.5532   -2.2226 H       1  UNL1        0.0323
     87 H           4.1118    2.9603   -2.6780 H       1  UNL1        0.0233
     88 H           4.8726    3.0223   -1.0927 H       1  UNL1        0.0233
     89 H           5.3966    1.7477   -2.2280 H       1  UNL1        0.0233
     90 H           2.1337    2.8702   -0.6213 H       1  UNL1        0.0599
     91 H           0.6674    0.9042   -2.3952 H       1  UNL1        0.0326
     92 H           0.1129    2.3340   -1.5760 H       1  UNL1        0.0326
     93 H           0.7822   -0.1940   -0.0526 H       1  UNL1        0.0738
     94 H          -2.7277   -1.7919   -1.9111 H       1  UNL1        0.0403
     95 H          -3.5152   -1.2322   -0.4586 H       1  UNL1        0.0403
     96 H          -1.6773   -3.6891   -0.9608 H       1  UNL1        0.0603
     97 H          -3.4197   -5.1817   -0.8560 H       1  UNL1        0.0293
     98 H          -3.9833   -3.8889   -1.8913 H       1  UNL1        0.0293
     99 H          -4.9117   -4.3737    1.0142 H       1  UNL1        0.0300
    100 H          -6.5746   -5.5486    0.1237 H       1  UNL1        0.0232
    101 H          -5.2257   -5.9321   -0.9399 H       1  UNL1        0.0232
    102 H          -6.4539   -4.7612   -1.5690 H       1  UNL1        0.0232
    103 H          -5.1243   -2.0815    0.7777 H       1  UNL1        0.0293
    104 H          -5.7465   -2.1919   -0.9334 H       1  UNL1        0.0293
    105 H          -6.8352   -3.4687    1.6498 H       1  UNL1        0.0597
    106 H          -8.1287   -3.2601   -0.8927 H       1  UNL1        0.2098
    107 H          -7.2048   -0.9349    1.6703 H       1  UNL1        0.0352
    108 H          -9.3801   -1.2439    2.4840 H       1  UNL1        0.0234
    109 H          -9.5504   -2.8680    1.6703 H       1  UNL1        0.0234
    110 H          -8.3135   -2.5820    3.0011 H       1  UNL1        0.0234
    111 H          -9.3291   -1.7478   -0.4340 H       1  UNL1        0.0666
    112 H         -11.0790   -1.2560    0.8167 H       1  UNL1        0.0524
    113 H         -11.3521    0.5559    0.9319 H       1  UNL1        0.0524
    114 H         -10.9996   -0.1726   -0.6568 H       1  UNL1        0.0524
    115 H          -7.4358   -1.4012   -2.7609 H       1  UNL1        0.1050
    116 H          -7.5955    3.9799   -2.9920 H       1  UNL1        0.1054
    117 H          -6.9723    7.2111    1.2605 H       1  UNL1        0.1054
    118 H          -1.9896    6.6960    2.1351 H       1  UNL1        0.0668
    119 H          -2.9935    3.8796    1.6985 H       1  UNL1        0.0574
    120 H          -1.3084    2.8242    2.8844 H       1  UNL1        0.0333
    121 H          -0.1280    3.9647    2.0624 H       1  UNL1        0.0333
    122 H          -0.7070    3.3956   -0.0393 H       1  UNL1        0.0603
    123 H          -2.1998    2.4417   -1.7086 H       1  UNL1        0.0524
    124 H          -2.9917    3.6894   -0.6802 H       1  UNL1        0.0524
    125 H          -3.8210    2.1745   -1.0007 H       1  UNL1        0.0524
    126 H           0.9572    1.9922    1.3933 H       1  UNL1        0.0359
    127 H          -1.4490    0.1215    1.7261 H       1  UNL1        0.0234
    128 H          -0.4604    0.9745    3.0332 H       1  UNL1        0.0234
    129 H           0.2589   -0.2483    2.0000 H       1  UNL1        0.0234
    130 H          -0.6613   -4.5034    0.3644 H       1  UNL1        0.1096
    131 H          -2.2989   -5.4881    2.5188 H       1  UNL1        0.1228
    132 H          -0.7320   -6.0658    2.0488 H       1  UNL1        0.1228
    133 H           0.5843   -3.7537    1.9483 H       1  UNL1        0.2138
    134 H           2.1211    4.8666   -3.1147 H       1  UNL1        0.0524
    135 H           2.8628    4.5125   -1.5193 H       1  UNL1        0.0524
    136 H           1.0479    4.3562   -1.7315 H       1  UNL1        0.0524
    137 H          12.1684    2.7131    1.6624 H       1  UNL1        0.0428
    138 H          10.3515    2.4092    1.7943 H       1  UNL1        0.0428
    139 H          11.4522    1.8930    3.1133 H       1  UNL1        0.0428
    140 H          13.0477   -0.1979    0.2711 H       1  UNL1        0.0768
    141 H          13.5922    0.4685    1.8323 H       1  UNL1        0.0768
    142 H          12.2098   -1.8777    1.2236 H       1  UNL1        0.2115
@<TRIPOS>BOND
     1     1     2    2
     2     2     3    1
     3     3     4    1
     4     3     5    1
     5     5     6    1
     6     6     7    1
     7     5     8    1
     8     8     9    1
     9     8    10    1
    10    10    11    2
    11    10    12    1
    12    12    13    1
    13    13    14    1
    14    14    15    1
    15    14    16    1
    16    16    17    1
    17    17    18    1
    18    18    19    1
    19    19    20    1
    20    20    21    2
    21    20    22    1
    22    22    23    1
    23    23    24    1
    24    24    25    1
    25    25    26    1
    26    25    27    1
    27    27    28    1
    28    28    29    1
    29    28    30    1
    30    30    31    1
    31    30    32    1
    32    32    33    1
    33    33    34    1
    34    32    35    1
    35    35    36   ar
    36    36    37   ar
    37    37    38   ar
    38    38    39   ar
    39    38    40    1
    40    40    41   ar
    41    41    42   ar
    42    42    43   ar
    43    43    44   ar
    44    43    45    1
    45    45    46   ar
    46    46    47   ar
    47    47    48   ar
    48    48    49   ar
    49    48    50    1
    50    50    51    2
    51    51    52    1
    52    52    53    1
    53    53    54    1
    54    54    55    1
    55    53    56    1
    56    56    57    1
    57    23    58    1
    58    58    59    1
    59    59    60    1
    60    59    61    1
    61    16    62    1
    62    62    63    1
    63     1    64    1
    64    64    65    1
    65    64    66    1
    66    66    67    1
    67    56    18    1
    68    39    35   ar
    69    44    40   ar
    70    49    45   ar
    71     1    68    1
    72     2    69    1
    73     3    70    1
    74     4    71    1
    75     4    72    1
    76     4    73    1
    77     5    74    1
    78     7    75    1
    79     7    76    1
    80     7    77    1
    81     8    78    1
    82     9    79    1
    83     9    80    1
    84     9    81    1
    85    12    82    1
    86    12    83    1
    87    13    84    1
    88    13    85    1
    89    14    86    1
    90    15    87    1
    91    15    88    1
    92    15    89    1
    93    16    90    1
    94    17    91    1
    95    17    92    1
    96    18    93    1
    97    22    94    1
    98    22    95    1
    99    23    96    1
   100    24    97    1
   101    24    98    1
   102    25    99    1
   103    26   100    1
   104    26   101    1
   105    26   102    1
   106    27   103    1
   107    27   104    1
   108    28   105    1
   109    29   106    1
   110    30   107    1
   111    31   108    1
   112    31   109    1
   113    31   110    1
   114    32   111    1
   115    34   112    1
   116    34   113    1
   117    34   114    1
   118    36   115    1
   119    41   116    1
   120    46   117    1
   121    50   118    1
   122    51   119    1
   123    52   120    1
   124    52   121    1
   125    53   122    1
   126    55   123    1
   127    55   124    1
   128    55   125    1
   129    56   126    1
   130    57   127    1
   131    57   128    1
   132    57   129    1
   133    59   130    1
   134    60   131    1
   135    60   132    1
   136    61   133    1
   137    63   134    1
   138    63   135    1
   139    63   136    1
   140    65   137    1
   141    65   138    1
   142    65   139    1
   143    66   140    1
   144    66   141    1
   145    67   142    1
