@<TRIPOS>MOLECULE
*****
 41 40 0 0 0
SMALL
GASTEIGER

@<TRIPOS>ATOM
      1 C          -5.6783   -0.8963   -1.0328 C.3     1  UNL1       -0.0653
      2 C          -5.5656    0.6017   -0.8486 C.3     1  UNL1       -0.0559
      3 C          -4.0878    0.9675   -0.8004 C.3     1  UNL1       -0.0533
      4 C          -3.4801    0.2256    0.3722 C.3     1  UNL1       -0.0531
      5 C          -1.9991    0.5161    0.5186 C.3     1  UNL1       -0.0531
      6 C          -1.4349   -0.2334    1.6856 C.3     1  UNL1       -0.0531
      7 C           0.0178    0.0040    1.8998 C.3     1  UNL1       -0.0531
      8 C           0.8310   -0.4197    0.6959 C.3     1  UNL1       -0.0531
      9 C           2.2722   -0.1236    1.0707 C.3     1  UNL1       -0.0530
     10 C           3.2440   -0.4948   -0.0444 C.3     1  UNL1       -0.0516
     11 C           4.6072   -0.1410    0.4868 C.3     1  UNL1       -0.0345
     12 C           5.7211   -0.4531   -0.4402 C.3     1  UNL1        0.0547
     13 S           5.6098    0.3914   -1.9727 S.3     1  UNL1       -0.0806
     14 O           4.2136   -0.0312   -2.7899 O.co2   1  UNL1       -0.7245
     15 O           6.7859    0.0796   -2.8613 O.2     1  UNL1       -0.1853
     16 O           5.5905    1.8946   -1.7257 O.2     1  UNL1       -0.1853
     17 H          -5.5593   -1.3763   -0.0345 H       1  UNL1        0.0230
     18 H          -6.6274   -1.2118   -1.4964 H       1  UNL1        0.0230
     19 H          -4.8215   -1.2564   -1.6413 H       1  UNL1        0.0230
     20 H          -5.9776    0.8750    0.1453 H       1  UNL1        0.0263
     21 H          -6.0960    1.1861   -1.6025 H       1  UNL1        0.0263
     22 H          -3.5557    0.7583   -1.7386 H       1  UNL1        0.0265
     23 H          -4.0612    2.0536   -0.5816 H       1  UNL1        0.0265
     24 H          -3.6021   -0.8707    0.2639 H       1  UNL1        0.0265
     25 H          -3.9972    0.5173    1.3075 H       1  UNL1        0.0265
     26 H          -1.4616    0.3226   -0.4261 H       1  UNL1        0.0265
     27 H          -1.8693    1.6044    0.7117 H       1  UNL1        0.0265
     28 H          -1.9748    0.0724    2.6159 H       1  UNL1        0.0265
     29 H          -1.6193   -1.3267    1.6044 H       1  UNL1        0.0265
     30 H           0.4146   -0.5101    2.8039 H       1  UNL1        0.0265
     31 H           0.2232    1.1011    2.0215 H       1  UNL1        0.0265
     32 H           0.6962   -1.4893    0.4479 H       1  UNL1        0.0265
     33 H           0.5350    0.1766   -0.1966 H       1  UNL1        0.0265
     34 H           2.3326    0.9550    1.2900 H       1  UNL1        0.0265
     35 H           2.4856   -0.6802    2.0038 H       1  UNL1        0.0265
     36 H           3.1122   -1.5368   -0.3401 H       1  UNL1        0.0266
     37 H           3.0442    0.2174   -0.8877 H       1  UNL1        0.0266
     38 H           4.5454    0.9686    0.7113 H       1  UNL1        0.0280
     39 H           4.7486   -0.5890    1.5056 H       1  UNL1        0.0280
     40 H           6.7161   -0.2850    0.0626 H       1  UNL1        0.0490
     41 H           5.7219   -1.5635   -0.6328 H       1  UNL1        0.0490
@<TRIPOS>UNITY_ATOM_ATTR
14 1
charge -1
@<TRIPOS>BOND
     1     1     2    1
     2     2     3    1
     3     3     4    1
     4     4     5    1
     5     5     6    1
     6     6     7    1
     7     7     8    1
     8     8     9    1
     9     9    10    1
    10    10    11    1
    11    11    12    1
    12    12    13    1
    13    13    14    1
    14    13    15    2
    15    13    16    2
    16     1    17    1
    17     1    18    1
    18     1    19    1
    19     2    20    1
    20     2    21    1
    21     3    22    1
    22     3    23    1
    23     4    24    1
    24     4    25    1
    25     5    26    1
    26     5    27    1
    27     6    28    1
    28     6    29    1
    29     7    30    1
    30     7    31    1
    31     8    32    1
    32     8    33    1
    33     9    34    1
    34     9    35    1
    35    10    36    1
    36    10    37    1
    37    11    38    1
    38    11    39    1
    39    12    40    1
    40    12    41    1
