@<TRIPOS>MOLECULE
*****
 64 67 0 0 0
SMALL
GASTEIGER

@<TRIPOS>ATOM
      1 C          -1.4977   -0.6421   -1.2291 C.3     1  UNL1        0.1012
      2 C          -1.4153   -0.4527    0.2586 C.3     1  UNL1       -0.0231
      3 C          -1.6219    0.9457    0.7002 C.3     1  UNL1       -0.0389
      4 C          -1.5422    1.0574    2.2316 C.3     1  UNL1       -0.0501
      5 C          -1.7932    2.4926    2.6127 C.3     1  UNL1       -0.0528
      6 C          -1.6997    3.4469    1.4428 C.3     1  UNL1       -0.0530
      7 C          -2.7606    3.1085    0.4189 C.3     1  UNL1       -0.0528
      8 C          -2.9112    1.5865    0.2974 C.3     1  UNL1       -0.0501
      9 N          -1.2681   -2.0678   -1.5458 N.pl3   1  UNL1       -0.2875
     10 C          -2.1923   -3.0509   -1.0733 C.ar    1  UNL1        0.2891
     11 N          -3.3203   -2.9056   -0.3586 N.ar    1  UNL1       -0.1955
     12 C          -3.8889   -4.0868   -0.1270 C.ar    1  UNL1        0.1112
     13 C          -5.0254   -4.5374    0.5318 C.ar    1  UNL1       -0.0325
     14 C          -5.2616   -5.9009    0.5382 C.ar    1  UNL1       -0.0595
     15 C          -4.4392   -6.8291   -0.0673 C.ar    1  UNL1       -0.0582
     16 C          -3.2964   -6.3761   -0.7297 C.ar    1  UNL1       -0.0171
     17 C          -3.0679   -5.0134   -0.7315 C.ar    1  UNL1        0.1570
     18 O          -2.0854   -4.3385   -1.2717 O.2     1  UNL1       -0.4245
     19 C          -0.4937    0.1169   -1.9908 C.2     1  UNL1        0.2335
     20 O           0.3558   -0.7046   -2.4799 O.2     1  UNL1       -0.2738
     21 N          -0.3198    1.4760   -2.2570 N.am    1  UNL1       -0.3123
     22 C           0.7500    2.0617   -3.0347 C.3     1  UNL1        0.0271
     23 C           2.0673    1.7242   -2.3688 C.3     1  UNL1        0.0247
     24 N           2.1409    2.2380   -1.0163 N.pl3   1  UNL1       -0.3423
     25 C           3.3734    1.9470   -0.3574 C.ar    1  UNL1        0.0274
     26 C           4.3812    1.2365   -0.9835 C.ar    1  UNL1       -0.0374
     27 C           5.5988    0.9362   -0.3684 C.ar    1  UNL1       -0.0182
     28 C           5.8200    1.3617    0.9231 C.ar    1  UNL1        0.1202
     29 O           7.0238    1.0758    1.5580 O.3     1  UNL1       -0.4951
     30 C           7.9600    0.3365    0.7824 C.3     1  UNL1        0.0788
     31 C           4.8256    2.0810    1.5860 C.ar    1  UNL1       -0.0182
     32 C           3.6304    2.3642    0.9535 C.ar    1  UNL1       -0.0374
     33 H          -2.5318   -0.3647   -1.5507 H       1  UNL1        0.0595
     34 H          -0.3904   -0.8099    0.5948 H       1  UNL1        0.0290
     35 H          -2.1657   -1.1636    0.6996 H       1  UNL1        0.0290
     36 H          -0.7795    1.5838    0.3507 H       1  UNL1        0.0301
     37 H          -2.2876    0.3882    2.7099 H       1  UNL1        0.0268
     38 H          -0.5323    0.7183    2.5984 H       1  UNL1        0.0268
     39 H          -2.8424    2.6283    3.0085 H       1  UNL1        0.0265
     40 H          -1.0879    2.8587    3.4051 H       1  UNL1        0.0265
     41 H          -0.6838    3.5017    1.0181 H       1  UNL1        0.0265
     42 H          -1.9276    4.4581    1.8776 H       1  UNL1        0.0265
     43 H          -2.5096    3.4789   -0.5955 H       1  UNL1        0.0265
     44 H          -3.7464    3.5584    0.7324 H       1  UNL1        0.0265
     45 H          -3.6989    1.3343    1.0628 H       1  UNL1        0.0268
     46 H          -3.2390    1.3094   -0.7068 H       1  UNL1        0.0268
     47 H          -0.4490   -2.3888   -2.1068 H       1  UNL1        0.1512
     48 H          -5.6747   -3.8229    1.0079 H       1  UNL1        0.0640
     49 H          -6.1658   -6.2186    1.0664 H       1  UNL1        0.0618
     50 H          -4.6514   -7.8905   -0.0446 H       1  UNL1        0.0619
     51 H          -2.6243   -7.0726   -1.2182 H       1  UNL1        0.0655
     52 H          -1.0514    2.0701   -1.8611 H       1  UNL1        0.1488
     53 H           0.6232    3.1322   -3.1885 H       1  UNL1        0.0477
     54 H           0.7829    1.5349   -4.0353 H       1  UNL1        0.0477
     55 H           2.2440    0.6347   -2.3167 H       1  UNL1        0.0476
     56 H           2.9332    2.1083   -2.9854 H       1  UNL1        0.0476
     57 H           1.4339    2.7785   -0.4701 H       1  UNL1        0.1461
     58 H           4.2581    0.8746   -2.0092 H       1  UNL1        0.0637
     59 H           6.3440    0.3681   -0.9371 H       1  UNL1        0.0655
     60 H           8.2591    0.9460   -0.0763 H       1  UNL1        0.0660
     61 H           8.8084    0.0651    1.4444 H       1  UNL1        0.0660
     62 H           7.4686   -0.6042    0.4743 H       1  UNL1        0.0660
     63 H           5.0179    2.4006    2.5851 H       1  UNL1        0.0655
     64 H           2.8397    2.9172    1.4343 H       1  UNL1        0.0637
@<TRIPOS>BOND
     1     1     2    1
     2     2     3    1
     3     3     4    1
     4     4     5    1
     5     5     6    1
     6     6     7    1
     7     7     8    1
     8     1     9    1
     9     9    10    1
    10    10    11   ar
    11    11    12   ar
    12    12    13   ar
    13    13    14   ar
    14    14    15   ar
    15    15    16   ar
    16    16    17   ar
    17    17    18   ar
    18     1    19    1
    19    19    20    2
    20    19    21   am
    21    21    22    1
    22    22    23    1
    23    23    24    1
    24    24    25    1
    25    25    26   ar
    26    26    27   ar
    27    27    28   ar
    28    28    29    1
    29    29    30    1
    30    28    31   ar
    31    31    32   ar
    32     8     3    1
    33    18    10   ar
    34    32    25   ar
    35    17    12   ar
    36     1    33    1
    37     2    34    1
    38     2    35    1
    39     3    36    1
    40     4    37    1
    41     4    38    1
    42     5    39    1
    43     5    40    1
    44     6    41    1
    45     6    42    1
    46     7    43    1
    47     7    44    1
    48     8    45    1
    49     8    46    1
    50     9    47    1
    51    13    48    1
    52    14    49    1
    53    15    50    1
    54    16    51    1
    55    21    52    1
    56    22    53    1
    57    22    54    1
    58    23    55    1
    59    23    56    1
    60    24    57    1
    61    26    58    1
    62    27    59    1
    63    30    60    1
    64    30    61    1
    65    30    62    1
    66    31    63    1
    67    32    64    1
