
     RDKit          3D

 64 67  0  0  0  0  0  0  0  0999 V2000
   -1.4977   -0.6421   -1.2291 C   0  0  2  0  0  0  0  0  0  0  0  0
   -1.4153   -0.4527    0.2586 C   0  0  0  0  0  0  0  0  0  0  0  0
   -1.6219    0.9457    0.7002 C   0  0  0  0  0  0  0  0  0  0  0  0
   -1.5422    1.0574    2.2316 C   0  0  0  0  0  0  0  0  0  0  0  0
   -1.7932    2.4926    2.6127 C   0  0  0  0  0  0  0  0  0  0  0  0
   -1.6997    3.4469    1.4428 C   0  0  0  0  0  0  0  0  0  0  0  0
   -2.7606    3.1085    0.4189 C   0  0  0  0  0  0  0  0  0  0  0  0
   -2.9112    1.5865    0.2974 C   0  0  0  0  0  0  0  0  0  0  0  0
   -1.2681   -2.0678   -1.5458 N   0  0  0  0  0  0  0  0  0  0  0  0
   -2.1923   -3.0509   -1.0733 C   0  0  0  0  0  0  0  0  0  0  0  0
   -3.3203   -2.9056   -0.3586 N   0  0  0  0  0  0  0  0  0  0  0  0
   -3.8889   -4.0868   -0.1270 C   0  0  0  0  0  0  0  0  0  0  0  0
   -5.0254   -4.5374    0.5318 C   0  0  0  0  0  0  0  0  0  0  0  0
   -5.2616   -5.9009    0.5382 C   0  0  0  0  0  0  0  0  0  0  0  0
   -4.4392   -6.8291   -0.0673 C   0  0  0  0  0  0  0  0  0  0  0  0
   -3.2964   -6.3761   -0.7297 C   0  0  0  0  0  0  0  0  0  0  0  0
   -3.0679   -5.0134   -0.7315 C   0  0  0  0  0  0  0  0  0  0  0  0
   -2.0854   -4.3385   -1.2717 O   0  0  0  0  0  0  0  0  0  0  0  0
   -0.4937    0.1169   -1.9908 C   0  0  0  0  0  0  0  0  0  0  0  0
    0.3558   -0.7046   -2.4799 O   0  0  0  0  0  0  0  0  0  0  0  0
   -0.3198    1.4760   -2.2570 N   0  0  0  0  0  0  0  0  0  0  0  0
    0.7500    2.0617   -3.0347 C   0  0  0  0  0  0  0  0  0  0  0  0
    2.0673    1.7242   -2.3688 C   0  0  0  0  0  0  0  0  0  0  0  0
    2.1409    2.2380   -1.0163 N   0  0  0  0  0  0  0  0  0  0  0  0
    3.3734    1.9470   -0.3574 C   0  0  0  0  0  0  0  0  0  0  0  0
    4.3812    1.2365   -0.9835 C   0  0  0  0  0  0  0  0  0  0  0  0
    5.5988    0.9362   -0.3684 C   0  0  0  0  0  0  0  0  0  0  0  0
    5.8200    1.3617    0.9231 C   0  0  0  0  0  0  0  0  0  0  0  0
    7.0238    1.0758    1.5580 O   0  0  0  0  0  0  0  0  0  0  0  0
    7.9600    0.3365    0.7824 C   0  0  0  0  0  0  0  0  0  0  0  0
    4.8256    2.0810    1.5860 C   0  0  0  0  0  0  0  0  0  0  0  0
    3.6304    2.3642    0.9535 C   0  0  0  0  0  0  0  0  0  0  0  0
   -2.5318   -0.3647   -1.5507 H   0  0  0  0  0  0  0  0  0  0  0  0
   -0.3904   -0.8099    0.5948 H   0  0  0  0  0  0  0  0  0  0  0  0
   -2.1657   -1.1636    0.6996 H   0  0  0  0  0  0  0  0  0  0  0  0
   -0.7795    1.5838    0.3507 H   0  0  0  0  0  0  0  0  0  0  0  0
   -2.2876    0.3882    2.7099 H   0  0  0  0  0  0  0  0  0  0  0  0
   -0.5323    0.7183    2.5984 H   0  0  0  0  0  0  0  0  0  0  0  0
   -2.8424    2.6283    3.0085 H   0  0  0  0  0  0  0  0  0  0  0  0
   -1.0879    2.8587    3.4051 H   0  0  0  0  0  0  0  0  0  0  0  0
   -0.6838    3.5017    1.0181 H   0  0  0  0  0  0  0  0  0  0  0  0
   -1.9276    4.4581    1.8776 H   0  0  0  0  0  0  0  0  0  0  0  0
   -2.5096    3.4789   -0.5955 H   0  0  0  0  0  0  0  0  0  0  0  0
   -3.7464    3.5584    0.7324 H   0  0  0  0  0  0  0  0  0  0  0  0
   -3.6989    1.3343    1.0628 H   0  0  0  0  0  0  0  0  0  0  0  0
   -3.2390    1.3094   -0.7068 H   0  0  0  0  0  0  0  0  0  0  0  0
   -0.4490   -2.3888   -2.1068 H   0  0  0  0  0  0  0  0  0  0  0  0
   -5.6747   -3.8229    1.0079 H   0  0  0  0  0  0  0  0  0  0  0  0
   -6.1658   -6.2186    1.0664 H   0  0  0  0  0  0  0  0  0  0  0  0
   -4.6514   -7.8905   -0.0446 H   0  0  0  0  0  0  0  0  0  0  0  0
   -2.6243   -7.0726   -1.2182 H   0  0  0  0  0  0  0  0  0  0  0  0
   -1.0514    2.0701   -1.8611 H   0  0  0  0  0  0  0  0  0  0  0  0
    0.6232    3.1322   -3.1885 H   0  0  0  0  0  0  0  0  0  0  0  0
    0.7829    1.5349   -4.0353 H   0  0  0  0  0  0  0  0  0  0  0  0
    2.2440    0.6347   -2.3167 H   0  0  0  0  0  0  0  0  0  0  0  0
    2.9332    2.1083   -2.9854 H   0  0  0  0  0  0  0  0  0  0  0  0
    1.4339    2.7785   -0.4701 H   0  0  0  0  0  0  0  0  0  0  0  0
    4.2581    0.8746   -2.0092 H   0  0  0  0  0  0  0  0  0  0  0  0
    6.3440    0.3681   -0.9371 H   0  0  0  0  0  0  0  0  0  0  0  0
    8.2591    0.9460   -0.0763 H   0  0  0  0  0  0  0  0  0  0  0  0
    8.8084    0.0651    1.4444 H   0  0  0  0  0  0  0  0  0  0  0  0
    7.4686   -0.6042    0.4743 H   0  0  0  0  0  0  0  0  0  0  0  0
    5.0179    2.4006    2.5851 H   0  0  0  0  0  0  0  0  0  0  0  0
    2.8397    2.9172    1.4343 H   0  0  0  0  0  0  0  0  0  0  0  0
  1  2  1  0
  2  3  1  0
  3  4  1  0
  4  5  1  0
  5  6  1  0
  6  7  1  0
  7  8  1  0
  1  9  1  0
  9 10  1  0
 10 11  2  0
 11 12  1  0
 12 13  2  0
 13 14  1  0
 14 15  2  0
 15 16  1  0
 16 17  2  0
 17 18  1  0
  1 19  1  0
 19 20  2  0
 19 21  1  0
 21 22  1  0
 22 23  1  0
 23 24  1  0
 24 25  1  0
 25 26  2  0
 26 27  1  0
 27 28  2  0
 28 29  1  0
 29 30  1  0
 28 31  1  0
 31 32  2  0
  8  3  1  0
 18 10  1  0
 32 25  1  0
 17 12  1  0
  1 33  1  6
  2 34  1  0
  2 35  1  0
  3 36  1  0
  4 37  1  0
  4 38  1  0
  5 39  1  0
  5 40  1  0
  6 41  1  0
  6 42  1  0
  7 43  1  0
  7 44  1  0
  8 45  1  0
  8 46  1  0
  9 47  1  0
 13 48  1  0
 14 49  1  0
 15 50  1  0
 16 51  1  0
 21 52  1  0
 22 53  1  0
 22 54  1  0
 23 55  1  0
 23 56  1  0
 24 57  1  0
 26 58  1  0
 27 59  1  0
 30 60  1  0
 30 61  1  0
 30 62  1  0
 31 63  1  0
 32 64  1  0
M  END
$$$$
