
     RDKit          3D

 64 68  0  0  0  0  0  0  0  0999 V2000
    3.8672    0.8028    2.5881 C   0  0  0  0  0  0  0  0  0  0  0  0
    4.0316    0.0897    1.3829 O   0  0  0  0  0  0  0  0  0  0  0  0
    2.9217   -0.0471    0.5317 C   0  0  0  0  0  0  0  0  0  0  0  0
    1.7038    0.5186    0.8973 C   0  0  0  0  0  0  0  0  0  0  0  0
    0.5546    0.4587    0.1644 C   0  0  0  0  0  0  0  0  0  0  0  0
   -0.7152    1.0688    0.5814 C   0  0  0  0  0  0  0  0  0  0  0  0
   -0.8661    1.7633    1.7587 C   0  0  0  0  0  0  0  0  0  0  0  0
   -2.0666    2.3394    2.1511 C   0  0  0  0  0  0  0  0  0  0  0  0
   -2.4804    3.0504    3.2151 N   0  0  0  0  0  0  0  0  0  0  0  0
   -3.7444    3.3733    3.1137 N   0  0  0  0  0  0  0  0  0  0  0  0
   -4.5822    4.1357    4.0404 C   0  0  0  0  0  0  0  0  0  0  0  0
   -4.1836    2.8636    1.9512 C   0  0  0  0  0  0  0  0  0  0  0  0
   -3.1464    2.1980    1.3081 C   0  0  0  0  0  0  0  0  0  0  0  0
   -3.0040    1.5055    0.1300 C   0  0  0  0  0  0  0  0  0  0  0  0
   -4.1223    1.3870   -0.6922 O   0  0  0  0  0  0  0  0  0  0  0  0
   -4.0551    0.6887   -1.9217 C   0  0  2  0  0  0  0  0  0  0  0  0
   -4.5420    1.6133   -3.0109 C   0  0  0  0  0  0  0  0  0  0  0  0
   -5.0174   -0.4709   -1.8273 C   0  0  1  0  0  0  0  0  0  0  0  0
   -5.0392   -1.3044   -3.0918 C   0  0  0  0  0  0  0  0  0  0  0  0
   -5.5742   -2.5689   -2.6013 N   0  0  0  0  0  0  0  0  0  0  0  0
   -5.3036   -2.6965   -1.2141 C   0  0  0  0  0  0  0  0  0  0  0  0
   -5.6439   -3.6411   -0.4667 O   0  0  0  0  0  0  0  0  0  0  0  0
   -4.5368   -1.4974   -0.8033 C   0  0  0  0  0  0  0  0  0  0  0  0
   -1.8161    0.9686   -0.1982 N   0  0  0  0  0  0  0  0  0  0  0  0
    0.6418   -0.2301   -1.0386 C   0  0  0  0  0  0  0  0  0  0  0  0
    1.8136   -0.8073   -1.4501 C   0  0  0  0  0  0  0  0  0  0  0  0
    2.9877   -0.7235   -0.6604 C   0  0  0  0  0  0  0  0  0  0  0  0
    4.1295   -1.3054   -1.0966 O   0  0  0  0  0  0  0  0  0  0  0  0
    5.4022   -1.4603   -0.6847 C   0  0  0  0  0  0  0  0  0  0  0  0
    6.4458   -0.8647   -1.6247 C   0  0  0  0  0  0  0  0  0  0  0  0
    7.5410   -1.8306   -1.9423 C   0  0  0  0  0  0  0  0  0  0  0  0
    8.0756   -2.4859   -0.8757 O   0  0  0  0  0  0  0  0  0  0  0  0
    7.2026   -2.8959    0.0900 C   0  0  0  0  0  0  0  0  0  0  0  0
    5.7998   -2.9336   -0.4694 C   0  0  0  0  0  0  0  0  0  0  0  0
    4.7577    0.7772    3.2255 H   0  0  0  0  0  0  0  0  0  0  0  0
    3.5181    1.8550    2.3834 H   0  0  0  0  0  0  0  0  0  0  0  0
    3.0384    0.3528    3.2094 H   0  0  0  0  0  0  0  0  0  0  0  0
    1.6911    1.0399    1.8367 H   0  0  0  0  0  0  0  0  0  0  0  0
   -0.0326    1.8854    2.4329 H   0  0  0  0  0  0  0  0  0  0  0  0
   -5.5042    3.5370    4.2310 H   0  0  0  0  0  0  0  0  0  0  0  0
   -4.9303    5.0758    3.5609 H   0  0  0  0  0  0  0  0  0  0  0  0
   -4.0472    4.4042    4.9498 H   0  0  0  0  0  0  0  0  0  0  0  0
   -5.1849    2.9413    1.5480 H   0  0  0  0  0  0  0  0  0  0  0  0
   -3.0590    0.2803   -2.1225 H   0  0  0  0  0  0  0  0  0  0  0  0
   -5.3921    2.2100   -2.5980 H   0  0  0  0  0  0  0  0  0  0  0  0
   -3.7007    2.2770   -3.3176 H   0  0  0  0  0  0  0  0  0  0  0  0
   -4.9323    1.0256   -3.8667 H   0  0  0  0  0  0  0  0  0  0  0  0
   -6.0528   -0.1561   -1.6292 H   0  0  0  0  0  0  0  0  0  0  0  0
   -5.6797   -0.8713   -3.8726 H   0  0  0  0  0  0  0  0  0  0  0  0
   -3.9984   -1.4991   -3.4247 H   0  0  0  0  0  0  0  0  0  0  0  0
   -6.0795   -3.2848   -3.1576 H   0  0  0  0  0  0  0  0  0  0  0  0
   -3.4715   -1.6902   -1.0461 H   0  0  0  0  0  0  0  0  0  0  0  0
   -4.7126   -1.1856    0.2254 H   0  0  0  0  0  0  0  0  0  0  0  0
   -0.2460   -0.3046   -1.6560 H   0  0  0  0  0  0  0  0  0  0  0  0
    1.8997   -1.3500   -2.3884 H   0  0  0  0  0  0  0  0  0  0  0  0
    5.6021   -0.9895    0.2929 H   0  0  0  0  0  0  0  0  0  0  0  0
    5.9138   -0.6276   -2.5699 H   0  0  0  0  0  0  0  0  0  0  0  0
    6.8545    0.0906   -1.2384 H   0  0  0  0  0  0  0  0  0  0  0  0
    7.1428   -2.5263   -2.7369 H   0  0  0  0  0  0  0  0  0  0  0  0
    8.3534   -1.2586   -2.4437 H   0  0  0  0  0  0  0  0  0  0  0  0
    7.2326   -2.2868    1.0164 H   0  0  0  0  0  0  0  0  0  0  0  0
    7.4562   -3.9526    0.3781 H   0  0  0  0  0  0  0  0  0  0  0  0
    5.7987   -3.3968   -1.4650 H   0  0  0  0  0  0  0  0  0  0  0  0
    5.0859   -3.4338    0.1966 H   0  0  0  0  0  0  0  0  0  0  0  0
  1  2  1  0
  2  3  1  0
  3  4  2  0
  4  5  1  0
  5  6  1  0
  6  7  2  0
  7  8  1  0
  8  9  2  0
  9 10  1  0
 10 11  1  0
 10 12  1  0
 12 13  2  0
 13 14  1  0
 14 15  1  0
 15 16  1  0
 16 17  1  0
 16 18  1  0
 18 19  1  0
 19 20  1  0
 20 21  1  0
 21 22  2  0
 21 23  1  0
 14 24  2  0
  5 25  2  0
 25 26  1  0
 26 27  2  0
 27 28  1  0
 28 29  1  0
 29 30  1  0
 30 31  1  0
 31 32  1  0
 32 33  1  0
 33 34  1  0
 27  3  1  0
 34 29  1  0
 24  6  1  0
 13  8  1  0
 23 18  1  0
  1 35  1  0
  1 36  1  0
  1 37  1  0
  4 38  1  0
  7 39  1  0
 11 40  1  0
 11 41  1  0
 11 42  1  0
 12 43  1  0
 16 44  1  6
 17 45  1  0
 17 46  1  0
 17 47  1  0
 18 48  1  1
 19 49  1  0
 19 50  1  0
 20 51  1  0
 23 52  1  0
 23 53  1  0
 25 54  1  0
 26 55  1  0
 29 56  1  0
 30 57  1  0
 30 58  1  0
 31 59  1  0
 31 60  1  0
 33 61  1  0
 33 62  1  0
 34 63  1  0
 34 64  1  0
M  END
$$$$
