@<TRIPOS>MOLECULE
*****
 64 68 0 0 0
SMALL
GASTEIGER

@<TRIPOS>ATOM
      1 C           3.8672    0.8028    2.5881 C.3     1  UNL1        0.0790
      2 O           4.0316    0.0897    1.3829 O.3     1  UNL1       -0.4914
      3 C           2.9217   -0.0471    0.5317 C.ar    1  UNL1        0.1621
      4 C           1.7038    0.5186    0.8973 C.ar    1  UNL1       -0.0071
      5 C           0.5546    0.4587    0.1644 C.ar    1  UNL1        0.0042
      6 C          -0.7152    1.0688    0.5814 C.ar    1  UNL1        0.0770
      7 C          -0.8661    1.7633    1.7587 C.ar    1  UNL1       -0.0077
      8 C          -2.0666    2.3394    2.1511 C.ar    1  UNL1        0.0999
      9 N          -2.4804    3.0504    3.2151 N.ar    1  UNL1       -0.1712
     10 N          -3.7444    3.3733    3.1137 N.ar    1  UNL1       -0.2732
     11 C          -4.5822    4.1357    4.0404 C.3     1  UNL1        0.0302
     12 C          -4.1836    2.8636    1.9512 C.ar    1  UNL1        0.0380
     13 C          -3.1464    2.1980    1.3081 C.ar    1  UNL1        0.0812
     14 C          -3.0040    1.5055    0.1300 C.ar    1  UNL1        0.2265
     15 O          -4.1223    1.3870   -0.6922 O.3     1  UNL1       -0.4725
     16 C          -4.0551    0.6887   -1.9217 C.3     1  UNL1        0.1037
     17 C          -4.5420    1.6133   -3.0109 C.3     1  UNL1       -0.0274
     18 C          -5.0174   -0.4709   -1.8273 C.3     1  UNL1        0.0196
     19 C          -5.0392   -1.3044   -3.0918 C.3     1  UNL1        0.0182
     20 N          -5.5742   -2.5689   -2.6013 N.am    1  UNL1       -0.3149
     21 C          -5.3036   -2.6965   -1.2141 C.2     1  UNL1        0.2135
     22 O          -5.6439   -3.6411   -0.4667 O.2     1  UNL1       -0.2758
     23 C          -4.5368   -1.4974   -0.8033 C.3     1  UNL1        0.0315
     24 N          -1.8161    0.9686   -0.1982 N.ar    1  UNL1       -0.2122
     25 C           0.6418   -0.2301   -1.0386 C.ar    1  UNL1       -0.0489
     26 C           1.8136   -0.8073   -1.4501 C.ar    1  UNL1       -0.0157
     27 C           2.9877   -0.7235   -0.6604 C.ar    1  UNL1        0.1623
     28 O           4.1295   -1.3054   -1.0966 O.3     1  UNL1       -0.4850
     29 C           5.4022   -1.4603   -0.6847 C.3     1  UNL1        0.1045
     30 C           6.4458   -0.8647   -1.6247 C.3     1  UNL1        0.0078
     31 C           7.5410   -1.8306   -1.9423 C.3     1  UNL1        0.0510
     32 O           8.0756   -2.4859   -0.8757 O.3     1  UNL1       -0.3795
     33 C           7.2026   -2.8959    0.0900 C.3     1  UNL1        0.0510
     34 C           5.7998   -2.9336   -0.4694 C.3     1  UNL1        0.0078
     35 H           4.7577    0.7772    3.2255 H       1  UNL1        0.0660
     36 H           3.5181    1.8550    2.3834 H       1  UNL1        0.0660
     37 H           3.0384    0.3528    3.2094 H       1  UNL1        0.0660
     38 H           1.6911    1.0399    1.8367 H       1  UNL1        0.0662
     39 H          -0.0326    1.8854    2.4329 H       1  UNL1        0.0661
     40 H          -5.5042    3.5370    4.2310 H       1  UNL1        0.0473
     41 H          -4.9303    5.0758    3.5609 H       1  UNL1        0.0473
     42 H          -4.0472    4.4042    4.9498 H       1  UNL1        0.0473
     43 H          -5.1849    2.9413    1.5480 H       1  UNL1        0.0834
     44 H          -3.0590    0.2803   -2.1225 H       1  UNL1        0.0734
     45 H          -5.3921    2.2100   -2.5980 H       1  UNL1        0.0265
     46 H          -3.7007    2.2770   -3.3176 H       1  UNL1        0.0265
     47 H          -4.9323    1.0256   -3.8667 H       1  UNL1        0.0265
     48 H          -6.0528   -0.1561   -1.6292 H       1  UNL1        0.0356
     49 H          -5.6797   -0.8713   -3.8726 H       1  UNL1        0.0466
     50 H          -3.9984   -1.4991   -3.4247 H       1  UNL1        0.0466
     51 H          -6.0795   -3.2848   -3.1576 H       1  UNL1        0.1487
     52 H          -3.4715   -1.6902   -1.0461 H       1  UNL1        0.0363
     53 H          -4.7126   -1.1856    0.2254 H       1  UNL1        0.0363
     54 H          -0.2460   -0.3046   -1.6560 H       1  UNL1        0.0625
     55 H           1.8997   -1.3500   -2.3884 H       1  UNL1        0.0655
     56 H           5.6021   -0.9895    0.2929 H       1  UNL1        0.0734
     57 H           5.9138   -0.6276   -2.5699 H       1  UNL1        0.0323
     58 H           6.8545    0.0906   -1.2384 H       1  UNL1        0.0323
     59 H           7.1428   -2.5263   -2.7369 H       1  UNL1        0.0561
     60 H           8.3534   -1.2586   -2.4437 H       1  UNL1        0.0561
     61 H           7.2326   -2.2868    1.0164 H       1  UNL1        0.0561
     62 H           7.4562   -3.9526    0.3781 H       1  UNL1        0.0561
     63 H           5.7987   -3.3968   -1.4650 H       1  UNL1        0.0323
     64 H           5.0859   -3.4338    0.1966 H       1  UNL1        0.0323
@<TRIPOS>BOND
     1     1     2    1
     2     2     3    1
     3     3     4   ar
     4     4     5   ar
     5     5     6    1
     6     6     7   ar
     7     7     8   ar
     8     8     9   ar
     9     9    10   ar
    10    10    11    1
    11    10    12   ar
    12    12    13   ar
    13    13    14   ar
    14    14    15    1
    15    15    16    1
    16    16    17    1
    17    16    18    1
    18    18    19    1
    19    19    20    1
    20    20    21   am
    21    21    22    2
    22    21    23    1
    23    14    24   ar
    24     5    25   ar
    25    25    26   ar
    26    26    27   ar
    27    27    28    1
    28    28    29    1
    29    29    30    1
    30    30    31    1
    31    31    32    1
    32    32    33    1
    33    33    34    1
    34    27     3   ar
    35    34    29    1
    36    24     6   ar
    37    13     8   ar
    38    23    18    1
    39     1    35    1
    40     1    36    1
    41     1    37    1
    42     4    38    1
    43     7    39    1
    44    11    40    1
    45    11    41    1
    46    11    42    1
    47    12    43    1
    48    16    44    1
    49    17    45    1
    50    17    46    1
    51    17    47    1
    52    18    48    1
    53    19    49    1
    54    19    50    1
    55    20    51    1
    56    23    52    1
    57    23    53    1
    58    25    54    1
    59    26    55    1
    60    29    56    1
    61    30    57    1
    62    30    58    1
    63    31    59    1
    64    31    60    1
    65    33    61    1
    66    33    62    1
    67    34    63    1
    68    34    64    1
