@<TRIPOS>MOLECULE
*****
 56 58 0 0 0
SMALL
GASTEIGER

@<TRIPOS>ATOM
      1 O          -5.4321    2.1374   -0.5252 O.2     1  UNL1       -0.2510
      2 C          -5.1061    2.6250    0.5844 C.2     1  UNL1        0.3047
      3 O          -5.1477    4.0274    0.6402 O.3     1  UNL1       -0.4806
      4 C          -4.7054    1.8247    1.7596 C.3     1  UNL1        0.0448
      5 C          -4.6809    0.3509    1.5351 C.3     1  UNL1       -0.0430
      6 C          -3.7197   -0.1014    0.4627 C.3     1  UNL1       -0.0517
      7 C          -2.3348    0.3205    0.8559 C.3     1  UNL1       -0.0419
      8 C          -1.2734   -0.0637   -0.1150 C.3     1  UNL1        0.0116
      9 C          -1.2161   -1.5393   -0.2919 C.ar    1  UNL1       -0.0397
     10 C          -1.9769   -2.1712   -1.2513 C.ar    1  UNL1       -0.0580
     11 C          -1.9404   -3.5502   -1.4345 C.ar    1  UNL1       -0.0615
     12 C          -1.1042   -4.2695   -0.6098 C.ar    1  UNL1       -0.0617
     13 C          -0.3279   -3.6740    0.3613 C.ar    1  UNL1       -0.0615
     14 C          -0.3862   -2.3104    0.5174 C.ar    1  UNL1       -0.0580
     15 C          -1.4185    0.5761   -1.4682 C.3     1  UNL1       -0.0405
     16 C          -0.3044    0.1992   -2.3739 C.3     1  UNL1       -0.0362
     17 C           0.9567   -0.2579   -1.7467 C.3     1  UNL1        0.0162
     18 N           1.1500    0.2219   -0.4246 N.am    1  UNL1       -0.2845
     19 C           2.4523    0.4639    0.1119 C.2     1  UNL1        0.3065
     20 O           2.6042    0.8964    1.2913 O.2     1  UNL1       -0.2523
     21 N           3.6607    0.2469   -0.6090 N.am    1  UNL1       -0.2693
     22 C           4.9217    0.4999   -0.0389 C.ar    1  UNL1        0.0349
     23 C           5.5204    1.7273   -0.1477 C.ar    1  UNL1       -0.0391
     24 C           6.7768    1.9765    0.4209 C.ar    1  UNL1       -0.0416
     25 C           7.4284    0.9857    1.0996 C.ar    1  UNL1        0.0411
     26 CL          9.0188    1.2739    1.8286 Cl      1  UNL1       -0.0835
     27 C           6.8349   -0.2504    1.2141 C.ar    1  UNL1       -0.0416
     28 C           5.5784   -0.4905    0.6423 C.ar    1  UNL1       -0.0391
     29 C           0.0360    0.4831    0.4436 C.3     1  UNL1        0.0258
     30 H          -5.2677    4.5800   -0.1989 H       1  UNL1        0.2951
     31 H          -3.7557    2.2372    2.1593 H       1  UNL1        0.0377
     32 H          -5.4901    2.0230    2.5445 H       1  UNL1        0.0377
     33 H          -5.7052    0.0845    1.1330 H       1  UNL1        0.0270
     34 H          -4.5810   -0.2330    2.4688 H       1  UNL1        0.0270
     35 H          -3.7252   -1.2193    0.5132 H       1  UNL1        0.0266
     36 H          -4.0741    0.2841   -0.4886 H       1  UNL1        0.0266
     37 H          -2.2678    1.4268    1.0424 H       1  UNL1        0.0274
     38 H          -2.0982   -0.1623    1.8264 H       1  UNL1        0.0274
     39 H          -2.6530   -1.6151   -1.9187 H       1  UNL1        0.0620
     40 H          -2.5330   -4.0567   -2.1842 H       1  UNL1        0.0618
     41 H          -1.0663   -5.3533   -0.7435 H       1  UNL1        0.0618
     42 H           0.3319   -4.2526    1.0102 H       1  UNL1        0.0618
     43 H           0.2002   -1.7911    1.2625 H       1  UNL1        0.0620
     44 H          -1.3354    1.6929   -1.2828 H       1  UNL1        0.0275
     45 H          -2.3721    0.3596   -1.9850 H       1  UNL1        0.0275
     46 H          -0.6558   -0.6254   -3.0596 H       1  UNL1        0.0281
     47 H          -0.1269    1.0740   -3.0667 H       1  UNL1        0.0281
     48 H           1.0553   -1.3824   -1.8084 H       1  UNL1        0.0465
     49 H           1.7891    0.0928   -2.4309 H       1  UNL1        0.0465
     50 H           3.6030   -0.1080   -1.5781 H       1  UNL1        0.1564
     51 H           5.0080    2.5032   -0.6802 H       1  UNL1        0.0636
     52 H           7.2301    2.9513    0.3229 H       1  UNL1        0.0633
     53 H           7.3598   -1.0266    1.7533 H       1  UNL1        0.0633
     54 H           5.1365   -1.4671    0.7469 H       1  UNL1        0.0636
     55 H          -0.1035    1.6059    0.4338 H       1  UNL1        0.0474
     56 H           0.2327    0.2194    1.4764 H       1  UNL1        0.0474
@<TRIPOS>BOND
     1     1     2    2
     2     2     3    1
     3     2     4    1
     4     4     5    1
     5     5     6    1
     6     6     7    1
     7     7     8    1
     8     8     9    1
     9     9    10   ar
    10    10    11   ar
    11    11    12   ar
    12    12    13   ar
    13    13    14   ar
    14     8    15    1
    15    15    16    1
    16    16    17    1
    17    17    18    1
    18    18    19   am
    19    19    20    2
    20    19    21   am
    21    21    22    1
    22    22    23   ar
    23    23    24   ar
    24    24    25   ar
    25    25    26    1
    26    25    27   ar
    27    27    28   ar
    28    18    29    1
    29    29     8    1
    30    14     9   ar
    31    28    22   ar
    32     3    30    1
    33     4    31    1
    34     4    32    1
    35     5    33    1
    36     5    34    1
    37     6    35    1
    38     6    36    1
    39     7    37    1
    40     7    38    1
    41    10    39    1
    42    11    40    1
    43    12    41    1
    44    13    42    1
    45    14    43    1
    46    15    44    1
    47    15    45    1
    48    16    46    1
    49    16    47    1
    50    17    48    1
    51    17    49    1
    52    21    50    1
    53    23    51    1
    54    24    52    1
    55    27    53    1
    56    28    54    1
    57    29    55    1
    58    29    56    1
