
     RDKit          3D

 56 58  0  0  0  0  0  0  0  0999 V2000
   -5.4321    2.1374   -0.5252 O   0  0  0  0  0  0  0  0  0  0  0  0
   -5.1061    2.6250    0.5844 C   0  0  0  0  0  0  0  0  0  0  0  0
   -5.1477    4.0274    0.6402 O   0  0  0  0  0  0  0  0  0  0  0  0
   -4.7054    1.8247    1.7596 C   0  0  0  0  0  0  0  0  0  0  0  0
   -4.6809    0.3509    1.5351 C   0  0  0  0  0  0  0  0  0  0  0  0
   -3.7197   -0.1014    0.4627 C   0  0  0  0  0  0  0  0  0  0  0  0
   -2.3348    0.3205    0.8559 C   0  0  0  0  0  0  0  0  0  0  0  0
   -1.2734   -0.0637   -0.1150 C   0  0  0  0  0  0  0  0  0  0  0  0
   -1.2161   -1.5393   -0.2919 C   0  0  0  0  0  0  0  0  0  0  0  0
   -1.9769   -2.1712   -1.2513 C   0  0  0  0  0  0  0  0  0  0  0  0
   -1.9404   -3.5502   -1.4345 C   0  0  0  0  0  0  0  0  0  0  0  0
   -1.1042   -4.2695   -0.6098 C   0  0  0  0  0  0  0  0  0  0  0  0
   -0.3279   -3.6740    0.3613 C   0  0  0  0  0  0  0  0  0  0  0  0
   -0.3862   -2.3104    0.5174 C   0  0  0  0  0  0  0  0  0  0  0  0
   -1.4185    0.5761   -1.4682 C   0  0  0  0  0  0  0  0  0  0  0  0
   -0.3044    0.1992   -2.3739 C   0  0  0  0  0  0  0  0  0  0  0  0
    0.9567   -0.2579   -1.7467 C   0  0  0  0  0  0  0  0  0  0  0  0
    1.1500    0.2219   -0.4246 N   0  0  0  0  0  0  0  0  0  0  0  0
    2.4523    0.4639    0.1119 C   0  0  0  0  0  0  0  0  0  0  0  0
    2.6042    0.8964    1.2913 O   0  0  0  0  0  0  0  0  0  0  0  0
    3.6607    0.2469   -0.6090 N   0  0  0  0  0  0  0  0  0  0  0  0
    4.9217    0.4999   -0.0389 C   0  0  0  0  0  0  0  0  0  0  0  0
    5.5204    1.7273   -0.1477 C   0  0  0  0  0  0  0  0  0  0  0  0
    6.7768    1.9765    0.4209 C   0  0  0  0  0  0  0  0  0  0  0  0
    7.4284    0.9857    1.0996 C   0  0  0  0  0  0  0  0  0  0  0  0
    9.0188    1.2739    1.8286 Cl  0  0  0  0  0  0  0  0  0  0  0  0
    6.8349   -0.2504    1.2141 C   0  0  0  0  0  0  0  0  0  0  0  0
    5.5784   -0.4905    0.6423 C   0  0  0  0  0  0  0  0  0  0  0  0
    0.0360    0.4831    0.4436 C   0  0  0  0  0  0  0  0  0  0  0  0
   -5.2677    4.5800   -0.1989 H   0  0  0  0  0  0  0  0  0  0  0  0
   -3.7557    2.2372    2.1593 H   0  0  0  0  0  0  0  0  0  0  0  0
   -5.4901    2.0230    2.5445 H   0  0  0  0  0  0  0  0  0  0  0  0
   -5.7052    0.0845    1.1330 H   0  0  0  0  0  0  0  0  0  0  0  0
   -4.5810   -0.2330    2.4688 H   0  0  0  0  0  0  0  0  0  0  0  0
   -3.7252   -1.2193    0.5132 H   0  0  0  0  0  0  0  0  0  0  0  0
   -4.0741    0.2841   -0.4886 H   0  0  0  0  0  0  0  0  0  0  0  0
   -2.2678    1.4268    1.0424 H   0  0  0  0  0  0  0  0  0  0  0  0
   -2.0982   -0.1623    1.8264 H   0  0  0  0  0  0  0  0  0  0  0  0
   -2.6530   -1.6151   -1.9187 H   0  0  0  0  0  0  0  0  0  0  0  0
   -2.5330   -4.0567   -2.1842 H   0  0  0  0  0  0  0  0  0  0  0  0
   -1.0663   -5.3533   -0.7435 H   0  0  0  0  0  0  0  0  0  0  0  0
    0.3319   -4.2526    1.0102 H   0  0  0  0  0  0  0  0  0  0  0  0
    0.2002   -1.7911    1.2625 H   0  0  0  0  0  0  0  0  0  0  0  0
   -1.3354    1.6929   -1.2828 H   0  0  0  0  0  0  0  0  0  0  0  0
   -2.3721    0.3596   -1.9850 H   0  0  0  0  0  0  0  0  0  0  0  0
   -0.6558   -0.6254   -3.0596 H   0  0  0  0  0  0  0  0  0  0  0  0
   -0.1269    1.0740   -3.0667 H   0  0  0  0  0  0  0  0  0  0  0  0
    1.0553   -1.3824   -1.8084 H   0  0  0  0  0  0  0  0  0  0  0  0
    1.7891    0.0928   -2.4309 H   0  0  0  0  0  0  0  0  0  0  0  0
    3.6030   -0.1080   -1.5781 H   0  0  0  0  0  0  0  0  0  0  0  0
    5.0080    2.5032   -0.6802 H   0  0  0  0  0  0  0  0  0  0  0  0
    7.2301    2.9513    0.3229 H   0  0  0  0  0  0  0  0  0  0  0  0
    7.3598   -1.0266    1.7533 H   0  0  0  0  0  0  0  0  0  0  0  0
    5.1365   -1.4671    0.7469 H   0  0  0  0  0  0  0  0  0  0  0  0
   -0.1035    1.6059    0.4338 H   0  0  0  0  0  0  0  0  0  0  0  0
    0.2327    0.2194    1.4764 H   0  0  0  0  0  0  0  0  0  0  0  0
  1  2  2  0
  2  3  1  0
  2  4  1  0
  4  5  1  0
  5  6  1  0
  6  7  1  0
  7  8  1  0
  8  9  1  0
  9 10  2  0
 10 11  1  0
 11 12  2  0
 12 13  1  0
 13 14  2  0
  8 15  1  0
 15 16  1  0
 16 17  1  0
 17 18  1  0
 18 19  1  0
 19 20  2  0
 19 21  1  0
 21 22  1  0
 22 23  2  0
 23 24  1  0
 24 25  2  0
 25 26  1  0
 25 27  1  0
 27 28  2  0
 18 29  1  0
 29  8  1  0
 14  9  1  0
 28 22  1  0
  3 30  1  0
  4 31  1  0
  4 32  1  0
  5 33  1  0
  5 34  1  0
  6 35  1  0
  6 36  1  0
  7 37  1  0
  7 38  1  0
 10 39  1  0
 11 40  1  0
 12 41  1  0
 13 42  1  0
 14 43  1  0
 15 44  1  0
 15 45  1  0
 16 46  1  0
 16 47  1  0
 17 48  1  0
 17 49  1  0
 21 50  1  0
 23 51  1  0
 24 52  1  0
 27 53  1  0
 28 54  1  0
 29 55  1  0
 29 56  1  0
M  END
$$$$
