
     RDKit          3D

 61 64  0  0  0  0  0  0  0  0999 V2000
    1.3722   -1.9857    2.6204 C   0  0  0  0  0  0  0  0  0  0  0  0
    1.3884   -0.6957    1.9736 N   0  0  0  0  0  0  0  0  0  0  0  0
    2.4315    0.1287    1.9090 C   0  0  0  0  0  0  0  0  0  0  0  0
    3.7793   -0.0713    2.4321 C   0  0  0  0  0  0  0  0  0  0  0  0
    4.6761   -0.6212    1.4279 N   0  0  0  0  0  0  0  0  0  0  0  0
    4.9776   -1.9647    1.1164 C   0  0  0  0  0  0  0  0  0  0  0  0
    4.7825   -2.9797    1.8257 O   0  0  0  0  0  0  0  0  0  0  0  0
    5.5924   -1.9910   -0.2460 C   0  0  0  0  0  0  0  0  0  0  0  0
    6.2225   -0.6629   -0.3520 N   0  0  0  0  0  0  0  0  0  0  0  0
    7.3483   -0.3248   -1.1545 C   0  0  0  0  0  0  0  0  0  0  0  0
    7.9004    0.9298   -1.2302 C   0  0  0  0  0  0  0  0  0  0  0  0
    8.9964    1.2253   -2.0249 C   0  0  0  0  0  0  0  0  0  0  0  0
    9.5816    0.2340   -2.7860 C   0  0  0  0  0  0  0  0  0  0  0  0
   10.6519    0.5574   -3.5517 F   0  0  0  0  0  0  0  0  0  0  0  0
    9.0403   -1.0335   -2.7220 C   0  0  0  0  0  0  0  0  0  0  0  0
    7.9386   -1.3163   -1.9192 C   0  0  0  0  0  0  0  0  0  0  0  0
    5.4622    0.1614    0.5018 C   0  0  0  0  0  0  0  0  0  0  0  0
    5.4449    1.4352    0.4876 O   0  0  0  0  0  0  0  0  0  0  0  0
    2.0611    1.2912    1.2148 C   0  0  0  0  0  0  0  0  0  0  0  0
    0.7400    1.1128    0.8692 C   0  0  0  0  0  0  0  0  0  0  0  0
   -0.1944    1.8656    0.1896 C   0  0  0  0  0  0  0  0  0  0  0  0
   -1.4477    1.3871    0.0117 N   0  0  0  0  0  0  0  0  0  0  0  0
   -1.8370    0.1882    0.4741 C   0  0  0  0  0  0  0  0  0  0  0  0
   -3.2045   -0.2574    0.2336 C   0  0  0  0  0  0  0  0  0  0  0  0
   -3.5713   -1.3805    0.6590 O   0  0  0  0  0  0  0  0  0  0  0  0
   -4.1175    0.5671   -0.4760 N   0  0  0  0  0  0  0  0  0  0  0  0
   -5.5113    0.1461   -0.7425 C   0  0  2  0  0  0  0  0  0  0  0  0
   -5.7244    0.2012   -2.1894 C   0  0  0  0  0  0  0  0  0  0  0  0
   -5.8813    0.2592   -3.3604 N   0  0  0  0  0  0  0  0  0  0  0  0
   -6.3985    1.0886   -0.0362 C   0  0  0  0  0  0  0  0  0  0  0  0
   -7.8529    0.8970   -0.0716 C   0  0  0  0  0  0  0  0  0  0  0  0
   -8.5084    0.9118   -1.3960 C   0  0  0  0  0  0  0  0  0  0  0  0
  -10.0205    0.7430   -1.1813 C   0  0  0  0  0  0  0  0  0  0  0  0
  -10.2372   -0.5125   -0.5202 N   0  0  0  0  0  0  0  0  0  0  0  0
   -0.9317   -0.5449    1.1350 N   0  0  0  0  0  0  0  0  0  0  0  0
    0.3313   -0.1360    1.3504 C   0  0  0  0  0  0  0  0  0  0  0  0
    0.8067   -2.7316    1.9821 H   0  0  0  0  0  0  0  0  0  0  0  0
    0.7397   -1.9498    3.5625 H   0  0  0  0  0  0  0  0  0  0  0  0
    2.3521   -2.4032    2.8370 H   0  0  0  0  0  0  0  0  0  0  0  0
    3.7984   -0.7945    3.2888 H   0  0  0  0  0  0  0  0  0  0  0  0
    4.2324    0.8659    2.8063 H   0  0  0  0  0  0  0  0  0  0  0  0
    4.8359   -2.1618   -1.0150 H   0  0  0  0  0  0  0  0  0  0  0  0
    6.4045   -2.7188   -0.2217 H   0  0  0  0  0  0  0  0  0  0  0  0
    7.4591    1.7173   -0.6421 H   0  0  0  0  0  0  0  0  0  0  0  0
    9.4087    2.2297   -2.0634 H   0  0  0  0  0  0  0  0  0  0  0  0
    9.5046   -1.8025   -3.3182 H   0  0  0  0  0  0  0  0  0  0  0  0
    7.5338   -2.3190   -1.8885 H   0  0  0  0  0  0  0  0  0  0  0  0
    2.6952    2.1351    1.0073 H   0  0  0  0  0  0  0  0  0  0  0  0
    0.1140    2.8343   -0.1855 H   0  0  0  0  0  0  0  0  0  0  0  0
   -3.7576    1.4881   -0.8034 H   0  0  0  0  0  0  0  0  0  0  0  0
   -5.6070   -0.8647   -0.3162 H   0  0  0  0  0  0  0  0  0  0  0  0
   -6.1029    2.1456   -0.3462 H   0  0  0  0  0  0  0  0  0  0  0  0
   -6.0556    1.0882    1.0559 H   0  0  0  0  0  0  0  0  0  0  0  0
   -8.1172   -0.0054    0.5398 H   0  0  0  0  0  0  0  0  0  0  0  0
   -8.3079    1.7558    0.5236 H   0  0  0  0  0  0  0  0  0  0  0  0
   -8.1782    0.0797   -2.0669 H   0  0  0  0  0  0  0  0  0  0  0  0
   -8.2981    1.8541   -1.9184 H   0  0  0  0  0  0  0  0  0  0  0  0
  -10.3542    1.5696   -0.5228 H   0  0  0  0  0  0  0  0  0  0  0  0
  -10.5162    0.7580   -2.1644 H   0  0  0  0  0  0  0  0  0  0  0  0
  -10.3871   -0.4134    0.5122 H   0  0  0  0  0  0  0  0  0  0  0  0
   -9.4842   -1.2092   -0.6522 H   0  0  0  0  0  0  0  0  0  0  0  0
  1  2  1  0
  2  3  1  0
  3  4  1  0
  4  5  1  0
  5  6  1  0
  6  7  2  0
  6  8  1  0
  8  9  1  0
  9 10  1  0
 10 11  2  0
 11 12  1  0
 12 13  2  0
 13 14  1  0
 13 15  1  0
 15 16  2  0
  9 17  1  0
 17 18  2  0
  3 19  2  0
 19 20  1  0
 20 21  2  0
 21 22  1  0
 22 23  2  0
 23 24  1  0
 24 25  2  0
 24 26  1  0
 26 27  1  0
 27 28  1  0
 28 29  3  0
 27 30  1  0
 30 31  1  0
 31 32  1  0
 32 33  1  0
 33 34  1  0
 23 35  1  0
 35 36  2  0
 36  2  1  0
 17  5  1  0
 36 20  1  0
 16 10  1  0
  1 37  1  0
  1 38  1  0
  1 39  1  0
  4 40  1  0
  4 41  1  0
  8 42  1  0
  8 43  1  0
 11 44  1  0
 12 45  1  0
 15 46  1  0
 16 47  1  0
 19 48  1  0
 21 49  1  0
 26 50  1  0
 27 51  1  1
 30 52  1  0
 30 53  1  0
 31 54  1  0
 31 55  1  0
 32 56  1  0
 32 57  1  0
 33 58  1  0
 33 59  1  0
 34 60  1  0
 34 61  1  0
M  END
$$$$
