@<TRIPOS>MOLECULE
*****
 61 64 0 0 0
SMALL
GASTEIGER

@<TRIPOS>ATOM
      1 C           1.3722   -1.9857    2.6204 C.3     1  UNL1        0.0135
      2 N           1.3884   -0.6957    1.9736 N.ar    1  UNL1       -0.3304
      3 C           2.4315    0.1287    1.9090 C.ar    1  UNL1        0.0387
      4 C           3.7793   -0.0713    2.4321 C.3     1  UNL1        0.0642
      5 N           4.6761   -0.6212    1.4279 N.am    1  UNL1       -0.2185
      6 C           4.9776   -1.9647    1.1164 C.2     1  UNL1        0.2412
      7 O           4.7825   -2.9797    1.8257 O.2     1  UNL1       -0.2734
      8 C           5.5924   -1.9910   -0.2460 C.3     1  UNL1        0.0982
      9 N           6.2225   -0.6629   -0.3520 N.am    1  UNL1       -0.2462
     10 C           7.3483   -0.3248   -1.1545 C.ar    1  UNL1        0.0385
     11 C           7.9004    0.9298   -1.2302 C.ar    1  UNL1       -0.0375
     12 C           8.9964    1.2253   -2.0249 C.ar    1  UNL1       -0.0247
     13 C           9.5816    0.2340   -2.7860 C.ar    1  UNL1        0.1235
     14 F          10.6519    0.5574   -3.5517 F       1  UNL1       -0.2055
     15 C           9.0403   -1.0335   -2.7220 C.ar    1  UNL1       -0.0247
     16 C           7.9386   -1.3163   -1.9192 C.ar    1  UNL1       -0.0375
     17 C           5.4622    0.1614    0.5018 C.2     1  UNL1        0.3162
     18 O           5.4449    1.4352    0.4876 O.2     1  UNL1       -0.2516
     19 C           2.0611    1.2912    1.2148 C.ar    1  UNL1       -0.0286
     20 C           0.7400    1.1128    0.8692 C.ar    1  UNL1        0.0373
     21 C          -0.1944    1.8656    0.1896 C.ar    1  UNL1        0.0408
     22 N          -1.4477    1.3871    0.0117 N.ar    1  UNL1       -0.2311
     23 C          -1.8370    0.1882    0.4741 C.ar    1  UNL1        0.2176
     24 C          -3.2045   -0.2574    0.2336 C.2     1  UNL1        0.2823
     25 O          -3.5713   -1.3805    0.6590 O.2     1  UNL1       -0.2668
     26 N          -4.1175    0.5671   -0.4760 N.am    1  UNL1       -0.2933
     27 C          -5.5113    0.1461   -0.7425 C.3     1  UNL1        0.1105
     28 C          -5.7244    0.2012   -2.1894 C.1     1  UNL1        0.0849
     29 N          -5.8813    0.2592   -3.3604 N.1     1  UNL1       -0.1946
     30 C          -6.3985    1.0886   -0.0362 C.3     1  UNL1       -0.0212
     31 C          -7.8529    0.8970   -0.0716 C.3     1  UNL1       -0.0493
     32 C          -8.5084    0.9118   -1.3960 C.3     1  UNL1       -0.0406
     33 C         -10.0205    0.7430   -1.1813 C.3     1  UNL1       -0.0069
     34 N         -10.2372   -0.5125   -0.5202 N.3     1  UNL1       -0.3300
     35 N          -0.9317   -0.5449    1.1350 N.ar    1  UNL1       -0.2054
     36 C           0.3313   -0.1360    1.3504 C.ar    1  UNL1        0.1447
     37 H           0.8067   -2.7316    1.9821 H       1  UNL1        0.0456
     38 H           0.7397   -1.9498    3.5625 H       1  UNL1        0.0456
     39 H           2.3521   -2.4032    2.8370 H       1  UNL1        0.0456
     40 H           3.7984   -0.7945    3.2888 H       1  UNL1        0.0534
     41 H           4.2324    0.8659    2.8063 H       1  UNL1        0.0534
     42 H           4.8359   -2.1618   -1.0150 H       1  UNL1        0.0565
     43 H           6.4045   -2.7188   -0.2217 H       1  UNL1        0.0565
     44 H           7.4591    1.7173   -0.6421 H       1  UNL1        0.0637
     45 H           9.4087    2.2297   -2.0634 H       1  UNL1        0.0647
     46 H           9.5046   -1.8025   -3.3182 H       1  UNL1        0.0647
     47 H           7.5338   -2.3190   -1.8885 H       1  UNL1        0.0637
     48 H           2.6952    2.1351    1.0073 H       1  UNL1        0.0643
     49 H           0.1140    2.8343   -0.1855 H       1  UNL1        0.0837
     50 H          -3.7576    1.4881   -0.8034 H       1  UNL1        0.1504
     51 H          -5.6070   -0.8647   -0.3162 H       1  UNL1        0.0657
     52 H          -6.1029    2.1456   -0.3462 H       1  UNL1        0.0293
     53 H          -6.0556    1.0882    1.0559 H       1  UNL1        0.0293
     54 H          -8.1172   -0.0054    0.5398 H       1  UNL1        0.0267
     55 H          -8.3079    1.7558    0.5236 H       1  UNL1        0.0267
     56 H          -8.1782    0.0797   -2.0669 H       1  UNL1        0.0277
     57 H          -8.2981    1.8541   -1.9184 H       1  UNL1        0.0277
     58 H         -10.3542    1.5696   -0.5228 H       1  UNL1        0.0422
     59 H         -10.5162    0.7580   -2.1644 H       1  UNL1        0.0422
     60 H         -10.3871   -0.4134    0.5122 H       1  UNL1        0.1182
     61 H          -9.4842   -1.2092   -0.6522 H       1  UNL1        0.1182
@<TRIPOS>BOND
     1     1     2    1
     2     2     3   ar
     3     3     4    1
     4     4     5    1
     5     5     6   am
     6     6     7    2
     7     6     8    1
     8     8     9    1
     9     9    10    1
    10    10    11   ar
    11    11    12   ar
    12    12    13   ar
    13    13    14    1
    14    13    15   ar
    15    15    16   ar
    16     9    17   am
    17    17    18    2
    18     3    19   ar
    19    19    20   ar
    20    20    21   ar
    21    21    22   ar
    22    22    23   ar
    23    23    24    1
    24    24    25    2
    25    24    26   am
    26    26    27    1
    27    27    28    1
    28    28    29    3
    29    27    30    1
    30    30    31    1
    31    31    32    1
    32    32    33    1
    33    33    34    1
    34    23    35   ar
    35    35    36   ar
    36    36     2   ar
    37    17     5   am
    38    36    20   ar
    39    16    10   ar
    40     1    37    1
    41     1    38    1
    42     1    39    1
    43     4    40    1
    44     4    41    1
    45     8    42    1
    46     8    43    1
    47    11    44    1
    48    12    45    1
    49    15    46    1
    50    16    47    1
    51    19    48    1
    52    21    49    1
    53    26    50    1
    54    27    51    1
    55    30    52    1
    56    30    53    1
    57    31    54    1
    58    31    55    1
    59    32    56    1
    60    32    57    1
    61    33    58    1
    62    33    59    1
    63    34    60    1
    64    34    61    1
