
     RDKit          3D

 39 42  0  0  0  0  0  0  0  0999 V2000
    4.2349   -1.3204   -3.3627 N   0  0  0  0  0  0  0  0  0  0  0  0
    3.8592   -1.5596   -2.2726 C   0  0  0  0  0  0  0  0  0  0  0  0
    3.3854   -1.8674   -0.9544 C   0  0  0  0  0  0  0  0  0  0  0  0
    3.8848   -2.8012   -0.0880 C   0  0  0  0  0  0  0  0  0  0  0  0
    3.1571   -2.7790    1.0517 N   0  0  0  0  0  0  0  0  0  0  0  0
    2.1980   -1.8394    0.9202 C   0  0  0  0  0  0  0  0  0  0  0  0
    1.2124   -1.4361    1.7943 C   0  0  0  0  0  0  0  0  0  0  0  0
    0.3445   -0.4376    1.4094 C   0  0  0  0  0  0  0  0  0  0  0  0
    0.5197    0.0997    0.1608 C   0  0  0  0  0  0  0  0  0  0  0  0
   -0.3744    1.1584   -0.2913 C   0  0  0  0  0  0  0  0  0  0  0  0
   -1.7479    1.0396   -0.4714 C   0  0  0  0  0  0  0  0  0  0  0  0
   -2.5524   -0.1577   -0.2424 C   0  0  0  0  0  0  0  0  0  0  0  0
   -3.5719   -0.1627    0.6887 C   0  0  0  0  0  0  0  0  0  0  0  0
   -4.3479   -1.2743    0.9285 C   0  0  0  0  0  0  0  0  0  0  0  0
   -4.0851   -2.4063    0.2090 C   0  0  0  0  0  0  0  0  0  0  0  0
   -4.8231   -3.5041    0.4201 F   0  0  0  0  0  0  0  0  0  0  0  0
   -3.0773   -2.4739   -0.7421 C   0  0  0  0  0  0  0  0  0  0  0  0
   -2.7672   -3.9401   -1.6463 Cl  0  0  0  0  0  0  0  0  0  0  0  0
   -2.3319   -1.3331   -0.9417 C   0  0  0  0  0  0  0  0  0  0  0  0
   -2.2035    2.2320   -0.8954 N   0  0  0  0  0  0  0  0  0  0  0  0
   -1.1830    3.0982   -0.9916 C   0  0  0  0  0  0  0  0  0  0  0  0
   -0.0676    2.4109   -0.6135 N   0  0  0  0  0  0  0  0  0  0  0  0
    1.2612    3.0065   -0.5810 C   0  0  0  0  0  0  0  0  0  0  0  0
    1.5030    3.6107    0.7832 C   0  0  0  0  0  0  0  0  0  0  0  0
    2.7595    4.1754    0.8183 F   0  0  0  0  0  0  0  0  0  0  0  0
    1.3792    2.6727    1.7716 F   0  0  0  0  0  0  0  0  0  0  0  0
    1.5083   -0.3086   -0.7092 C   0  0  0  0  0  0  0  0  0  0  0  0
    2.3467   -1.2846   -0.3165 N   0  0  0  0  0  0  0  0  0  0  0  0
    4.7257   -3.4747   -0.2429 H   0  0  0  0  0  0  0  0  0  0  0  0
    1.1653   -1.9275    2.7526 H   0  0  0  0  0  0  0  0  0  0  0  0
   -0.4210   -0.1365    2.1101 H   0  0  0  0  0  0  0  0  0  0  0  0
   -3.7541    0.7528    1.2429 H   0  0  0  0  0  0  0  0  0  0  0  0
   -5.1454   -1.2850    1.6539 H   0  0  0  0  0  0  0  0  0  0  0  0
   -1.5174   -1.3069   -1.6763 H   0  0  0  0  0  0  0  0  0  0  0  0
   -1.1839    4.1371   -1.2990 H   0  0  0  0  0  0  0  0  0  0  0  0
    2.0573    2.2991   -0.8061 H   0  0  0  0  0  0  0  0  0  0  0  0
    1.2997    3.8501   -1.3211 H   0  0  0  0  0  0  0  0  0  0  0  0
    0.6917    4.3699    0.9321 H   0  0  0  0  0  0  0  0  0  0  0  0
    1.6615    0.1034   -1.6970 H   0  0  0  0  0  0  0  0  0  0  0  0
  1  2  3  0
  2  3  1  0
  3  4  2  0
  4  5  1  0
  5  6  2  0
  6  7  1  0
  7  8  2  0
  8  9  1  0
  9 10  1  0
 10 11  2  0
 11 12  1  0
 12 13  2  0
 13 14  1  0
 14 15  2  0
 15 16  1  0
 15 17  1  0
 17 18  1  0
 17 19  2  0
 11 20  1  0
 20 21  2  0
 21 22  1  0
 22 23  1  0
 23 24  1  0
 24 25  1  0
 24 26  1  0
  9 27  2  0
 27 28  1  0
 28  3  1  0
 28  6  1  0
 22 10  1  0
 19 12  1  0
  4 29  1  0
  7 30  1  0
  8 31  1  0
 13 32  1  0
 14 33  1  0
 19 34  1  0
 21 35  1  0
 23 36  1  0
 23 37  1  0
 24 38  1  0
 27 39  1  0
M  END
$$$$
