@<TRIPOS>MOLECULE
*****
 39 42 0 0 0
SMALL
GASTEIGER

@<TRIPOS>ATOM
      1 N           4.2349   -1.3204   -3.3627 N.1     1  UNL1       -0.1893
      2 C           3.8592   -1.5596   -2.2726 C.1     1  UNL1        0.1192
      3 C           3.3854   -1.8674   -0.9544 C.ar    1  UNL1        0.1438
      4 C           3.8848   -2.8012   -0.0880 C.ar    1  UNL1        0.0643
      5 N           3.1571   -2.7790    1.0517 N.ar    1  UNL1       -0.2348
      6 C           2.1980   -1.8394    0.9202 C.ar    1  UNL1        0.1385
      7 C           1.2124   -1.4361    1.7943 C.ar    1  UNL1       -0.0181
      8 C           0.3445   -0.4376    1.4094 C.ar    1  UNL1       -0.0477
      9 C           0.5197    0.0997    0.1608 C.ar    1  UNL1        0.0173
     10 C          -0.3744    1.1584   -0.2913 C.ar    1  UNL1        0.0780
     11 C          -1.7479    1.0396   -0.4714 C.ar    1  UNL1        0.0968
     12 C          -2.5524   -0.1577   -0.2424 C.ar    1  UNL1        0.0040
     13 C          -3.5719   -0.1627    0.6887 C.ar    1  UNL1       -0.0497
     14 C          -4.3479   -1.2743    0.9285 C.ar    1  UNL1       -0.0244
     15 C          -4.0851   -2.4063    0.2090 C.ar    1  UNL1        0.1417
     16 F          -4.8231   -3.5041    0.4201 F       1  UNL1       -0.2040
     17 C          -3.0773   -2.4739   -0.7421 C.ar    1  UNL1        0.0767
     18 CL         -2.7672   -3.9401   -1.6463 Cl      1  UNL1       -0.0806
     19 C          -2.3319   -1.3331   -0.9417 C.ar    1  UNL1       -0.0313
     20 N          -2.2035    2.2320   -0.8954 N.ar    1  UNL1       -0.2351
     21 C          -1.1830    3.0982   -0.9916 C.ar    1  UNL1        0.0972
     22 N          -0.0676    2.4109   -0.6135 N.ar    1  UNL1       -0.3241
     23 C           1.2612    3.0065   -0.5810 C.3     1  UNL1        0.0852
     24 C           1.5030    3.6107    0.7832 C.3     1  UNL1        0.2569
     25 F           2.7595    4.1754    0.8183 F       1  UNL1       -0.2073
     26 F           1.3792    2.6727    1.7716 F       1  UNL1       -0.2073
     27 C           1.5083   -0.3086   -0.7092 C.ar    1  UNL1        0.0216
     28 N           2.3467   -1.2846   -0.3165 N.ar    1  UNL1       -0.2906
     29 H           4.7257   -3.4747   -0.2429 H       1  UNL1        0.0859
     30 H           1.1653   -1.9275    2.7526 H       1  UNL1        0.0654
     31 H          -0.4210   -0.1365    2.1101 H       1  UNL1        0.0626
     32 H          -3.7541    0.7528    1.2429 H       1  UNL1        0.0625
     33 H          -5.1454   -1.2850    1.6539 H       1  UNL1        0.0647
     34 H          -1.5174   -1.3069   -1.6763 H       1  UNL1        0.0640
     35 H          -1.1839    4.1371   -1.2990 H       1  UNL1        0.1029
     36 H           2.0573    2.2991   -0.8061 H       1  UNL1        0.0548
     37 H           1.2997    3.8501   -1.3211 H       1  UNL1        0.0548
     38 H           0.6917    4.3699    0.9321 H       1  UNL1        0.1037
     39 H           1.6615    0.1034   -1.6970 H       1  UNL1        0.0820
@<TRIPOS>BOND
     1     1     2    3
     2     2     3    1
     3     3     4   ar
     4     4     5   ar
     5     5     6   ar
     6     6     7   ar
     7     7     8   ar
     8     8     9   ar
     9     9    10    1
    10    10    11   ar
    11    11    12    1
    12    12    13   ar
    13    13    14   ar
    14    14    15   ar
    15    15    16    1
    16    15    17   ar
    17    17    18    1
    18    17    19   ar
    19    11    20   ar
    20    20    21   ar
    21    21    22   ar
    22    22    23    1
    23    23    24    1
    24    24    25    1
    25    24    26    1
    26     9    27   ar
    27    27    28   ar
    28    28     3   ar
    29    28     6   ar
    30    22    10   ar
    31    19    12   ar
    32     4    29    1
    33     7    30    1
    34     8    31    1
    35    13    32    1
    36    14    33    1
    37    19    34    1
    38    21    35    1
    39    23    36    1
    40    23    37    1
    41    24    38    1
    42    27    39    1
