@<TRIPOS>MOLECULE
*****
 41 44 0 0 0
SMALL
GASTEIGER

@<TRIPOS>ATOM
      1 N          -6.7883    0.6356    1.7549 N.2     1  UNL1       -0.0994
      2 C          -6.1078    1.3635    0.9426 C.2     1  UNL1        0.3082
      3 N          -6.4896    2.7158    0.7801 N.pl3   1  UNL1       -0.2466
      4 C          -4.9639    0.8831    0.1753 C.ar    1  UNL1        0.0668
      5 C          -4.6602    1.4362   -1.0730 C.ar    1  UNL1       -0.0448
      6 C          -3.5732    0.9653   -1.7798 C.ar    1  UNL1       -0.0334
      7 C          -2.7632   -0.0426   -1.2982 C.ar    1  UNL1        0.0892
      8 N          -1.6677   -0.6858   -1.7516 N.ar    1  UNL1       -0.2321
      9 C          -1.2551   -1.6138   -0.8701 C.ar    1  UNL1        0.1155
     10 C          -0.0781   -2.5379   -1.0001 C.3     1  UNL1        0.0635
     11 C           1.1463   -1.9160   -0.4328 C.ar    1  UNL1        0.1155
     12 N           1.5642   -2.0198    0.8383 N.ar    1  UNL1       -0.2321
     13 C           2.7255   -1.3153    0.9849 C.ar    1  UNL1        0.0892
     14 C           3.5843   -1.0678    2.0263 C.ar    1  UNL1       -0.0334
     15 C           4.7074   -0.3007    1.8759 C.ar    1  UNL1       -0.0448
     16 C           5.0142    0.2567    0.6485 C.ar    1  UNL1        0.0668
     17 C           6.1860    1.0771    0.4233 C.2     1  UNL1        0.3082
     18 N           6.7671    1.1172   -0.7225 N.2     1  UNL1       -0.0994
     19 N           6.7156    1.8588    1.4782 N.pl3   1  UNL1       -0.2466
     20 C           4.1383    0.0040   -0.4127 C.ar    1  UNL1       -0.0214
     21 C           3.0071   -0.7696   -0.2578 C.ar    1  UNL1        0.0670
     22 N           2.0360   -1.1513   -1.0877 N.ar    1  UNL1       -0.3414
     23 N          -2.1186   -1.5439    0.1580 N.ar    1  UNL1       -0.3414
     24 C          -3.0576   -0.5923   -0.0674 C.ar    1  UNL1        0.0670
     25 C          -4.1433   -0.1283    0.6482 C.ar    1  UNL1       -0.0214
     26 H          -6.5936   -0.3640    1.9466 H       1  UNL1        0.3633
     27 H          -5.7674    3.4274    0.6233 H       1  UNL1        0.2884
     28 H          -7.4943    2.9636    0.8224 H       1  UNL1        0.2884
     29 H          -5.3102    2.2189   -1.4192 H       1  UNL1        0.0627
     30 H          -3.3541    1.3944   -2.7265 H       1  UNL1        0.0640
     31 H           0.0892   -2.8121   -2.0707 H       1  UNL1        0.0422
     32 H          -0.2885   -3.5152   -0.4878 H       1  UNL1        0.0422
     33 H           3.3646   -1.4928    2.9935 H       1  UNL1        0.0640
     34 H           5.3772   -0.1094    2.6943 H       1  UNL1        0.0627
     35 H           6.3936    0.5534   -1.5026 H       1  UNL1        0.3633
     36 H           7.7055    2.1463    1.4637 H       1  UNL1        0.2884
     37 H           6.1108    2.1511    2.2792 H       1  UNL1        0.2884
     38 H           4.3291    0.4136   -1.3909 H       1  UNL1        0.0647
     39 H           1.9639   -0.9011   -2.0987 H       1  UNL1        0.1671
     40 H          -2.1004   -2.1230    1.0227 H       1  UNL1        0.1671
     41 H          -4.3509   -0.5793    1.6133 H       1  UNL1        0.0647
@<TRIPOS>BOND
     1     1     2    2
     2     2     3    1
     3     2     4    1
     4     4     5   ar
     5     5     6   ar
     6     6     7   ar
     7     7     8   ar
     8     8     9   ar
     9     9    10    1
    10    10    11    1
    11    11    12   ar
    12    12    13   ar
    13    13    14   ar
    14    14    15   ar
    15    15    16   ar
    16    16    17    1
    17    17    18    2
    18    17    19    1
    19    16    20   ar
    20    20    21   ar
    21    21    22   ar
    22     9    23   ar
    23    23    24   ar
    24    24    25   ar
    25    25     4   ar
    26    24     7   ar
    27    22    11   ar
    28    21    13   ar
    29     1    26    1
    30     3    27    1
    31     3    28    1
    32     5    29    1
    33     6    30    1
    34    10    31    1
    35    10    32    1
    36    14    33    1
    37    15    34    1
    38    18    35    1
    39    19    36    1
    40    19    37    1
    41    20    38    1
    42    22    39    1
    43    23    40    1
    44    25    41    1
