@<TRIPOS>MOLECULE
*****
 63 67 0 0 0
SMALL
GASTEIGER

@<TRIPOS>ATOM
      1 O           3.9167   -1.7198    2.2684 O.2     1  UNL1       -0.2465
      2 C           4.6978   -0.9213    1.6833 C.ar    1  UNL1        0.3278
      3 N           6.0398   -0.8274    1.9024 N.ar    1  UNL1       -0.3059
      4 C           6.5754    0.1073    1.1302 C.ar    1  UNL1        0.0670
      5 C           7.8567    0.5870    0.9652 C.ar    1  UNL1       -0.0362
      6 C           8.0632    1.5909    0.0502 C.ar    1  UNL1       -0.0597
      7 C           7.0423    2.1278   -0.6996 C.ar    1  UNL1       -0.0597
      8 C           5.7650    1.6416   -0.5272 C.ar    1  UNL1       -0.0360
      9 C           5.5372    0.6343    0.3861 C.ar    1  UNL1        0.0700
     10 N           4.3898   -0.0148    0.7439 N.ar    1  UNL1       -0.2891
     11 C           3.0867    0.2532    0.1871 C.3     1  UNL1        0.0417
     12 C           2.7402   -0.7204   -0.9278 C.3     1  UNL1       -0.0191
     13 C           1.5039   -0.1605   -1.6483 C.3     1  UNL1        0.0008
     14 N           0.5567    0.1670   -0.6524 N.3     1  UNL1       -0.3022
     15 C          -0.8219    0.2564   -1.0854 C.3     1  UNL1       -0.0011
     16 C          -1.3853   -1.0741   -1.4855 C.3     1  UNL1       -0.0394
     17 C          -2.7735   -0.9780   -1.9628 C.3     1  UNL1       -0.0410
     18 C          -3.8764   -0.5016   -1.1385 C.3     1  UNL1        0.0093
     19 C          -3.7821    0.8740   -0.5807 C.ar    1  UNL1       -0.0398
     20 C          -3.6082    1.9789   -1.3852 C.ar    1  UNL1       -0.0553
     21 C          -3.5548    3.2624   -0.8868 C.ar    1  UNL1       -0.0262
     22 C          -3.6799    3.4444    0.4637 C.ar    1  UNL1        0.1234
     23 F          -3.6257    4.7033    0.9390 F       1  UNL1       -0.2055
     24 C          -3.8538    2.3378    1.2659 C.ar    1  UNL1       -0.0262
     25 C          -3.9109    1.0501    0.7997 C.ar    1  UNL1       -0.0553
     26 C          -4.5587   -1.4288   -0.2297 C.ar    1  UNL1       -0.0398
     27 C          -5.8605   -1.1416    0.1502 C.ar    1  UNL1       -0.0553
     28 C          -6.5840   -1.9612    0.9887 C.ar    1  UNL1       -0.0262
     29 C          -6.0048   -3.1106    1.4739 C.ar    1  UNL1        0.1234
     30 F          -6.7217   -3.9302    2.3099 F       1  UNL1       -0.2055
     31 C          -4.7200   -3.3991    1.1019 C.ar    1  UNL1       -0.0262
     32 C          -3.9852   -2.5585    0.2449 C.ar    1  UNL1       -0.0553
     33 C           0.7640   -0.3563    0.6489 C.3     1  UNL1        0.0008
     34 C           1.9966    0.3532    1.2272 C.3     1  UNL1       -0.0191
     35 H           6.5882   -1.4072    2.5843 H       1  UNL1        0.1704
     36 H           8.6979    0.2072    1.5233 H       1  UNL1        0.0639
     37 H           9.0664    1.9974   -0.1090 H       1  UNL1        0.0618
     38 H           7.2093    2.9245   -1.4253 H       1  UNL1        0.0618
     39 H           4.9150    2.0160   -1.0819 H       1  UNL1        0.0639
     40 H           3.1116    1.2628   -0.3215 H       1  UNL1        0.0530
     41 H           2.5886   -1.7443   -0.5759 H       1  UNL1        0.0298
     42 H           3.5663   -0.6689   -1.6583 H       1  UNL1        0.0298
     43 H           1.2302   -0.9150   -2.3825 H       1  UNL1        0.0427
     44 H           1.8332    0.8005   -2.1334 H       1  UNL1        0.0427
     45 H          -1.3612    0.6780   -0.2263 H       1  UNL1        0.0426
     46 H          -0.8672    0.9903   -1.9103 H       1  UNL1        0.0426
     47 H          -0.7386   -1.4022   -2.3842 H       1  UNL1        0.0278
     48 H          -1.1526   -1.8662   -0.7509 H       1  UNL1        0.0278
     49 H          -3.0812   -2.0018   -2.3927 H       1  UNL1        0.0275
     50 H          -2.8027   -0.3559   -2.9348 H       1  UNL1        0.0275
     51 H          -4.7380   -0.3205   -1.9452 H       1  UNL1        0.0397
     52 H          -3.5057    1.8678   -2.4564 H       1  UNL1        0.0621
     53 H          -3.4166    4.0942   -1.5723 H       1  UNL1        0.0646
     54 H          -3.9470    2.5513    2.3416 H       1  UNL1        0.0646
     55 H          -4.0493    0.2027    1.4624 H       1  UNL1        0.0621
     56 H          -6.3651   -0.2430   -0.2065 H       1  UNL1        0.0621
     57 H          -7.5969   -1.7341    1.2823 H       1  UNL1        0.0646
     58 H          -4.2721   -4.2999    1.4848 H       1  UNL1        0.0646
     59 H          -2.9918   -2.9032    0.0269 H       1  UNL1        0.0621
     60 H           0.9957   -1.4350    0.6521 H       1  UNL1        0.0427
     61 H          -0.1194   -0.1860    1.2948 H       1  UNL1        0.0427
     62 H           2.2529   -0.0916    2.1918 H       1  UNL1        0.0298
     63 H           1.7253    1.4167    1.4420 H       1  UNL1        0.0298
@<TRIPOS>BOND
     1     1     2    2
     2     2     3   ar
     3     3     4   ar
     4     4     5   ar
     5     5     6   ar
     6     6     7   ar
     7     7     8   ar
     8     8     9   ar
     9     9    10   ar
    10    10    11    1
    11    11    12    1
    12    12    13    1
    13    13    14    1
    14    14    15    1
    15    15    16    1
    16    16    17    1
    17    17    18    1
    18    18    19    1
    19    19    20   ar
    20    20    21   ar
    21    21    22   ar
    22    22    23    1
    23    22    24   ar
    24    24    25   ar
    25    18    26    1
    26    26    27   ar
    27    27    28   ar
    28    28    29   ar
    29    29    30    1
    30    29    31   ar
    31    31    32   ar
    32    14    33    1
    33    33    34    1
    34    10     2   ar
    35    34    11    1
    36     9     4   ar
    37    25    19   ar
    38    32    26   ar
    39     3    35    1
    40     5    36    1
    41     6    37    1
    42     7    38    1
    43     8    39    1
    44    11    40    1
    45    12    41    1
    46    12    42    1
    47    13    43    1
    48    13    44    1
    49    15    45    1
    50    15    46    1
    51    16    47    1
    52    16    48    1
    53    17    49    1
    54    17    50    1
    55    18    51    1
    56    20    52    1
    57    21    53    1
    58    24    54    1
    59    25    55    1
    60    27    56    1
    61    28    57    1
    62    31    58    1
    63    32    59    1
    64    33    60    1
    65    33    61    1
    66    34    62    1
    67    34    63    1
