@<TRIPOS>MOLECULE
*****
 53 56 0 0 0
SMALL
GASTEIGER

@<TRIPOS>ATOM
      1 C           7.1656   -0.0149   -1.3815 C.3     1  UNL1        0.0790
      2 O           6.1106    0.8775   -1.6654 O.3     1  UNL1       -0.4899
      3 C           5.0199    0.9735   -0.8264 C.ar    1  UNL1        0.1814
      4 C           4.8549    0.2456    0.3246 C.ar    1  UNL1       -0.0129
      5 C           3.7166    0.4267    1.0868 C.ar    1  UNL1       -0.0351
      6 C           2.7213    1.3294    0.7251 C.ar    1  UNL1        0.0624
      7 C           1.5100    1.5320    1.5467 C.3     1  UNL1        0.0544
      8 N           0.4638    0.5934    1.2507 N.am    1  UNL1       -0.3057
      9 C          -0.3673    0.6457    0.1152 C.2     1  UNL1        0.2451
     10 O          -0.1648    1.5998   -0.7031 O.2     1  UNL1       -0.2702
     11 C          -1.4133   -0.3021   -0.1656 C.ar    1  UNL1        0.0498
     12 C          -2.5228   -0.4205    0.6899 C.ar    1  UNL1       -0.0229
     13 C          -3.5146   -1.3370    0.4239 C.ar    1  UNL1        0.0732
     14 C          -4.6967   -1.5161    1.2799 C.ar    1  UNL1        0.0187
     15 C          -5.6463   -2.4654    0.9422 C.ar    1  UNL1        0.0367
     16 N          -6.7473   -2.6942    1.6617 N.ar    1  UNL1       -0.2623
     17 C          -6.9625   -1.9733    2.7779 C.ar    1  UNL1        0.0305
     18 C          -6.0585   -1.0111    3.1743 C.ar    1  UNL1       -0.0317
     19 C          -6.3364   -0.2321    4.4246 C.3     1  UNL1       -0.0383
     20 C          -4.9183   -0.7824    2.4184 C.ar    1  UNL1       -0.0468
     21 N          -3.3771   -2.1051   -0.6794 N.ar    1  UNL1       -0.2542
     22 C          -2.3141   -2.0092   -1.5214 C.ar    1  UNL1        0.0387
     23 C          -1.3412   -1.1104   -1.2593 C.ar    1  UNL1        0.0373
     24 C          -0.1226   -0.9299   -2.1393 C.ar    1  UNL1        0.1104
     25 N           0.8248   -0.3204   -2.2604 N.ar    1  UNL1       -0.2473
     26 C           1.7643   -0.4004   -3.2062 C.ar    1  UNL1        0.0354
     27 C           1.5825   -1.3021   -4.1283 C.ar    1  UNL1       -0.0042
     28 S          -0.0109   -2.0825   -3.6295 S.2     1  UNL1       -0.0756
     29 N           2.9105    2.0247   -0.4031 N.ar    1  UNL1       -0.2132
     30 C           4.0119    1.8744   -1.1738 C.ar    1  UNL1        0.2579
     31 O           4.1492    2.6329   -2.3413 O.3     1  UNL1       -0.4772
     32 C           3.1527    3.5441   -2.7096 C.3     1  UNL1        0.0805
     33 H           7.3750    0.0341   -0.2982 H       1  UNL1        0.0660
     34 H           8.0881    0.3327   -1.9330 H       1  UNL1        0.0660
     35 H           6.8841   -1.0407   -1.7332 H       1  UNL1        0.0660
     36 H           5.6240   -0.4562    0.6062 H       1  UNL1        0.0656
     37 H           3.5851   -0.1438    1.9941 H       1  UNL1        0.0637
     38 H           1.7379    1.5090    2.6368 H       1  UNL1        0.0527
     39 H           1.1430    2.5781    1.3232 H       1  UNL1        0.0527
     40 H           0.2911   -0.2031    1.9286 H       1  UNL1        0.1494
     41 H          -2.5967    0.2131    1.5617 H       1  UNL1        0.0647
     42 H          -5.4619   -3.0379    0.0418 H       1  UNL1        0.0836
     43 H          -7.8511   -2.1236    3.4011 H       1  UNL1        0.0832
     44 H          -7.2952    0.2868    4.3307 H       1  UNL1        0.0278
     45 H          -6.4789   -1.0084    5.2281 H       1  UNL1        0.0278
     46 H          -5.4998    0.4390    4.6377 H       1  UNL1        0.0278
     47 H          -4.2258   -0.0291    2.7420 H       1  UNL1        0.0628
     48 H          -2.2359   -2.6447   -2.3994 H       1  UNL1        0.0837
     49 H           2.6432    0.2897   -3.1718 H       1  UNL1        0.0835
     50 H           2.1487   -1.6440   -5.0507 H       1  UNL1        0.0709
     51 H           3.6310    4.4223   -3.1945 H       1  UNL1        0.0660
     52 H           2.5076    3.0820   -3.4667 H       1  UNL1        0.0660
     53 H           2.5427    3.8543   -1.8328 H       1  UNL1        0.0660
@<TRIPOS>BOND
     1     1     2    1
     2     2     3    1
     3     3     4   ar
     4     4     5   ar
     5     5     6   ar
     6     6     7    1
     7     7     8    1
     8     8     9   am
     9     9    10    2
    10     9    11    1
    11    11    12   ar
    12    12    13   ar
    13    13    14    1
    14    14    15   ar
    15    15    16   ar
    16    16    17   ar
    17    17    18   ar
    18    18    19    1
    19    18    20   ar
    20    13    21   ar
    21    21    22   ar
    22    22    23   ar
    23    23    24    1
    24    24    25   ar
    25    25    26   ar
    26    26    27   ar
    27    27    28   ar
    28     6    29   ar
    29    29    30   ar
    30    30    31    1
    31    31    32    1
    32    30     3   ar
    33    23    11   ar
    34    28    24   ar
    35    20    14   ar
    36     1    33    1
    37     1    34    1
    38     1    35    1
    39     4    36    1
    40     5    37    1
    41     7    38    1
    42     7    39    1
    43     8    40    1
    44    12    41    1
    45    15    42    1
    46    17    43    1
    47    19    44    1
    48    19    45    1
    49    19    46    1
    50    20    47    1
    51    22    48    1
    52    26    49    1
    53    27    50    1
    54    32    51    1
    55    32    52    1
    56    32    53    1
