@<TRIPOS>MOLECULE
*****
 22 22 0 0 0
SMALL
GASTEIGER

@<TRIPOS>ATOM
      1 N           3.8076    0.0099   -0.0425 N.3     1  UNL1       -0.3297
      2 C           2.4387    0.4788    0.1764 C.3     1  UNL1       -0.0029
      3 C           1.5185   -0.6671   -0.1272 C.3     1  UNL1       -0.0152
      4 C           0.0981   -0.3599    0.0446 C.ar    1  UNL1       -0.0425
      5 C          -0.6311    0.1362   -1.0151 C.ar    1  UNL1       -0.0133
      6 C          -1.9705    0.4203   -0.8344 C.ar    1  UNL1        0.1585
      7 O          -2.7924    0.9247   -1.8432 O.3     1  UNL1       -0.5033
      8 C          -2.5946    0.2194    0.3800 C.ar    1  UNL1        0.1582
      9 O          -3.9363    0.4811    0.6387 O.3     1  UNL1       -0.5033
     10 C          -1.8916   -0.2809    1.4763 C.ar    1  UNL1       -0.0163
     11 C          -0.5370   -0.5555    1.2505 C.ar    1  UNL1       -0.0549
     12 H           3.9411   -0.9558    0.3298 H       1  UNL1        0.1182
     13 H           3.8625   -0.0955   -1.0958 H       1  UNL1        0.1182
     14 H           2.3831    0.7637    1.2501 H       1  UNL1        0.0425
     15 H           2.2711    1.3650   -0.4224 H       1  UNL1        0.0425
     16 H           1.6859   -0.9631   -1.1888 H       1  UNL1        0.0325
     17 H           1.7984   -1.5300    0.5077 H       1  UNL1        0.0325
     18 H          -0.2209    0.3197   -1.9878 H       1  UNL1        0.0658
     19 H          -2.3025    1.4181   -2.5860 H       1  UNL1        0.2923
     20 H          -4.6638    0.2719   -0.0161 H       1  UNL1        0.2923
     21 H          -2.3276   -0.4541    2.4361 H       1  UNL1        0.0655
     22 H           0.0632   -0.9469    2.0652 H       1  UNL1        0.0621
@<TRIPOS>BOND
     1     1     2    1
     2     2     3    1
     3     3     4    1
     4     4     5   ar
     5     5     6   ar
     6     6     7    1
     7     6     8   ar
     8     8     9    1
     9     8    10   ar
    10    10    11   ar
    11    11     4   ar
    12     1    12    1
    13     1    13    1
    14     2    14    1
    15     2    15    1
    16     3    16    1
    17     3    17    1
    18     5    18    1
    19     7    19    1
    20     9    20    1
    21    10    21    1
    22    11    22    1
