@<TRIPOS>MOLECULE
*****
 26 27 0 0 0
SMALL
GASTEIGER

@<TRIPOS>ATOM
      1 O           5.0363    0.0150    0.2091 O.3     1  UNL1       -0.4740
      2 C           4.1525   -1.0369    0.2552 C.2     1  UNL1        0.3926
      3 O           4.6226   -2.2063    0.3626 O.2     1  UNL1       -0.2399
      4 C           2.6997   -1.0143    0.1975 C.2     1  UNL1        0.3254
      5 O           2.3203   -2.2074    0.2738 O.2     1  UNL1       -0.2627
      6 N           1.8069    0.0757    0.0799 N.am    1  UNL1       -0.2753
      7 C           0.3980    0.0444    0.0279 C.ar    1  UNL1        0.0499
      8 C          -0.3398   -1.1122    0.0879 C.ar    1  UNL1       -0.0157
      9 C          -1.7173   -1.1470    0.0375 C.ar    1  UNL1        0.0483
     10 C          -2.3950    0.0487   -0.0801 C.ar    1  UNL1        0.0005
     11 C          -3.7560   -0.2203   -0.1119 C.ar    1  UNL1       -0.0366
     12 C          -3.8709   -1.5872   -0.0118 C.ar    1  UNL1        0.0027
     13 N          -2.6574   -2.1160    0.0754 N.ar    1  UNL1       -0.3606
     14 C          -1.6420    1.1914   -0.1384 C.ar    1  UNL1       -0.0368
     15 C          -0.2620    1.2355   -0.0886 C.ar    1  UNL1        0.0807
     16 C           0.3188    2.5639   -0.1706 C.2     1  UNL1        0.3386
     17 O          -0.4286    3.7196   -0.2843 O.3     1  UNL1       -0.4771
     18 O           1.5095    2.9539   -0.1604 O.2     1  UNL1       -0.2451
     19 H           5.9541   -0.0668   -0.2262 H       1  UNL1        0.2956
     20 H           2.4092    0.9024    0.0401 H       1  UNL1        0.1554
     21 H           0.0932   -2.0932    0.1797 H       1  UNL1        0.0657
     22 H          -4.5241    0.5187   -0.1981 H       1  UNL1        0.0638
     23 H          -4.8506   -2.0446   -0.0146 H       1  UNL1        0.0807
     24 H          -2.4438   -3.1333    0.1615 H       1  UNL1        0.1653
     25 H          -2.2280    2.1041   -0.2308 H       1  UNL1        0.0633
     26 H          -0.2055    4.6120    0.1343 H       1  UNL1        0.2954
@<TRIPOS>BOND
     1     1     2    1
     2     2     3    2
     3     2     4    1
     4     4     5    2
     5     4     6   am
     6     6     7    1
     7     7     8   ar
     8     8     9   ar
     9     9    10   ar
    10    10    11   ar
    11    11    12   ar
    12    12    13   ar
    13    10    14   ar
    14    14    15   ar
    15    15    16    1
    16    16    17    1
    17    16    18    2
    18    15     7   ar
    19    13     9   ar
    20     1    19    1
    21     6    20    1
    22     8    21    1
    23    11    22    1
    24    12    23    1
    25    13    24    1
    26    14    25    1
    27    17    26    1
