@<TRIPOS>MOLECULE
*****
 53 56 0 0 0
SMALL
GASTEIGER

@<TRIPOS>ATOM
      1 C           9.2569    3.7246    0.9748 C.2     1  UNL1       -0.2277
      2 N           8.3421    3.0083    0.8325 N.1     1  UNL1       -0.2653
      3 C           7.2662    2.1453    0.6731 C.ar    1  UNL1        0.3099
      4 C           5.9883    2.6511    0.5351 C.ar    1  UNL1        0.1143
      5 N           4.9125    1.8596    0.3736 N.ar    1  UNL1       -0.2438
      6 C           5.0541    0.5174    0.3408 C.ar    1  UNL1        0.1141
      7 C           3.8827   -0.2380    0.1656 C.ar    1  UNL1        0.1492
      8 N           2.6313    0.3999    0.0486 N.pl3   1  UNL1       -0.2977
      9 C           1.3946   -0.2364   -0.2019 C.ar    1  UNL1        0.0330
     10 C           1.3225   -1.4735   -0.7962 C.ar    1  UNL1       -0.0378
     11 C           0.0801   -2.0706   -1.0067 C.ar    1  UNL1       -0.0243
     12 C          -1.0826   -1.4467   -0.6312 C.ar    1  UNL1        0.1312
     13 F          -2.2858   -1.9991   -0.8547 F       1  UNL1       -0.2050
     14 C          -1.0488   -0.2046   -0.0303 C.ar    1  UNL1        0.0448
     15 C          -2.2403    0.5014    0.4457 C.3     1  UNL1        0.2263
     16 C          -1.7882    1.9521    0.7964 C.3     1  UNL1        0.1433
     17 F          -1.2701    2.6026   -0.2663 F       1  UNL1       -0.2438
     18 C          -2.9199   -0.0045    1.6258 C.3     1  UNL1        0.1211
     19 S          -4.3452   -1.0056    1.4429 S.O2    1  UNL1       -0.0100
     20 O          -4.0297   -2.4819    1.4606 O.2     1  UNL1       -0.1731
     21 O          -5.3062   -0.7016    2.5913 O.2     1  UNL1       -0.1731
     22 C          -5.1237   -0.6494   -0.0844 C.3     1  UNL1        0.1831
     23 C          -5.4838   -1.9116   -0.8517 C.3     1  UNL1       -0.0288
     24 C          -6.4139    0.1198    0.2053 C.3     1  UNL1       -0.0288
     25 C          -4.2720    0.2463   -0.8943 C.2     1  UNL1        0.3068
     26 N          -4.9061    0.6497   -2.1479 N.pl3   1  UNL1       -0.2488
     27 N          -3.1317    0.6868   -0.6595 N.2     1  UNL1       -0.0698
     28 C           0.1860    0.3609    0.1641 C.ar    1  UNL1       -0.0300
     29 N           4.0853   -1.5631    0.1379 N.ar    1  UNL1       -0.2351
     30 C           5.2807   -2.1532    0.2629 C.ar    1  UNL1        0.0656
     31 C           6.4272   -1.4083    0.4345 C.ar    1  UNL1        0.1509
     32 F           7.6643   -1.9335    0.5677 F       1  UNL1       -0.2032
     33 C           6.3006   -0.0371    0.4731 C.ar    1  UNL1        0.0477
     34 C           7.4125    0.7815    0.6402 C.ar    1  UNL1        0.0382
     35 H           5.9013    3.7355    0.5646 H       1  UNL1        0.0908
     36 H           2.6169    1.4583    0.1572 H       1  UNL1        0.1536
     37 H           2.2288   -2.0001   -1.1165 H       1  UNL1        0.0637
     38 H           0.0051   -3.0418   -1.4702 H       1  UNL1        0.0647
     39 H          -2.7227    2.5039    1.1231 H       1  UNL1        0.0666
     40 H          -1.1828    1.8906    1.7081 H       1  UNL1        0.0666
     41 H          -3.3020    0.9099    2.2001 H       1  UNL1        0.0551
     42 H          -2.2192   -0.4221    2.4147 H       1  UNL1        0.0551
     43 H          -5.1391   -1.8425   -1.8969 H       1  UNL1        0.0256
     44 H          -6.5826   -2.0487   -0.8199 H       1  UNL1        0.0256
     45 H          -5.0353   -2.7606   -0.3042 H       1  UNL1        0.0256
     46 H          -6.7014   -0.0483    1.2600 H       1  UNL1        0.0256
     47 H          -7.2291   -0.3073   -0.4141 H       1  UNL1        0.0256
     48 H          -6.3235    1.1907   -0.0384 H       1  UNL1        0.0256
     49 H          -5.1421    0.0044   -2.8967 H       1  UNL1        0.2881
     50 H          -5.1107    1.6602   -2.2415 H       1  UNL1        0.2881
     51 H           0.3432    1.3440    0.6307 H       1  UNL1        0.0641
     52 H           5.3679   -3.2496    0.2305 H       1  UNL1        0.0860
     53 H           8.3870    0.3348    0.7434 H       1  UNL1        0.0702
@<TRIPOS>UNITY_ATOM_ATTR
1 1
charge -1
2 1
charge 1
@<TRIPOS>BOND
     1     1     2    3
     2     2     3    1
     3     3     4   ar
     4     4     5   ar
     5     5     6   ar
     6     6     7   ar
     7     7     8    1
     8     8     9    1
     9     9    10   ar
    10    10    11   ar
    11    11    12   ar
    12    12    13    1
    13    12    14   ar
    14    14    15    1
    15    15    16    1
    16    16    17    1
    17    15    18    1
    18    18    19    1
    19    19    20    2
    20    19    21    2
    21    19    22    1
    22    22    23    1
    23    22    24    1
    24    22    25    1
    25    25    26    1
    26    25    27    2
    27    14    28   ar
    28     7    29   ar
    29    29    30   ar
    30    30    31   ar
    31    31    32    1
    32    31    33   ar
    33    33    34   ar
    34    34     3   ar
    35    33     6   ar
    36    28     9   ar
    37    27    15    1
    38     4    35    1
    39     8    36    1
    40    10    37    1
    41    11    38    1
    42    16    39    1
    43    16    40    1
    44    18    41    1
    45    18    42    1
    46    23    43    1
    47    23    44    1
    48    23    45    1
    49    24    46    1
    50    24    47    1
    51    24    48    1
    52    26    49    1
    53    26    50    1
    54    28    51    1
    55    30    52    1
    56    34    53    1
