
     RDKit          3D

 53 56  0  0  0  0  0  0  0  0999 V2000
    9.2569    3.7246    0.9748 C   0  0  0  0  0  3  0  0  0  0  0  0
    8.3421    3.0083    0.8325 N   0  0  0  0  0  4  0  0  0  0  0  0
    7.2662    2.1453    0.6731 C   0  0  0  0  0  0  0  0  0  0  0  0
    5.9883    2.6511    0.5351 C   0  0  0  0  0  0  0  0  0  0  0  0
    4.9125    1.8596    0.3736 N   0  0  0  0  0  0  0  0  0  0  0  0
    5.0541    0.5174    0.3408 C   0  0  0  0  0  0  0  0  0  0  0  0
    3.8827   -0.2380    0.1656 C   0  0  0  0  0  0  0  0  0  0  0  0
    2.6313    0.3999    0.0486 N   0  0  0  0  0  0  0  0  0  0  0  0
    1.3946   -0.2364   -0.2019 C   0  0  0  0  0  0  0  0  0  0  0  0
    1.3225   -1.4735   -0.7962 C   0  0  0  0  0  0  0  0  0  0  0  0
    0.0801   -2.0706   -1.0067 C   0  0  0  0  0  0  0  0  0  0  0  0
   -1.0826   -1.4467   -0.6312 C   0  0  0  0  0  0  0  0  0  0  0  0
   -2.2858   -1.9991   -0.8547 F   0  0  0  0  0  0  0  0  0  0  0  0
   -1.0488   -0.2046   -0.0303 C   0  0  0  0  0  0  0  0  0  0  0  0
   -2.2403    0.5014    0.4457 C   0  0  2  0  0  0  0  0  0  0  0  0
   -1.7882    1.9521    0.7964 C   0  0  0  0  0  0  0  0  0  0  0  0
   -1.2701    2.6026   -0.2663 F   0  0  0  0  0  0  0  0  0  0  0  0
   -2.9199   -0.0045    1.6258 C   0  0  0  0  0  0  0  0  0  0  0  0
   -4.3452   -1.0056    1.4429 S   0  0  0  0  0  6  0  0  0  0  0  0
   -4.0297   -2.4819    1.4606 O   0  0  0  0  0  0  0  0  0  0  0  0
   -5.3062   -0.7016    2.5913 O   0  0  0  0  0  0  0  0  0  0  0  0
   -5.1237   -0.6494   -0.0844 C   0  0  0  0  0  0  0  0  0  0  0  0
   -5.4838   -1.9116   -0.8517 C   0  0  0  0  0  0  0  0  0  0  0  0
   -6.4139    0.1198    0.2053 C   0  0  0  0  0  0  0  0  0  0  0  0
   -4.2720    0.2463   -0.8943 C   0  0  0  0  0  0  0  0  0  0  0  0
   -4.9061    0.6497   -2.1479 N   0  0  0  0  0  0  0  0  0  0  0  0
   -3.1317    0.6868   -0.6595 N   0  0  0  0  0  0  0  0  0  0  0  0
    0.1860    0.3609    0.1641 C   0  0  0  0  0  0  0  0  0  0  0  0
    4.0853   -1.5631    0.1379 N   0  0  0  0  0  0  0  0  0  0  0  0
    5.2807   -2.1532    0.2629 C   0  0  0  0  0  0  0  0  0  0  0  0
    6.4272   -1.4083    0.4345 C   0  0  0  0  0  0  0  0  0  0  0  0
    7.6643   -1.9335    0.5677 F   0  0  0  0  0  0  0  0  0  0  0  0
    6.3006   -0.0371    0.4731 C   0  0  0  0  0  0  0  0  0  0  0  0
    7.4125    0.7815    0.6402 C   0  0  0  0  0  0  0  0  0  0  0  0
    5.9013    3.7355    0.5646 H   0  0  0  0  0  0  0  0  0  0  0  0
    2.6169    1.4583    0.1572 H   0  0  0  0  0  0  0  0  0  0  0  0
    2.2288   -2.0001   -1.1165 H   0  0  0  0  0  0  0  0  0  0  0  0
    0.0051   -3.0418   -1.4702 H   0  0  0  0  0  0  0  0  0  0  0  0
   -2.7227    2.5039    1.1231 H   0  0  0  0  0  0  0  0  0  0  0  0
   -1.1828    1.8906    1.7081 H   0  0  0  0  0  0  0  0  0  0  0  0
   -3.3020    0.9099    2.2001 H   0  0  0  0  0  0  0  0  0  0  0  0
   -2.2192   -0.4221    2.4147 H   0  0  0  0  0  0  0  0  0  0  0  0
   -5.1391   -1.8425   -1.8969 H   0  0  0  0  0  0  0  0  0  0  0  0
   -6.5826   -2.0487   -0.8199 H   0  0  0  0  0  0  0  0  0  0  0  0
   -5.0353   -2.7606   -0.3042 H   0  0  0  0  0  0  0  0  0  0  0  0
   -6.7014   -0.0483    1.2600 H   0  0  0  0  0  0  0  0  0  0  0  0
   -7.2291   -0.3073   -0.4141 H   0  0  0  0  0  0  0  0  0  0  0  0
   -6.3235    1.1907   -0.0384 H   0  0  0  0  0  0  0  0  0  0  0  0
   -5.1421    0.0044   -2.8967 H   0  0  0  0  0  0  0  0  0  0  0  0
   -5.1107    1.6602   -2.2415 H   0  0  0  0  0  0  0  0  0  0  0  0
    0.3432    1.3440    0.6307 H   0  0  0  0  0  0  0  0  0  0  0  0
    5.3679   -3.2496    0.2305 H   0  0  0  0  0  0  0  0  0  0  0  0
    8.3870    0.3348    0.7434 H   0  0  0  0  0  0  0  0  0  0  0  0
  1  2  3  0
  2  3  1  0
  3  4  2  0
  4  5  1  0
  5  6  2  0
  6  7  1  0
  7  8  1  0
  8  9  1  0
  9 10  2  0
 10 11  1  0
 11 12  2  0
 12 13  1  0
 12 14  1  0
 14 15  1  0
 15 16  1  1
 16 17  1  0
 15 18  1  0
 18 19  1  0
 19 20  2  0
 19 21  2  0
 19 22  1  0
 22 23  1  0
 22 24  1  0
 22 25  1  0
 25 26  1  0
 25 27  2  0
 14 28  2  0
  7 29  2  0
 29 30  1  0
 30 31  2  0
 31 32  1  0
 31 33  1  0
 33 34  2  0
 34  3  1  0
 33  6  1  0
 28  9  1  0
 27 15  1  0
  4 35  1  0
  8 36  1  0
 10 37  1  0
 11 38  1  0
 16 39  1  0
 16 40  1  0
 18 41  1  0
 18 42  1  0
 23 43  1  0
 23 44  1  0
 23 45  1  0
 24 46  1  0
 24 47  1  0
 24 48  1  0
 26 49  1  0
 26 50  1  0
 28 51  1  0
 30 52  1  0
 34 53  1  0
M  CHG  2   1  -1   2   1
M  END
$$$$
