@<TRIPOS>MOLECULE
*****
 80 83 0 0 0
SMALL
GASTEIGER

@<TRIPOS>ATOM
      1 C         -10.3094    1.8107    0.1056 C.3     1  UNL1       -0.0117
      2 N          -9.5514    0.6436    0.3743 N.3     1  UNL1       -0.2949
      3 C          -8.8336    0.6377    1.6048 C.3     1  UNL1        0.0199
      4 C          -9.2350   -0.5935    2.3896 C.3     1  UNL1       -0.0467
      5 C          -9.2467    1.8449    2.4303 C.3     1  UNL1       -0.0467
      6 C          -7.3491    0.6773    1.4695 C.3     1  UNL1        0.0023
      7 C          -6.7641   -0.3396    0.5263 C.3     1  UNL1        0.1036
      8 O          -5.6726    0.1832   -0.1810 O.3     1  UNL1       -0.4872
      9 C          -4.3703   -0.2404   -0.1431 C.ar    1  UNL1        0.1390
     10 C          -3.8673   -1.2747    0.6066 C.ar    1  UNL1       -0.0162
     11 C          -2.5058   -1.5887    0.5374 C.ar    1  UNL1       -0.0277
     12 C          -1.6533   -0.8748   -0.2747 C.ar    1  UNL1        0.1259
     13 C          -0.2418   -1.2303   -0.3228 C.2     1  UNL1        0.2666
     14 O           0.1992   -2.1802    0.3741 O.2     1  UNL1       -0.2682
     15 N           0.6885   -0.5289   -1.1490 N.am    1  UNL1       -0.2802
     16 C           2.0694   -0.8605   -1.2100 C.ar    1  UNL1        0.0338
     17 C           2.5768   -1.7724   -2.1057 C.ar    1  UNL1       -0.0387
     18 C           3.9100   -2.0888   -2.1616 C.ar    1  UNL1       -0.0387
     19 C           4.8532   -1.4987   -1.3022 C.ar    1  UNL1        0.0349
     20 N           6.2111   -1.8630   -1.4055 N.am    1  UNL1       -0.2692
     21 C           7.2634   -1.3738   -0.6411 C.2     1  UNL1        0.3093
     22 O           7.0915   -0.5243    0.2509 O.2     1  UNL1       -0.2521
     23 N           8.6305   -1.8270   -0.8393 N.am    1  UNL1       -0.2512
     24 C           9.6854   -1.3097   -0.0449 C.ar    1  UNL1        0.1691
     25 C          10.4377   -0.1777   -0.3775 C.ar    1  UNL1        0.0230
     26 C          11.3682    0.0190    0.6297 C.ar    1  UNL1        0.1445
     27 C          12.3407    1.1240    0.6221 C.3     1  UNL1        0.0230
     28 C          13.5897    0.6537   -0.0844 C.3     1  UNL1       -0.0531
     29 C          11.7332    2.3092   -0.1039 C.3     1  UNL1       -0.0531
     30 C          12.6565    1.5806    2.0395 C.3     1  UNL1       -0.0531
     31 O          11.1753   -0.9367    1.4995 O.2     1  UNL1       -0.3573
     32 N          10.1957   -1.7212    1.1198 N.ar    1  UNL1       -0.0627
     33 C           4.3384   -0.5939   -0.4161 C.ar    1  UNL1       -0.0387
     34 C           2.9698   -0.2704   -0.3600 C.ar    1  UNL1       -0.0387
     35 N          -2.1594    0.1225   -0.9925 N.ar    1  UNL1       -0.2467
     36 C          -3.4650    0.4516   -0.9497 C.ar    1  UNL1        0.0701
     37 C          -7.8180   -0.9155   -0.3915 C.3     1  UNL1        0.0023
     38 C          -8.8381    0.1124   -0.7460 C.3     1  UNL1        0.0199
     39 C          -8.1762    1.2395   -1.5211 C.3     1  UNL1       -0.0467
     40 C          -9.8459   -0.5266   -1.6884 C.3     1  UNL1       -0.0467
     41 H          -9.8818    2.7413    0.5308 H       1  UNL1        0.0391
     42 H         -10.3433    1.9716   -1.0054 H       1  UNL1        0.0391
     43 H         -11.3602    1.6435    0.4129 H       1  UNL1        0.0391
     44 H          -9.9404   -0.3364    3.2060 H       1  UNL1        0.0247
     45 H          -8.3552   -1.0808    2.8606 H       1  UNL1        0.0247
     46 H          -9.7894   -1.3122    1.7355 H       1  UNL1        0.0247
     47 H          -8.6598    2.7426    2.1633 H       1  UNL1        0.0247
     48 H         -10.3274    1.9995    2.4397 H       1  UNL1        0.0247
     49 H          -8.9507    1.6015    3.4856 H       1  UNL1        0.0247
     50 H          -6.9139    0.5520    2.4884 H       1  UNL1        0.0319
     51 H          -6.9865    1.6808    1.1247 H       1  UNL1        0.0319
     52 H          -6.4009   -1.1853    1.1432 H       1  UNL1        0.0734
     53 H          -4.5092   -1.8388    1.2406 H       1  UNL1        0.0655
     54 H          -2.1734   -2.4086    1.1481 H       1  UNL1        0.0641
     55 H           0.2799    0.2571   -1.7149 H       1  UNL1        0.1552
     56 H           1.8872   -2.2471   -2.7820 H       1  UNL1        0.0637
     57 H           4.2969   -2.8126   -2.8758 H       1  UNL1        0.0637
     58 H           6.4830   -2.5893   -2.1412 H       1  UNL1        0.1564
     59 H           8.8188   -2.5253   -1.5622 H       1  UNL1        0.1579
     60 H          10.2785    0.4056   -1.2771 H       1  UNL1        0.0688
     61 H          13.5374    0.8421   -1.1766 H       1  UNL1        0.0239
     62 H          14.4662    1.1660    0.3820 H       1  UNL1        0.0239
     63 H          13.7595   -0.4367    0.0429 H       1  UNL1        0.0239
     64 H          11.4751    2.0536   -1.1556 H       1  UNL1        0.0239
     65 H          10.7797    2.5694    0.4202 H       1  UNL1        0.0239
     66 H          12.4336    3.1426   -0.0424 H       1  UNL1        0.0239
     67 H          12.6001    0.7471    2.7474 H       1  UNL1        0.0239
     68 H          13.6593    2.0525    1.9925 H       1  UNL1        0.0239
     69 H          11.8901    2.3190    2.3129 H       1  UNL1        0.0239
     70 H           4.9897   -0.0872    0.2872 H       1  UNL1        0.0637
     71 H           2.6360    0.4447    0.3565 H       1  UNL1        0.0637
     72 H          -3.7949    1.2651   -1.5555 H       1  UNL1        0.0867
     73 H          -8.2189   -1.8495   -0.0041 H       1  UNL1        0.0319
     74 H          -7.2753   -1.1760   -1.3467 H       1  UNL1        0.0319
     75 H          -8.7319    1.4779   -2.4599 H       1  UNL1        0.0247
     76 H          -7.1677    0.9114   -1.8356 H       1  UNL1        0.0247
     77 H          -8.1594    2.1811   -0.9315 H       1  UNL1        0.0247
     78 H          -9.7753   -1.6206   -1.7134 H       1  UNL1        0.0247
     79 H         -10.8915   -0.2813   -1.3814 H       1  UNL1        0.0247
     80 H          -9.7454   -0.1522   -2.7275 H       1  UNL1        0.0247
@<TRIPOS>BOND
     1     1     2    1
     2     2     3    1
     3     3     4    1
     4     3     5    1
     5     3     6    1
     6     6     7    1
     7     7     8    1
     8     8     9    1
     9     9    10   ar
    10    10    11   ar
    11    11    12   ar
    12    12    13    1
    13    13    14    2
    14    13    15   am
    15    15    16    1
    16    16    17   ar
    17    17    18   ar
    18    18    19   ar
    19    19    20    1
    20    20    21   am
    21    21    22    2
    22    21    23   am
    23    23    24    1
    24    24    25   ar
    25    25    26   ar
    26    26    27    1
    27    27    28    1
    28    27    29    1
    29    27    30    1
    30    26    31   ar
    31    31    32   ar
    32    19    33   ar
    33    33    34   ar
    34    12    35   ar
    35    35    36   ar
    36     7    37    1
    37    37    38    1
    38    38    39    1
    39    38    40    1
    40    38     2    1
    41    36     9   ar
    42    34    16   ar
    43    32    24   ar
    44     1    41    1
    45     1    42    1
    46     1    43    1
    47     4    44    1
    48     4    45    1
    49     4    46    1
    50     5    47    1
    51     5    48    1
    52     5    49    1
    53     6    50    1
    54     6    51    1
    55     7    52    1
    56    10    53    1
    57    11    54    1
    58    15    55    1
    59    17    56    1
    60    18    57    1
    61    20    58    1
    62    23    59    1
    63    25    60    1
    64    28    61    1
    65    28    62    1
    66    28    63    1
    67    29    64    1
    68    29    65    1
    69    29    66    1
    70    30    67    1
    71    30    68    1
    72    30    69    1
    73    33    70    1
    74    34    71    1
    75    36    72    1
    76    37    73    1
    77    37    74    1
    78    39    75    1
    79    39    76    1
    80    39    77    1
    81    40    78    1
    82    40    79    1
    83    40    80    1
