
     RDKit          3D

 56 58  0  0  0  0  0  0  0  0999 V2000
    8.6303    1.2015    2.2256 C   0  0  0  0  0  0  0  0  0  0  0  0
    7.4370    1.9173    2.3454 O   0  0  0  0  0  0  0  0  0  0  0  0
    6.2252    1.5009    1.8046 C   0  0  0  0  0  0  0  0  0  0  0  0
    5.1062    2.2647    1.9705 C   0  0  0  0  0  0  0  0  0  0  0  0
    3.9392    1.8674    1.4516 N   0  0  0  0  0  0  0  0  0  0  0  0
    3.7958    0.7021    0.7409 C   0  0  0  0  0  0  0  0  0  0  0  0
    2.4800    0.3754    0.2368 C   0  0  0  0  0  0  0  0  0  0  0  0
    1.5068    1.1569    0.5512 O   0  0  0  0  0  0  0  0  0  0  0  0
    2.1864   -0.7220   -0.5649 N   0  0  0  0  0  0  0  0  0  0  0  0
    0.9147   -1.1051   -1.0955 C   0  0  0  0  0  0  0  0  0  0  0  0
    0.8775   -2.2742   -1.8711 C   0  0  0  0  0  0  0  0  0  0  0  0
   -0.3167   -2.6863   -2.4049 C   0  0  0  0  0  0  0  0  0  0  0  0
   -1.4411   -1.9591   -2.1752 C   0  0  0  0  0  0  0  0  0  0  0  0
   -2.6103   -2.3832   -2.6924 F   0  0  0  0  0  0  0  0  0  0  0  0
   -1.4698   -0.7855   -1.4116 C   0  0  0  0  0  0  0  0  0  0  0  0
   -2.7320   -0.0347   -1.2440 C   0  0  2  0  0  0  0  0  0  0  0  0
   -3.1817    0.4324   -2.6034 C   0  0  0  0  0  0  0  0  0  0  0  0
   -4.3727    1.1539   -2.5577 F   0  0  0  0  0  0  0  0  0  0  0  0
   -2.4687    1.1593   -0.3506 C   0  0  0  0  0  0  0  0  0  0  0  0
   -3.9968    1.8577    0.2177 S   0  0  0  0  0  6  0  0  0  0  0  0
   -3.7340    2.5672    1.5426 O   0  0  0  0  0  0  0  0  0  0  0  0
   -4.5138    2.9346   -0.7202 O   0  0  0  0  0  0  0  0  0  0  0  0
   -5.1791    0.6200    0.4449 C   0  0  0  0  0  0  0  0  0  0  0  0
   -6.5090    0.9774   -0.2075 C   0  0  0  0  0  0  0  0  0  0  0  0
   -5.4830    0.4998    1.9351 C   0  0  0  0  0  0  0  0  0  0  0  0
   -4.7136   -0.7121    0.0270 C   0  0  0  0  0  0  0  0  0  0  0  0
   -5.4995   -1.8871    0.4592 N   0  0  0  0  0  0  0  0  0  0  0  0
   -3.6993   -0.8964   -0.6664 N   0  0  0  0  0  0  0  0  0  0  0  0
   -0.2376   -0.3883   -0.8797 C   0  0  0  0  0  0  0  0  0  0  0  0
    4.9140   -0.0384    0.5887 C   0  0  0  0  0  0  0  0  0  0  0  0
    4.9058   -1.2367   -0.1061 O   0  0  0  0  0  0  0  0  0  0  0  0
    6.0309   -2.0496   -0.2983 C   0  0  0  0  0  0  0  0  0  0  0  0
    6.1204    0.3612    1.1184 N   0  0  0  0  0  0  0  0  0  0  0  0
    9.5153    1.8619    2.1077 H   0  0  0  0  0  0  0  0  0  0  0  0
    8.6455    0.4750    1.4131 H   0  0  0  0  0  0  0  0  0  0  0  0
    8.7928    0.6482    3.1816 H   0  0  0  0  0  0  0  0  0  0  0  0
    5.2032    3.1906    2.5310 H   0  0  0  0  0  0  0  0  0  0  0  0
    2.9983   -1.3659   -0.8328 H   0  0  0  0  0  0  0  0  0  0  0  0
    1.7755   -2.8413   -2.0451 H   0  0  0  0  0  0  0  0  0  0  0  0
   -0.3381   -3.5979   -3.0082 H   0  0  0  0  0  0  0  0  0  0  0  0
   -3.2214   -0.3503   -3.3730 H   0  0  0  0  0  0  0  0  0  0  0  0
   -2.4119    1.1979   -2.9415 H   0  0  0  0  0  0  0  0  0  0  0  0
   -1.8813    0.8877    0.5460 H   0  0  0  0  0  0  0  0  0  0  0  0
   -1.9299    1.9107   -0.9230 H   0  0  0  0  0  0  0  0  0  0  0  0
   -6.6212    0.5329   -1.2147 H   0  0  0  0  0  0  0  0  0  0  0  0
   -6.5996    2.0799   -0.2003 H   0  0  0  0  0  0  0  0  0  0  0  0
   -7.3351    0.5781    0.4143 H   0  0  0  0  0  0  0  0  0  0  0  0
   -6.3328   -0.2100    2.0192 H   0  0  0  0  0  0  0  0  0  0  0  0
   -5.8012    1.4614    2.3673 H   0  0  0  0  0  0  0  0  0  0  0  0
   -4.6324    0.0854    2.4950 H   0  0  0  0  0  0  0  0  0  0  0  0
   -6.3272   -2.1818   -0.0841 H   0  0  0  0  0  0  0  0  0  0  0  0
   -5.1259   -2.3332    1.3174 H   0  0  0  0  0  0  0  0  0  0  0  0
   -0.2572    0.5207   -0.3077 H   0  0  0  0  0  0  0  0  0  0  0  0
    6.9048   -1.7585    0.3210 H   0  0  0  0  0  0  0  0  0  0  0  0
    6.3227   -2.1056   -1.3841 H   0  0  0  0  0  0  0  0  0  0  0  0
    5.7457   -3.0771    0.0508 H   0  0  0  0  0  0  0  0  0  0  0  0
  1  2  1  0
  2  3  1  0
  3  4  2  0
  4  5  1  0
  5  6  2  0
  6  7  1  0
  7  8  2  0
  7  9  1  0
  9 10  1  0
 10 11  2  0
 11 12  1  0
 12 13  2  0
 13 14  1  0
 13 15  1  0
 15 16  1  0
 16 17  1  6
 17 18  1  0
 16 19  1  0
 19 20  1  0
 20 21  2  0
 20 22  2  0
 20 23  1  0
 23 24  1  0
 23 25  1  0
 23 26  1  0
 26 27  1  0
 26 28  2  0
 15 29  2  0
  6 30  1  0
 30 31  1  0
 31 32  1  0
 30 33  2  0
 33  3  1  0
 29 10  1  0
 28 16  1  0
  1 34  1  0
  1 35  1  0
  1 36  1  0
  4 37  1  0
  9 38  1  0
 11 39  1  0
 12 40  1  0
 17 41  1  0
 17 42  1  0
 19 43  1  0
 19 44  1  0
 24 45  1  0
 24 46  1  0
 24 47  1  0
 25 48  1  0
 25 49  1  0
 25 50  1  0
 27 51  1  0
 27 52  1  0
 29 53  1  0
 32 54  1  0
 32 55  1  0
 32 56  1  0
M  END
$$$$
