@<TRIPOS>MOLECULE
*****
 56 58 0 0 0
SMALL
GASTEIGER

@<TRIPOS>ATOM
      1 C           8.6303    1.2015    2.2256 C.3     1  UNL1        0.0805
      2 O           7.4370    1.9173    2.3454 O.3     1  UNL1       -0.4786
      3 C           6.2252    1.5009    1.8046 C.ar    1  UNL1        0.2363
      4 C           5.1062    2.2647    1.9705 C.ar    1  UNL1        0.0902
      5 N           3.9392    1.8674    1.4516 N.ar    1  UNL1       -0.2401
      6 C           3.7958    0.7021    0.7409 C.ar    1  UNL1        0.1874
      7 C           2.4800    0.3754    0.2368 C.2     1  UNL1        0.2719
      8 O           1.5068    1.1569    0.5512 O.2     1  UNL1       -0.2680
      9 N           2.1864   -0.7220   -0.5649 N.am    1  UNL1       -0.2801
     10 C           0.9147   -1.1051   -1.0955 C.ar    1  UNL1        0.0343
     11 C           0.8775   -2.2742   -1.8711 C.ar    1  UNL1       -0.0377
     12 C          -0.3167   -2.6863   -2.4049 C.ar    1  UNL1       -0.0243
     13 C          -1.4411   -1.9591   -2.1752 C.ar    1  UNL1        0.1312
     14 F          -2.6103   -2.3832   -2.6924 F       1  UNL1       -0.2050
     15 C          -1.4698   -0.7855   -1.4116 C.ar    1  UNL1        0.0448
     16 C          -2.7320   -0.0347   -1.2440 C.3     1  UNL1        0.2263
     17 C          -3.1817    0.4324   -2.6034 C.3     1  UNL1        0.1433
     18 F          -4.3727    1.1539   -2.5577 F       1  UNL1       -0.2438
     19 C          -2.4687    1.1593   -0.3506 C.3     1  UNL1        0.1211
     20 S          -3.9968    1.8577    0.2177 S.O2    1  UNL1       -0.0100
     21 O          -3.7340    2.5672    1.5426 O.2     1  UNL1       -0.1731
     22 O          -4.5138    2.9346   -0.7202 O.2     1  UNL1       -0.1731
     23 C          -5.1791    0.6200    0.4449 C.3     1  UNL1        0.1831
     24 C          -6.5090    0.9774   -0.2075 C.3     1  UNL1       -0.0288
     25 C          -5.4830    0.4998    1.9351 C.3     1  UNL1       -0.0288
     26 C          -4.7136   -0.7121    0.0270 C.2     1  UNL1        0.3068
     27 N          -5.4995   -1.8871    0.4592 N.pl3   1  UNL1       -0.2488
     28 N          -3.6993   -0.8964   -0.6664 N.2     1  UNL1       -0.0698
     29 C          -0.2376   -0.3883   -0.8797 C.ar    1  UNL1       -0.0300
     30 C           4.9140   -0.0384    0.5887 C.ar    1  UNL1        0.2491
     31 O           4.9058   -1.2367   -0.1061 O.3     1  UNL1       -0.4780
     32 C           6.0309   -2.0496   -0.2983 C.3     1  UNL1        0.0805
     33 N           6.1204    0.3612    1.1184 N.ar    1  UNL1       -0.1746
     34 H           9.5153    1.8619    2.1077 H       1  UNL1        0.0660
     35 H           8.6455    0.4750    1.4131 H       1  UNL1        0.0660
     36 H           8.7928    0.6482    3.1816 H       1  UNL1        0.0660
     37 H           5.2032    3.1906    2.5310 H       1  UNL1        0.0884
     38 H           2.9983   -1.3659   -0.8328 H       1  UNL1        0.1552
     39 H           1.7755   -2.8413   -2.0451 H       1  UNL1        0.0637
     40 H          -0.3381   -3.5979   -3.0082 H       1  UNL1        0.0647
     41 H          -3.2214   -0.3503   -3.3730 H       1  UNL1        0.0666
     42 H          -2.4119    1.1979   -2.9415 H       1  UNL1        0.0666
     43 H          -1.8813    0.8877    0.5460 H       1  UNL1        0.0551
     44 H          -1.9299    1.9107   -0.9230 H       1  UNL1        0.0551
     45 H          -6.6212    0.5329   -1.2147 H       1  UNL1        0.0256
     46 H          -6.5996    2.0799   -0.2003 H       1  UNL1        0.0256
     47 H          -7.3351    0.5781    0.4143 H       1  UNL1        0.0256
     48 H          -6.3328   -0.2100    2.0192 H       1  UNL1        0.0256
     49 H          -5.8012    1.4614    2.3673 H       1  UNL1        0.0256
     50 H          -4.6324    0.0854    2.4950 H       1  UNL1        0.0256
     51 H          -6.3272   -2.1818   -0.0841 H       1  UNL1        0.2881
     52 H          -5.1259   -2.3332    1.3174 H       1  UNL1        0.2881
     53 H          -0.2572    0.5207   -0.3077 H       1  UNL1        0.0641
     54 H           6.9048   -1.7585    0.3210 H       1  UNL1        0.0660
     55 H           6.3227   -2.1056   -1.3841 H       1  UNL1        0.0660
     56 H           5.7457   -3.0771    0.0508 H       1  UNL1        0.0660
@<TRIPOS>BOND
     1     1     2    1
     2     2     3    1
     3     3     4   ar
     4     4     5   ar
     5     5     6   ar
     6     6     7    1
     7     7     8    2
     8     7     9   am
     9     9    10    1
    10    10    11   ar
    11    11    12   ar
    12    12    13   ar
    13    13    14    1
    14    13    15   ar
    15    15    16    1
    16    16    17    1
    17    17    18    1
    18    16    19    1
    19    19    20    1
    20    20    21    2
    21    20    22    2
    22    20    23    1
    23    23    24    1
    24    23    25    1
    25    23    26    1
    26    26    27    1
    27    26    28    2
    28    15    29   ar
    29     6    30   ar
    30    30    31    1
    31    31    32    1
    32    30    33   ar
    33    33     3   ar
    34    29    10   ar
    35    28    16    1
    36     1    34    1
    37     1    35    1
    38     1    36    1
    39     4    37    1
    40     9    38    1
    41    11    39    1
    42    12    40    1
    43    17    41    1
    44    17    42    1
    45    19    43    1
    46    19    44    1
    47    24    45    1
    48    24    46    1
    49    24    47    1
    50    25    48    1
    51    25    49    1
    52    25    50    1
    53    27    51    1
    54    27    52    1
    55    29    53    1
    56    32    54    1
    57    32    55    1
    58    32    56    1
