@<TRIPOS>MOLECULE
*****
 30 32 0 0 0
SMALL
GASTEIGER

@<TRIPOS>ATOM
      1 O           1.8077   -2.8081    1.2863 O.2     1  UNL1       -0.2870
      2 C           1.4969   -1.6890    0.7821 C.ar    1  UNL1        0.1944
      3 C           0.1819   -1.3077    0.6805 C.ar    1  UNL1        0.0434
      4 C          -0.1936   -0.0765    0.1269 C.ar    1  UNL1        0.1931
      5 N          -1.5578    0.2688    0.0471 N.pl3   1  UNL1       -0.2969
      6 C          -2.1403    1.3630    0.7929 C.3     1  UNL1        0.0383
      7 C          -3.6160    1.5040    0.5107 C.3     1  UNL1        0.0635
      8 O          -4.3128    0.3187    0.6324 O.3     1  UNL1       -0.3767
      9 C          -3.6648   -0.7918    0.1314 C.3     1  UNL1        0.0635
     10 C          -2.5094   -0.4726   -0.7891 C.3     1  UNL1        0.0383
     11 O           0.7863    0.6869   -0.2865 O.2     1  UNL1       -0.4411
     12 C           2.0512    0.3635   -0.2074 C.ar    1  UNL1        0.1408
     13 C           3.0422    1.2351   -0.6698 C.ar    1  UNL1       -0.0186
     14 C           4.3619    0.8905   -0.5852 C.ar    1  UNL1       -0.0582
     15 C           4.7487   -0.3141   -0.0462 C.ar    1  UNL1       -0.0609
     16 C           3.8040   -1.2049    0.4231 C.ar    1  UNL1       -0.0474
     17 C           2.4786   -0.8368    0.3277 C.ar    1  UNL1        0.0641
     18 H          -0.6157   -1.9485    1.0261 H       1  UNL1        0.0707
     19 H          -1.6579    2.3046    0.3984 H       1  UNL1        0.0487
     20 H          -1.9073    1.3193    1.8593 H       1  UNL1        0.0487
     21 H          -4.0228    2.2039    1.2681 H       1  UNL1        0.0575
     22 H          -3.7795    1.9727   -0.4833 H       1  UNL1        0.0575
     23 H          -4.3862   -1.4355   -0.3917 H       1  UNL1        0.0575
     24 H          -3.2476   -1.3510    1.0003 H       1  UNL1        0.0575
     25 H          -2.0753   -1.4589   -1.0855 H       1  UNL1        0.0487
     26 H          -2.7930    0.1626   -1.6288 H       1  UNL1        0.0487
     27 H           2.6922    2.1745   -1.0904 H       1  UNL1        0.0654
     28 H           5.0784    1.6179   -0.9666 H       1  UNL1        0.0619
     29 H           5.8231   -0.5482    0.0053 H       1  UNL1        0.0618
     30 H           4.1268   -2.1426    0.8432 H       1  UNL1        0.0626
@<TRIPOS>BOND
     1     1     2    2
     2     2     3   ar
     3     3     4   ar
     4     4     5    1
     5     5     6    1
     6     6     7    1
     7     7     8    1
     8     8     9    1
     9     9    10    1
    10     4    11   ar
    11    11    12   ar
    12    12    13   ar
    13    13    14   ar
    14    14    15   ar
    15    15    16   ar
    16    16    17   ar
    17    17     2   ar
    18    10     5    1
    19    17    12   ar
    20     3    18    1
    21     6    19    1
    22     6    20    1
    23     7    21    1
    24     7    22    1
    25     9    23    1
    26     9    24    1
    27    10    25    1
    28    10    26    1
    29    13    27    1
    30    14    28    1
    31    15    29    1
    32    16    30    1
