
     RDKit          3D

 60 62  0  0  0  0  0  0  0  0999 V2000
   -3.3667   -0.6345    0.4851 C   0  0  2  0  0  0  0  0  0  0  0  0
   -4.1122    0.5446   -0.1309 C   0  0  0  0  0  0  0  0  0  0  0  0
   -3.4623    1.8311    0.2271 C   0  0  0  0  0  0  0  0  0  0  0  0
   -2.4691    2.3348   -0.6045 C   0  0  0  0  0  0  0  0  0  0  0  0
   -1.7870    3.5163   -0.3878 C   0  0  0  0  0  0  0  0  0  0  0  0
   -2.1242    4.2374    0.7355 C   0  0  0  0  0  0  0  0  0  0  0  0
   -3.0947    3.7637    1.5656 C   0  0  0  0  0  0  0  0  0  0  0  0
   -3.7712    2.5816    1.3410 C   0  0  0  0  0  0  0  0  0  0  0  0
   -2.0085   -0.6197   -0.0242 N   0  0  0  0  0  0  0  0  0  0  0  0
   -0.8894   -0.6195    0.8377 C   0  0  0  0  0  0  0  0  0  0  0  0
   -0.8344   -0.6311    2.0951 O   0  0  0  0  0  0  0  0  0  0  0  0
    0.5261   -0.6040    0.3229 C   0  0  2  0  0  0  0  0  0  0  0  0
    0.6401   -1.8143   -0.5901 C   0  0  0  0  0  0  0  0  0  0  0  0
    0.4670   -3.2610    0.4968 S   0  0  0  0  0  0  0  0  0  0  0  0
    1.6582   -2.9594    1.8396 C   0  0  0  0  0  0  0  0  0  0  0  0
    2.3966   -1.6853    1.4262 C   0  0  0  0  0  0  0  0  0  0  0  0
    1.4693   -0.6074    1.3868 N   0  0  0  0  0  0  0  0  0  0  0  0
    2.1814    0.9117    1.7213 S   0  0  0  0  0  0  0  0  0  0  0  0
    1.0992    1.9406    1.8116 O   0  0  0  0  0  0  0  0  0  0  0  0
    2.7866    0.8244    3.1097 O   0  0  0  0  0  0  0  0  0  0  0  0
    3.4222    1.3532    0.5513 C   0  0  0  0  0  0  0  0  0  0  0  0
    3.0611    2.0689   -0.5799 C   0  0  0  0  0  0  0  0  0  0  0  0
    4.0912    2.3799   -1.4544 C   0  0  0  0  0  0  0  0  0  0  0  0
    5.4200    2.0334   -1.2789 C   0  0  0  0  0  0  0  0  0  0  0  0
    6.4477    2.4188   -2.2821 C   0  0  0  0  0  0  0  0  0  0  0  0
    5.7171    1.3221   -0.1348 C   0  0  0  0  0  0  0  0  0  0  0  0
    4.7380    0.9745    0.7870 C   0  0  0  0  0  0  0  0  0  0  0  0
   -4.0726   -1.8833    0.0454 C   0  0  0  0  0  0  0  0  0  0  0  0
   -5.2392   -2.2739    0.2663 O   0  0  0  0  0  0  0  0  0  0  0  0
   -3.5250   -2.9080   -0.7423 O   0  0  0  0  0  0  0  0  0  0  0  0
   -4.3190   -4.0256   -1.0741 C   0  0  0  0  0  0  0  0  0  0  0  0
   -3.4803   -4.9602   -1.9196 C   0  0  0  0  0  0  0  0  0  0  0  0
   -3.4135   -0.6330    1.5724 H   0  0  0  0  0  0  0  0  0  0  0  0
   -5.1759    0.5228    0.2287 H   0  0  0  0  0  0  0  0  0  0  0  0
   -4.1895    0.4073   -1.2288 H   0  0  0  0  0  0  0  0  0  0  0  0
   -2.2163    1.7458   -1.4928 H   0  0  0  0  0  0  0  0  0  0  0  0
   -1.0357    3.8513   -1.0605 H   0  0  0  0  0  0  0  0  0  0  0  0
   -1.5767    5.1717    0.8962 H   0  0  0  0  0  0  0  0  0  0  0  0
   -3.3310    4.3692    2.4472 H   0  0  0  0  0  0  0  0  0  0  0  0
   -4.5446    2.2049    2.0034 H   0  0  0  0  0  0  0  0  0  0  0  0
   -1.8877   -0.6086   -1.0505 H   0  0  0  0  0  0  0  0  0  0  0  0
    0.7251    0.2868   -0.3165 H   0  0  0  0  0  0  0  0  0  0  0  0
   -0.2490   -1.7981   -1.2523 H   0  0  0  0  0  0  0  0  0  0  0  0
    1.5927   -1.8287   -1.1452 H   0  0  0  0  0  0  0  0  0  0  0  0
    1.1260   -2.7201    2.7979 H   0  0  0  0  0  0  0  0  0  0  0  0
    2.3883   -3.7731    1.9452 H   0  0  0  0  0  0  0  0  0  0  0  0
    3.1351   -1.4639    2.2152 H   0  0  0  0  0  0  0  0  0  0  0  0
    2.8779   -1.8192    0.4474 H   0  0  0  0  0  0  0  0  0  0  0  0
    2.0495    2.3490   -0.7417 H   0  0  0  0  0  0  0  0  0  0  0  0
    3.7994    2.9392   -2.3350 H   0  0  0  0  0  0  0  0  0  0  0  0
    6.2073    2.0707   -3.2922 H   0  0  0  0  0  0  0  0  0  0  0  0
    7.4272    2.0527   -1.8953 H   0  0  0  0  0  0  0  0  0  0  0  0
    6.5496    3.5411   -2.3259 H   0  0  0  0  0  0  0  0  0  0  0  0
    6.7323    1.0246    0.0562 H   0  0  0  0  0  0  0  0  0  0  0  0
    5.0001    0.4101    1.6863 H   0  0  0  0  0  0  0  0  0  0  0  0
   -4.5394   -4.5271   -0.0939 H   0  0  0  0  0  0  0  0  0  0  0  0
   -5.2602   -3.7363   -1.5880 H   0  0  0  0  0  0  0  0  0  0  0  0
   -3.6901   -6.0313   -1.6537 H   0  0  0  0  0  0  0  0  0  0  0  0
   -2.4131   -4.7843   -1.6813 H   0  0  0  0  0  0  0  0  0  0  0  0
   -3.6542   -4.7733   -2.9910 H   0  0  0  0  0  0  0  0  0  0  0  0
  1  2  1  0
  2  3  1  0
  3  4  2  0
  4  5  1  0
  5  6  2  0
  6  7  1  0
  7  8  2  0
  1  9  1  0
  9 10  1  0
 10 11  2  0
 10 12  1  0
 12 13  1  0
 13 14  1  0
 14 15  1  0
 15 16  1  0
 16 17  1  0
 17 18  1  0
 18 19  2  0
 18 20  2  0
 18 21  1  0
 21 22  2  0
 22 23  1  0
 23 24  2  0
 24 25  1  0
 24 26  1  0
 26 27  2  0
  1 28  1  0
 28 29  2  0
 28 30  1  0
 30 31  1  0
 31 32  1  0
  8  3  1  0
 17 12  1  0
 27 21  1  0
  1 33  1  1
  2 34  1  0
  2 35  1  0
  4 36  1  0
  5 37  1  0
  6 38  1  0
  7 39  1  0
  8 40  1  0
  9 41  1  0
 12 42  1  6
 13 43  1  0
 13 44  1  0
 15 45  1  0
 15 46  1  0
 16 47  1  0
 16 48  1  0
 22 49  1  0
 23 50  1  0
 25 51  1  0
 25 52  1  0
 25 53  1  0
 26 54  1  0
 27 55  1  0
 31 56  1  0
 31 57  1  0
 32 58  1  0
 32 59  1  0
 32 60  1  0
M  END
$$$$
