
     RDKit          3D

 83 86  0  0  0  0  0  0  0  0999 V2000
   -8.6417    0.3295   -1.9926 C   0  0  0  0  0  0  0  0  0  0  0  0
   -9.3687   -0.4268   -0.8990 C   0  0  0  0  0  0  0  0  0  0  0  0
   -8.6948   -0.5108    0.3215 N   0  0  0  0  0  0  0  0  0  0  0  0
   -8.4912    0.6161    1.1164 C   0  0  0  0  0  0  0  0  0  0  0  0
   -8.9564    1.8924    0.4641 C   0  0  0  0  0  0  0  0  0  0  0  0
   -9.3708    0.4460    2.3696 C   0  0  0  0  0  0  0  0  0  0  0  0
   -7.0922    0.8500    1.6071 C   0  0  0  0  0  0  0  0  0  0  0  0
   -6.2107   -0.3698    1.5345 C   0  0  0  0  0  0  0  0  0  0  0  0
   -5.4309   -0.3103    0.3877 O   0  0  0  0  0  0  0  0  0  0  0  0
   -4.0675   -0.2759    0.2394 C   0  0  0  0  0  0  0  0  0  0  0  0
   -3.2096   -0.3134    1.3108 C   0  0  0  0  0  0  0  0  0  0  0  0
   -1.8502   -0.2741    1.0688 C   0  0  0  0  0  0  0  0  0  0  0  0
   -1.3475   -0.1991   -0.2052 C   0  0  0  0  0  0  0  0  0  0  0  0
    0.0896   -0.1585   -0.3950 C   0  0  0  0  0  0  0  0  0  0  0  0
    0.9091   -0.2014    0.5568 O   0  0  0  0  0  0  0  0  0  0  0  0
    0.6700   -0.0641   -1.7126 N   0  0  0  0  0  0  0  0  0  0  0  0
    2.0745   -0.0234   -1.9246 C   0  0  0  0  0  0  0  0  0  0  0  0
    2.8168   -1.1668   -2.1249 C   0  0  0  0  0  0  0  0  0  0  0  0
    4.1733   -1.0066   -2.3180 C   0  0  0  0  0  0  0  0  0  0  0  0
    4.7822    0.2267   -2.3155 C   0  0  0  0  0  0  0  0  0  0  0  0
    6.1821    0.3948   -2.5178 N   0  0  0  0  0  0  0  0  0  0  0  0
    7.1114    0.3793   -1.4594 C   0  0  0  0  0  0  0  0  0  0  0  0
    6.6607    0.2046   -0.2789 O   0  0  0  0  0  0  0  0  0  0  0  0
    8.5048    0.5498   -1.6766 N   0  0  0  0  0  0  0  0  0  0  0  0
    9.4360    0.5282   -0.6051 C   0  0  0  0  0  0  0  0  0  0  0  0
   10.7981    0.6868   -0.7077 C   0  0  0  0  0  0  0  0  0  0  0  0
   11.3138    0.5943    0.5689 C   0  0  0  0  0  0  0  0  0  0  0  0
   12.7532    0.7080    0.9257 C   0  0  0  0  0  0  0  0  0  0  0  0
   13.5709    0.9552   -0.3331 C   0  0  0  0  0  0  0  0  0  0  0  0
   13.0271    1.7690    1.9487 C   0  0  0  0  0  0  0  0  0  0  0  0
   13.1595   -0.6325    1.5514 C   0  0  0  0  0  0  0  0  0  0  0  0
   10.2961    0.3926    1.3637 O   0  0  0  0  0  0  0  0  0  0  0  0
    9.1835    0.3493    0.7038 N   0  0  0  0  0  0  0  0  0  0  0  0
    4.0316    1.3767   -2.1136 C   0  0  0  0  0  0  0  0  0  0  0  0
    2.6808    1.2156   -1.9213 C   0  0  0  0  0  0  0  0  0  0  0  0
   -2.2272   -0.1651   -1.2138 N   0  0  0  0  0  0  0  0  0  0  0  0
   -3.5349   -0.2007   -1.0277 C   0  0  0  0  0  0  0  0  0  0  0  0
   -6.9877   -1.6562    1.6660 C   0  0  0  0  0  0  0  0  0  0  0  0
   -8.1513   -1.7390    0.7155 C   0  0  0  0  0  0  0  0  0  0  0  0
   -7.7171   -2.6126   -0.4577 C   0  0  0  0  0  0  0  0  0  0  0  0
   -9.2409   -2.5390    1.4319 C   0  0  0  0  0  0  0  0  0  0  0  0
   -7.7355    0.8334   -1.6122 H   0  0  0  0  0  0  0  0  0  0  0  0
   -9.3231    1.0274   -2.5501 H   0  0  0  0  0  0  0  0  0  0  0  0
   -8.2630   -0.3685   -2.7919 H   0  0  0  0  0  0  0  0  0  0  0  0
   -9.5082   -1.4825   -1.2854 H   0  0  0  0  0  0  0  0  0  0  0  0
  -10.4355   -0.0559   -0.8195 H   0  0  0  0  0  0  0  0  0  0  0  0
   -9.4108    2.5807    1.2374 H   0  0  0  0  0  0  0  0  0  0  0  0
   -9.7091    1.7727   -0.3055 H   0  0  0  0  0  0  0  0  0  0  0  0
   -8.0783    2.4857    0.0840 H   0  0  0  0  0  0  0  0  0  0  0  0
  -10.2561   -0.1698    2.1545 H   0  0  0  0  0  0  0  0  0  0  0  0
   -9.7485    1.4372    2.6995 H   0  0  0  0  0  0  0  0  0  0  0  0
   -8.7685    0.0599    3.2182 H   0  0  0  0  0  0  0  0  0  0  0  0
   -7.1302    1.2870    2.6270 H   0  0  0  0  0  0  0  0  0  0  0  0
   -6.6164    1.6535    0.9770 H   0  0  0  0  0  0  0  0  0  0  0  0
   -5.5445   -0.3363    2.4153 H   0  0  0  0  0  0  0  0  0  0  0  0
   -3.5807   -0.3745    2.3501 H   0  0  0  0  0  0  0  0  0  0  0  0
   -1.2089   -0.3063    1.9426 H   0  0  0  0  0  0  0  0  0  0  0  0
   -0.0022   -0.0267   -2.5124 H   0  0  0  0  0  0  0  0  0  0  0  0
    2.3114   -2.1099   -2.1206 H   0  0  0  0  0  0  0  0  0  0  0  0
    4.7689   -1.8816   -2.4760 H   0  0  0  0  0  0  0  0  0  0  0  0
    6.5454    0.5362   -3.4865 H   0  0  0  0  0  0  0  0  0  0  0  0
    8.8258    0.6901   -2.6573 H   0  0  0  0  0  0  0  0  0  0  0  0
   11.3497    0.8501   -1.6047 H   0  0  0  0  0  0  0  0  0  0  0  0
   13.3164    1.9761   -0.6850 H   0  0  0  0  0  0  0  0  0  0  0  0
   14.6498    0.8984   -0.0410 H   0  0  0  0  0  0  0  0  0  0  0  0
   13.3379    0.1618   -1.0709 H   0  0  0  0  0  0  0  0  0  0  0  0
   14.0782    2.1374    1.8383 H   0  0  0  0  0  0  0  0  0  0  0  0
   12.9086    1.3882    2.9991 H   0  0  0  0  0  0  0  0  0  0  0  0
   12.2802    2.5734    1.8053 H   0  0  0  0  0  0  0  0  0  0  0  0
   12.8326   -0.5994    2.5972 H   0  0  0  0  0  0  0  0  0  0  0  0
   12.6692   -1.4043    0.9304 H   0  0  0  0  0  0  0  0  0  0  0  0
   14.2571   -0.7637    1.4649 H   0  0  0  0  0  0  0  0  0  0  0  0
    4.4809    2.3515   -2.1068 H   0  0  0  0  0  0  0  0  0  0  0  0
    2.1051    2.1248   -1.7641 H   0  0  0  0  0  0  0  0  0  0  0  0
   -4.2025   -0.1712   -1.8695 H   0  0  0  0  0  0  0  0  0  0  0  0
   -6.2667   -2.4813    1.4736 H   0  0  0  0  0  0  0  0  0  0  0  0
   -7.3026   -1.7720    2.7243 H   0  0  0  0  0  0  0  0  0  0  0  0
   -8.5183   -3.3405   -0.7422 H   0  0  0  0  0  0  0  0  0  0  0  0
   -7.3490   -2.0327   -1.3109 H   0  0  0  0  0  0  0  0  0  0  0  0
   -6.8578   -3.2644   -0.1326 H   0  0  0  0  0  0  0  0  0  0  0  0
  -10.2274   -2.2998    0.9638 H   0  0  0  0  0  0  0  0  0  0  0  0
   -9.2362   -2.3142    2.5089 H   0  0  0  0  0  0  0  0  0  0  0  0
   -9.0708   -3.6260    1.2815 H   0  0  0  0  0  0  0  0  0  0  0  0
  1  2  1  0
  2  3  1  0
  3  4  1  0
  4  5  1  0
  4  6  1  0
  4  7  1  0
  7  8  1  0
  8  9  1  0
  9 10  1  0
 10 11  2  0
 11 12  1  0
 12 13  2  0
 13 14  1  0
 14 15  2  0
 14 16  1  0
 16 17  1  0
 17 18  2  0
 18 19  1  0
 19 20  2  0
 20 21  1  0
 21 22  1  0
 22 23  2  0
 22 24  1  0
 24 25  1  0
 25 26  1  0
 26 27  2  0
 27 28  1  0
 28 29  1  0
 28 30  1  0
 28 31  1  0
 27 32  1  0
 32 33  1  0
 20 34  1  0
 34 35  2  0
 13 36  1  0
 36 37  2  0
  8 38  1  0
 38 39  1  0
 39 40  1  0
 39 41  1  0
 39  3  1  0
 37 10  1  0
 35 17  1  0
 33 25  2  0
  1 42  1  0
  1 43  1  0
  1 44  1  0
  2 45  1  0
  2 46  1  0
  5 47  1  0
  5 48  1  0
  5 49  1  0
  6 50  1  0
  6 51  1  0
  6 52  1  0
  7 53  1  0
  7 54  1  0
  8 55  1  0
 11 56  1  0
 12 57  1  0
 16 58  1  0
 18 59  1  0
 19 60  1  0
 21 61  1  0
 24 62  1  0
 26 63  1  0
 29 64  1  0
 29 65  1  0
 29 66  1  0
 30 67  1  0
 30 68  1  0
 30 69  1  0
 31 70  1  0
 31 71  1  0
 31 72  1  0
 34 73  1  0
 35 74  1  0
 37 75  1  0
 38 76  1  0
 38 77  1  0
 40 78  1  0
 40 79  1  0
 40 80  1  0
 41 81  1  0
 41 82  1  0
 41 83  1  0
M  END
$$$$
