@<TRIPOS>MOLECULE
*****
 83 86 0 0 0
SMALL
GASTEIGER

@<TRIPOS>ATOM
      1 C          -8.6417    0.3295   -1.9926 C.3     1  UNL1       -0.0523
      2 C          -9.3687   -0.4268   -0.8990 C.3     1  UNL1       -0.0029
      3 N          -8.6948   -0.5108    0.3215 N.3     1  UNL1       -0.2921
      4 C          -8.4912    0.6161    1.1164 C.3     1  UNL1        0.0202
      5 C          -8.9564    1.8924    0.4641 C.3     1  UNL1       -0.0467
      6 C          -9.3708    0.4460    2.3696 C.3     1  UNL1       -0.0467
      7 C          -7.0922    0.8500    1.6071 C.3     1  UNL1        0.0023
      8 C          -6.2107   -0.3698    1.5345 C.3     1  UNL1        0.1036
      9 O          -5.4309   -0.3103    0.3877 O.3     1  UNL1       -0.4872
     10 C          -4.0675   -0.2759    0.2394 C.ar    1  UNL1        0.1390
     11 C          -3.2096   -0.3134    1.3108 C.ar    1  UNL1       -0.0162
     12 C          -1.8502   -0.2741    1.0688 C.ar    1  UNL1       -0.0277
     13 C          -1.3475   -0.1991   -0.2052 C.ar    1  UNL1        0.1259
     14 C           0.0896   -0.1585   -0.3950 C.2     1  UNL1        0.2666
     15 O           0.9091   -0.2014    0.5568 O.2     1  UNL1       -0.2682
     16 N           0.6700   -0.0641   -1.7126 N.am    1  UNL1       -0.2802
     17 C           2.0745   -0.0234   -1.9246 C.ar    1  UNL1        0.0338
     18 C           2.8168   -1.1668   -2.1249 C.ar    1  UNL1       -0.0387
     19 C           4.1733   -1.0066   -2.3180 C.ar    1  UNL1       -0.0387
     20 C           4.7822    0.2267   -2.3155 C.ar    1  UNL1        0.0349
     21 N           6.1821    0.3948   -2.5178 N.am    1  UNL1       -0.2692
     22 C           7.1114    0.3793   -1.4594 C.2     1  UNL1        0.3093
     23 O           6.6607    0.2046   -0.2789 O.2     1  UNL1       -0.2521
     24 N           8.5048    0.5498   -1.6766 N.am    1  UNL1       -0.2512
     25 C           9.4360    0.5282   -0.6051 C.ar    1  UNL1        0.1691
     26 C          10.7981    0.6868   -0.7077 C.ar    1  UNL1        0.0230
     27 C          11.3138    0.5943    0.5689 C.ar    1  UNL1        0.1445
     28 C          12.7532    0.7080    0.9257 C.3     1  UNL1        0.0230
     29 C          13.5709    0.9552   -0.3331 C.3     1  UNL1       -0.0531
     30 C          13.0271    1.7690    1.9487 C.3     1  UNL1       -0.0531
     31 C          13.1595   -0.6325    1.5514 C.3     1  UNL1       -0.0531
     32 O          10.2961    0.3926    1.3637 O.2     1  UNL1       -0.3573
     33 N           9.1835    0.3493    0.7038 N.ar    1  UNL1       -0.0627
     34 C           4.0316    1.3767   -2.1136 C.ar    1  UNL1       -0.0387
     35 C           2.6808    1.2156   -1.9213 C.ar    1  UNL1       -0.0387
     36 N          -2.2272   -0.1651   -1.2138 N.ar    1  UNL1       -0.2467
     37 C          -3.5349   -0.2007   -1.0277 C.ar    1  UNL1        0.0701
     38 C          -6.9877   -1.6562    1.6660 C.3     1  UNL1        0.0023
     39 C          -8.1513   -1.7390    0.7155 C.3     1  UNL1        0.0202
     40 C          -7.7171   -2.6126   -0.4577 C.3     1  UNL1       -0.0467
     41 C          -9.2409   -2.5390    1.4319 C.3     1  UNL1       -0.0467
     42 H          -7.7355    0.8334   -1.6122 H       1  UNL1        0.0242
     43 H          -9.3231    1.0274   -2.5501 H       1  UNL1        0.0242
     44 H          -8.2630   -0.3685   -2.7919 H       1  UNL1        0.0242
     45 H          -9.5082   -1.4825   -1.2854 H       1  UNL1        0.0424
     46 H         -10.4355   -0.0559   -0.8195 H       1  UNL1        0.0424
     47 H          -9.4108    2.5807    1.2374 H       1  UNL1        0.0247
     48 H          -9.7091    1.7727   -0.3055 H       1  UNL1        0.0247
     49 H          -8.0783    2.4857    0.0840 H       1  UNL1        0.0247
     50 H         -10.2561   -0.1698    2.1545 H       1  UNL1        0.0247
     51 H          -9.7485    1.4372    2.6995 H       1  UNL1        0.0247
     52 H          -8.7685    0.0599    3.2182 H       1  UNL1        0.0247
     53 H          -7.1302    1.2870    2.6270 H       1  UNL1        0.0319
     54 H          -6.6164    1.6535    0.9770 H       1  UNL1        0.0319
     55 H          -5.5445   -0.3363    2.4153 H       1  UNL1        0.0734
     56 H          -3.5807   -0.3745    2.3501 H       1  UNL1        0.0655
     57 H          -1.2089   -0.3063    1.9426 H       1  UNL1        0.0641
     58 H          -0.0022   -0.0267   -2.5124 H       1  UNL1        0.1552
     59 H           2.3114   -2.1099   -2.1206 H       1  UNL1        0.0637
     60 H           4.7689   -1.8816   -2.4760 H       1  UNL1        0.0637
     61 H           6.5454    0.5362   -3.4865 H       1  UNL1        0.1564
     62 H           8.8258    0.6901   -2.6573 H       1  UNL1        0.1579
     63 H          11.3497    0.8501   -1.6047 H       1  UNL1        0.0688
     64 H          13.3164    1.9761   -0.6850 H       1  UNL1        0.0239
     65 H          14.6498    0.8984   -0.0410 H       1  UNL1        0.0239
     66 H          13.3379    0.1618   -1.0709 H       1  UNL1        0.0239
     67 H          14.0782    2.1374    1.8383 H       1  UNL1        0.0239
     68 H          12.9086    1.3882    2.9991 H       1  UNL1        0.0239
     69 H          12.2802    2.5734    1.8053 H       1  UNL1        0.0239
     70 H          12.8326   -0.5994    2.5972 H       1  UNL1        0.0239
     71 H          12.6692   -1.4043    0.9304 H       1  UNL1        0.0239
     72 H          14.2571   -0.7637    1.4649 H       1  UNL1        0.0239
     73 H           4.4809    2.3515   -2.1068 H       1  UNL1        0.0637
     74 H           2.1051    2.1248   -1.7641 H       1  UNL1        0.0637
     75 H          -4.2025   -0.1712   -1.8695 H       1  UNL1        0.0867
     76 H          -6.2667   -2.4813    1.4736 H       1  UNL1        0.0319
     77 H          -7.3026   -1.7720    2.7243 H       1  UNL1        0.0319
     78 H          -8.5183   -3.3405   -0.7422 H       1  UNL1        0.0247
     79 H          -7.3490   -2.0327   -1.3109 H       1  UNL1        0.0247
     80 H          -6.8578   -3.2644   -0.1326 H       1  UNL1        0.0247
     81 H         -10.2274   -2.2998    0.9638 H       1  UNL1        0.0247
     82 H          -9.2362   -2.3142    2.5089 H       1  UNL1        0.0247
     83 H          -9.0708   -3.6260    1.2815 H       1  UNL1        0.0247
@<TRIPOS>BOND
     1     1     2    1
     2     2     3    1
     3     3     4    1
     4     4     5    1
     5     4     6    1
     6     4     7    1
     7     7     8    1
     8     8     9    1
     9     9    10    1
    10    10    11   ar
    11    11    12   ar
    12    12    13   ar
    13    13    14    1
    14    14    15    2
    15    14    16   am
    16    16    17    1
    17    17    18   ar
    18    18    19   ar
    19    19    20   ar
    20    20    21    1
    21    21    22   am
    22    22    23    2
    23    22    24   am
    24    24    25    1
    25    25    26   ar
    26    26    27   ar
    27    27    28    1
    28    28    29    1
    29    28    30    1
    30    28    31    1
    31    27    32   ar
    32    32    33   ar
    33    20    34   ar
    34    34    35   ar
    35    13    36   ar
    36    36    37   ar
    37     8    38    1
    38    38    39    1
    39    39    40    1
    40    39    41    1
    41    39     3    1
    42    37    10   ar
    43    35    17   ar
    44    33    25   ar
    45     1    42    1
    46     1    43    1
    47     1    44    1
    48     2    45    1
    49     2    46    1
    50     5    47    1
    51     5    48    1
    52     5    49    1
    53     6    50    1
    54     6    51    1
    55     6    52    1
    56     7    53    1
    57     7    54    1
    58     8    55    1
    59    11    56    1
    60    12    57    1
    61    16    58    1
    62    18    59    1
    63    19    60    1
    64    21    61    1
    65    24    62    1
    66    26    63    1
    67    29    64    1
    68    29    65    1
    69    29    66    1
    70    30    67    1
    71    30    68    1
    72    30    69    1
    73    31    70    1
    74    31    71    1
    75    31    72    1
    76    34    73    1
    77    35    74    1
    78    37    75    1
    79    38    76    1
    80    38    77    1
    81    40    78    1
    82    40    79    1
    83    40    80    1
    84    41    81    1
    85    41    82    1
    86    41    83    1
