@<TRIPOS>MOLECULE
*****
 29 28 0 0 0
SMALL
GASTEIGER

@<TRIPOS>ATOM
      1 O          -3.9150   -1.4583    0.9813 O.3     1  UNL1       -0.3874
      2 C          -3.0470   -1.6566   -0.1064 C.3     1  UNL1        0.1049
      3 C          -2.5693   -0.3292   -0.5110 C.2     1  UNL1        0.1892
      4 O          -3.3102   -0.0685    0.4296 O.2     1  UNL1       -0.2921
      5 C          -1.8166    0.6538   -1.2982 C.3     1  UNL1        0.1434
      6 O          -2.1075    1.9118   -0.7734 O.3     1  UNL1       -0.3815
      7 C          -0.3355    0.3168   -1.1027 C.3     1  UNL1        0.1159
      8 O          -0.0475   -0.9383   -1.6269 O.3     1  UNL1       -0.3861
      9 C          -0.0757    0.2914    0.3856 C.3     1  UNL1        0.1077
     10 O          -0.3677    1.5508    0.8942 O.3     1  UNL1       -0.3868
     11 C           1.3659   -0.0876    0.6626 C.3     1  UNL1        0.0875
     12 O           2.2171    0.8217    0.0782 O.3     1  UNL1       -0.2841
     13 P           3.8434    0.4559    0.3503 P.3     1  UNL1        0.4724
     14 O           4.3025   -0.6942   -0.8048 O.3     1  UNL1       -0.3026
     15 O           4.0954   -0.2012    1.8819 O.3     1  UNL1       -0.3026
     16 O           4.7235    1.6585    0.1559 O.2     1  UNL1       -0.2275
     17 H          -4.8429   -1.4736    0.6327 H       1  UNL1        0.2100
     18 H          -2.1976   -2.2663    0.2618 H       1  UNL1        0.0637
     19 H          -3.5784   -2.1971   -0.9180 H       1  UNL1        0.0637
     20 H          -2.0348    0.6518   -2.3851 H       1  UNL1        0.0701
     21 H          -3.0112    1.9476   -0.3792 H       1  UNL1        0.2105
     22 H           0.2871    1.0948   -1.5829 H       1  UNL1        0.0650
     23 H          -0.1122   -1.6474   -0.9337 H       1  UNL1        0.2100
     24 H          -0.7583   -0.4430    0.8651 H       1  UNL1        0.0643
     25 H           0.4880    2.0429    0.9760 H       1  UNL1        0.2100
     26 H           1.5096   -0.1513    1.7612 H       1  UNL1        0.0592
     27 H           1.5693   -1.0764    0.2290 H       1  UNL1        0.0592
     28 H           5.2225   -0.9549   -0.5745 H       1  UNL1        0.2220
     29 H           4.5033    0.5043    2.4518 H       1  UNL1        0.2220
@<TRIPOS>BOND
     1     1     2    1
     2     2     3    1
     3     3     4    2
     4     3     5    1
     5     5     6    1
     6     5     7    1
     7     7     8    1
     8     7     9    1
     9     9    10    1
    10     9    11    1
    11    11    12    1
    12    12    13    1
    13    13    14    1
    14    13    15    1
    15    13    16    2
    16     1    17    1
    17     2    18    1
    18     2    19    1
    19     5    20    1
    20     6    21    1
    21     7    22    1
    22     8    23    1
    23     9    24    1
    24    10    25    1
    25    11    26    1
    26    11    27    1
    27    14    28    1
    28    15    29    1
