@<TRIPOS>MOLECULE
*****
 45 46 0 0 0
SMALL
GASTEIGER

@<TRIPOS>ATOM
      1 C           0.2991    1.0897   -1.5950 C.3     1  UNL1       -0.0497
      2 C           0.4950    0.3077   -0.3460 C.3     1  UNL1        0.0051
      3 C           1.9181    0.3286    0.1847 C.3     1  UNL1       -0.0338
      4 C           2.8701   -0.2607   -0.8052 C.3     1  UNL1       -0.0263
      5 C           4.2871   -0.2555   -0.3234 C.ar    1  UNL1       -0.0471
      6 C           4.7543   -1.3475    0.4214 C.ar    1  UNL1       -0.0551
      7 C           6.0654   -1.2930    0.8410 C.ar    1  UNL1       -0.0199
      8 C           6.9585   -0.2641    0.5958 C.ar    1  UNL1        0.1169
      9 O           8.2274   -0.4462    1.1289 O.3     1  UNL1       -0.5068
     10 C           6.4634    0.8080   -0.1483 C.ar    1  UNL1       -0.0199
     11 C           5.1635    0.7745   -0.5753 C.ar    1  UNL1       -0.0551
     12 N          -0.3834    0.6648    0.7032 N.3     1  UNL1       -0.3132
     13 C          -1.7111    0.2237    0.5723 C.3     1  UNL1        0.0001
     14 C          -2.5668    0.8291   -0.5068 C.3     1  UNL1       -0.0150
     15 C          -3.9247    0.1578   -0.3466 C.ar    1  UNL1       -0.0425
     16 C          -4.9315    0.6283    0.4571 C.ar    1  UNL1       -0.0133
     17 C          -6.1553    0.0736    0.6382 C.ar    1  UNL1        0.1585
     18 O          -7.1051    0.6291    1.4768 O.3     1  UNL1       -0.5033
     19 C          -6.3729   -1.1022   -0.0919 C.ar    1  UNL1        0.1582
     20 O          -7.5952   -1.7503    0.0210 O.3     1  UNL1       -0.5033
     21 C          -5.4208   -1.6539   -0.9277 C.ar    1  UNL1       -0.0163
     22 C          -4.1867   -1.0023   -1.0441 C.ar    1  UNL1       -0.0549
     23 H           1.2997    1.5217   -1.8862 H       1  UNL1        0.0245
     24 H          -0.0586    0.5485   -2.4706 H       1  UNL1        0.0245
     25 H          -0.3396    2.0058   -1.4337 H       1  UNL1        0.0245
     26 H           0.3304   -0.7870   -0.6386 H       1  UNL1        0.0458
     27 H           1.9498   -0.2797    1.1101 H       1  UNL1        0.0283
     28 H           2.1496    1.3620    0.4622 H       1  UNL1        0.0283
     29 H           2.6442   -1.3462   -1.0040 H       1  UNL1        0.0314
     30 H           2.8802    0.2857   -1.7582 H       1  UNL1        0.0314
     31 H           4.0988   -2.1777    0.6421 H       1  UNL1        0.0621
     32 H           6.3647   -2.1810    1.4182 H       1  UNL1        0.0654
     33 H           8.2540   -0.7205    2.1228 H       1  UNL1        0.2921
     34 H           7.1827    1.5859   -0.3198 H       1  UNL1        0.0654
     35 H           4.8012    1.6176   -1.1517 H       1  UNL1        0.0621
     36 H          -0.2888    1.6260    1.0486 H       1  UNL1        0.1222
     37 H          -2.2324    0.3293    1.5804 H       1  UNL1        0.0427
     38 H          -1.7090   -0.8908    0.3586 H       1  UNL1        0.0427
     39 H          -2.6597    1.9048   -0.3194 H       1  UNL1        0.0325
     40 H          -2.1985    0.6152   -1.5338 H       1  UNL1        0.0325
     41 H          -4.7154    1.5394    0.9985 H       1  UNL1        0.0658
     42 H          -7.4337    1.5677    1.4550 H       1  UNL1        0.2923
     43 H          -8.4136   -1.2887    0.4418 H       1  UNL1        0.2923
     44 H          -5.6448   -2.5604   -1.4642 H       1  UNL1        0.0655
     45 H          -3.4097   -1.4168   -1.6993 H       1  UNL1        0.0621
@<TRIPOS>BOND
     1     1     2    1
     2     2     3    1
     3     3     4    1
     4     4     5    1
     5     5     6   ar
     6     6     7   ar
     7     7     8   ar
     8     8     9    1
     9     8    10   ar
    10    10    11   ar
    11     2    12    1
    12    12    13    1
    13    13    14    1
    14    14    15    1
    15    15    16   ar
    16    16    17   ar
    17    17    18    1
    18    17    19   ar
    19    19    20    1
    20    19    21   ar
    21    21    22   ar
    22    11     5   ar
    23    22    15   ar
    24     1    23    1
    25     1    24    1
    26     1    25    1
    27     2    26    1
    28     3    27    1
    29     3    28    1
    30     4    29    1
    31     4    30    1
    32     6    31    1
    33     7    32    1
    34     9    33    1
    35    10    34    1
    36    11    35    1
    37    12    36    1
    38    13    37    1
    39    13    38    1
    40    14    39    1
    41    14    40    1
    42    16    41    1
    43    18    42    1
    44    20    43    1
    45    21    44    1
    46    22    45    1
