@<TRIPOS>MOLECULE
*****
 50 52 0 0 0
SMALL
GASTEIGER

@<TRIPOS>ATOM
      1 C           4.7628   -0.9543    0.9517 C.3     1  UNL1        0.0564
      2 C           4.3828    0.5023    1.0114 C.3     1  UNL1       -0.0384
      3 C           2.8952    0.6944    1.0892 C.3     1  UNL1       -0.0297
      4 C           2.3325    0.0813   -0.1919 C.3     1  UNL1        0.0823
      5 C           2.4851   -1.4112   -0.0149 C.3     1  UNL1       -0.0297
      6 C           3.9401   -1.7467   -0.0192 C.3     1  UNL1       -0.0384
      7 C           3.1978    0.4621   -1.3091 C.1     1  UNL1        0.0739
      8 N           3.9037    0.7591   -2.1889 N.1     1  UNL1       -0.1956
      9 C           0.9493    0.4936   -0.4357 C.ar    1  UNL1       -0.0238
     10 C          -0.2077   -0.1587    0.0118 C.ar    1  UNL1       -0.0116
     11 C          -1.4945    0.3249   -0.2804 C.ar    1  UNL1        0.1626
     12 O          -2.3935   -0.5225    0.2897 O.3     1  UNL1       -0.4852
     13 C          -3.7731   -0.5141    0.3102 C.3     1  UNL1        0.1004
     14 C          -4.3899   -1.7511   -0.3168 C.3     1  UNL1       -0.0158
     15 C          -5.7534   -1.8591    0.3694 C.3     1  UNL1       -0.0496
     16 C          -5.4020   -1.5524    1.7955 C.3     1  UNL1       -0.0496
     17 C          -4.3292   -0.5184    1.7274 C.3     1  UNL1       -0.0158
     18 C          -1.5518    1.4630   -1.0226 C.ar    1  UNL1        0.1615
     19 O          -2.8427    1.8597   -1.2580 O.3     1  UNL1       -0.4915
     20 C          -3.1046    3.0236   -2.0134 C.3     1  UNL1        0.0790
     21 C          -0.4472    2.1311   -1.4794 C.ar    1  UNL1       -0.0160
     22 C           0.8121    1.6548   -1.1916 C.ar    1  UNL1       -0.0534
     23 C           6.1812   -1.0088    0.4718 C.2     1  UNL1        0.3078
     24 O           6.5477   -0.4892   -0.7641 O.3     1  UNL1       -0.4804
     25 O           7.0972   -1.5262    1.1663 O.2     1  UNL1       -0.2507
     26 H           4.7566   -1.3503    1.9847 H       1  UNL1        0.0413
     27 H           4.7098    1.0122    0.0646 H       1  UNL1        0.0274
     28 H           4.8612    0.9535    1.8925 H       1  UNL1        0.0274
     29 H           2.6734    1.7694    1.1326 H       1  UNL1        0.0284
     30 H           2.5312    0.1202    1.9651 H       1  UNL1        0.0284
     31 H           2.0289   -1.9474   -0.8813 H       1  UNL1        0.0284
     32 H           1.9759   -1.7830    0.8725 H       1  UNL1        0.0284
     33 H           4.0818   -2.8297    0.2489 H       1  UNL1        0.0274
     34 H           4.3843   -1.6529   -1.0331 H       1  UNL1        0.0274
     35 H           0.0953   -1.0410    0.5824 H       1  UNL1        0.0658
     36 H          -4.2012    0.3420   -0.2396 H       1  UNL1        0.0733
     37 H          -3.8400   -2.6747   -0.0451 H       1  UNL1        0.0301
     38 H          -4.5461   -1.6014   -1.3939 H       1  UNL1        0.0301
     39 H          -6.4578   -1.0812    0.0284 H       1  UNL1        0.0266
     40 H          -6.1848   -2.8662    0.2391 H       1  UNL1        0.0266
     41 H          -5.0974   -2.4546    2.3657 H       1  UNL1        0.0266
     42 H          -6.3345   -1.1746    2.2958 H       1  UNL1        0.0266
     43 H          -4.7438    0.4865    1.9846 H       1  UNL1        0.0301
     44 H          -3.5331   -0.7438    2.4597 H       1  UNL1        0.0301
     45 H          -4.1914    3.2082   -1.9780 H       1  UNL1        0.0660
     46 H          -2.7255    2.9327   -3.0545 H       1  UNL1        0.0660
     47 H          -2.5729    3.9021   -1.5627 H       1  UNL1        0.0660
     48 H          -0.6528    3.0297   -2.0625 H       1  UNL1        0.0655
     49 H           1.6712    2.2196   -1.5764 H       1  UNL1        0.0622
     50 H           7.5136   -0.3134   -0.9982 H       1  UNL1        0.2951
@<TRIPOS>BOND
     1     1     2    1
     2     2     3    1
     3     3     4    1
     4     4     5    1
     5     5     6    1
     6     4     7    1
     7     7     8    3
     8     4     9    1
     9     9    10   ar
    10    10    11   ar
    11    11    12    1
    12    12    13    1
    13    13    14    1
    14    14    15    1
    15    15    16    1
    16    16    17    1
    17    11    18   ar
    18    18    19    1
    19    19    20    1
    20    18    21   ar
    21    21    22   ar
    22     1    23    1
    23    23    24    1
    24    23    25    2
    25     6     1    1
    26    22     9   ar
    27    17    13    1
    28     1    26    1
    29     2    27    1
    30     2    28    1
    31     3    29    1
    32     3    30    1
    33     5    31    1
    34     5    32    1
    35     6    33    1
    36     6    34    1
    37    10    35    1
    38    13    36    1
    39    14    37    1
    40    14    38    1
    41    15    39    1
    42    15    40    1
    43    16    41    1
    44    16    42    1
    45    17    43    1
    46    17    44    1
    47    20    45    1
    48    20    46    1
    49    20    47    1
    50    21    48    1
    51    22    49    1
    52    24    50    1
