
     RDKit          3D

 50 52  0  0  0  0  0  0  0  0999 V2000
    4.7628   -0.9543    0.9517 C   0  0  1  0  0  0  0  0  0  0  0  0
    4.3828    0.5023    1.0114 C   0  0  0  0  0  0  0  0  0  0  0  0
    2.8952    0.6944    1.0892 C   0  0  0  0  0  0  0  0  0  0  0  0
    2.3325    0.0813   -0.1919 C   0  0  2  0  0  0  0  0  0  0  0  0
    2.4851   -1.4112   -0.0149 C   0  0  0  0  0  0  0  0  0  0  0  0
    3.9401   -1.7467   -0.0192 C   0  0  0  0  0  0  0  0  0  0  0  0
    3.1978    0.4621   -1.3091 C   0  0  0  0  0  0  0  0  0  0  0  0
    3.9037    0.7591   -2.1889 N   0  0  0  0  0  0  0  0  0  0  0  0
    0.9493    0.4936   -0.4357 C   0  0  0  0  0  0  0  0  0  0  0  0
   -0.2077   -0.1587    0.0118 C   0  0  0  0  0  0  0  0  0  0  0  0
   -1.4945    0.3249   -0.2804 C   0  0  0  0  0  0  0  0  0  0  0  0
   -2.3935   -0.5225    0.2897 O   0  0  0  0  0  0  0  0  0  0  0  0
   -3.7731   -0.5141    0.3102 C   0  0  0  0  0  0  0  0  0  0  0  0
   -4.3899   -1.7511   -0.3168 C   0  0  0  0  0  0  0  0  0  0  0  0
   -5.7534   -1.8591    0.3694 C   0  0  0  0  0  0  0  0  0  0  0  0
   -5.4020   -1.5524    1.7955 C   0  0  0  0  0  0  0  0  0  0  0  0
   -4.3292   -0.5184    1.7274 C   0  0  0  0  0  0  0  0  0  0  0  0
   -1.5518    1.4630   -1.0226 C   0  0  0  0  0  0  0  0  0  0  0  0
   -2.8427    1.8597   -1.2580 O   0  0  0  0  0  0  0  0  0  0  0  0
   -3.1046    3.0236   -2.0134 C   0  0  0  0  0  0  0  0  0  0  0  0
   -0.4472    2.1311   -1.4794 C   0  0  0  0  0  0  0  0  0  0  0  0
    0.8121    1.6548   -1.1916 C   0  0  0  0  0  0  0  0  0  0  0  0
    6.1812   -1.0088    0.4718 C   0  0  0  0  0  0  0  0  0  0  0  0
    6.5477   -0.4892   -0.7641 O   0  0  0  0  0  0  0  0  0  0  0  0
    7.0972   -1.5262    1.1663 O   0  0  0  0  0  0  0  0  0  0  0  0
    4.7566   -1.3503    1.9847 H   0  0  0  0  0  0  0  0  0  0  0  0
    4.7098    1.0122    0.0646 H   0  0  0  0  0  0  0  0  0  0  0  0
    4.8612    0.9535    1.8925 H   0  0  0  0  0  0  0  0  0  0  0  0
    2.6734    1.7694    1.1326 H   0  0  0  0  0  0  0  0  0  0  0  0
    2.5312    0.1202    1.9651 H   0  0  0  0  0  0  0  0  0  0  0  0
    2.0289   -1.9474   -0.8813 H   0  0  0  0  0  0  0  0  0  0  0  0
    1.9759   -1.7830    0.8725 H   0  0  0  0  0  0  0  0  0  0  0  0
    4.0818   -2.8297    0.2489 H   0  0  0  0  0  0  0  0  0  0  0  0
    4.3843   -1.6529   -1.0331 H   0  0  0  0  0  0  0  0  0  0  0  0
    0.0953   -1.0410    0.5824 H   0  0  0  0  0  0  0  0  0  0  0  0
   -4.2012    0.3420   -0.2396 H   0  0  0  0  0  0  0  0  0  0  0  0
   -3.8400   -2.6747   -0.0451 H   0  0  0  0  0  0  0  0  0  0  0  0
   -4.5461   -1.6014   -1.3939 H   0  0  0  0  0  0  0  0  0  0  0  0
   -6.4578   -1.0812    0.0284 H   0  0  0  0  0  0  0  0  0  0  0  0
   -6.1848   -2.8662    0.2391 H   0  0  0  0  0  0  0  0  0  0  0  0
   -5.0974   -2.4546    2.3657 H   0  0  0  0  0  0  0  0  0  0  0  0
   -6.3345   -1.1746    2.2958 H   0  0  0  0  0  0  0  0  0  0  0  0
   -4.7438    0.4865    1.9846 H   0  0  0  0  0  0  0  0  0  0  0  0
   -3.5331   -0.7438    2.4597 H   0  0  0  0  0  0  0  0  0  0  0  0
   -4.1914    3.2082   -1.9780 H   0  0  0  0  0  0  0  0  0  0  0  0
   -2.7255    2.9327   -3.0545 H   0  0  0  0  0  0  0  0  0  0  0  0
   -2.5729    3.9021   -1.5627 H   0  0  0  0  0  0  0  0  0  0  0  0
   -0.6528    3.0297   -2.0625 H   0  0  0  0  0  0  0  0  0  0  0  0
    1.6712    2.2196   -1.5764 H   0  0  0  0  0  0  0  0  0  0  0  0
    7.5136   -0.3134   -0.9982 H   0  0  0  0  0  0  0  0  0  0  0  0
  1  2  1  0
  2  3  1  0
  3  4  1  0
  4  5  1  0
  5  6  1  0
  4  7  1  6
  7  8  3  0
  4  9  1  0
  9 10  2  0
 10 11  1  0
 11 12  1  0
 12 13  1  0
 13 14  1  0
 14 15  1  0
 15 16  1  0
 16 17  1  0
 11 18  2  0
 18 19  1  0
 19 20  1  0
 18 21  1  0
 21 22  2  0
  1 23  1  0
 23 24  1  0
 23 25  2  0
  6  1  1  0
 22  9  1  0
 17 13  1  0
  1 26  1  1
  2 27  1  0
  2 28  1  0
  3 29  1  0
  3 30  1  0
  5 31  1  0
  5 32  1  0
  6 33  1  0
  6 34  1  0
 10 35  1  0
 13 36  1  0
 14 37  1  0
 14 38  1  0
 15 39  1  0
 15 40  1  0
 16 41  1  0
 16 42  1  0
 17 43  1  0
 17 44  1  0
 20 45  1  0
 20 46  1  0
 20 47  1  0
 21 48  1  0
 22 49  1  0
 24 50  1  0
M  END
$$$$
