
     RDKit          3D

 52 56  0  0  0  0  0  0  0  0999 V2000
   -3.5185   -5.5078    0.6882 C   0  0  0  0  0  0  0  0  0  0  0  0
   -3.3488   -4.0983    0.2361 C   0  0  0  0  0  0  0  0  0  0  0  0
   -3.3250   -3.7599   -0.9636 O   0  0  0  0  0  0  0  0  0  0  0  0
   -3.2082   -3.0995    1.2213 N   0  0  0  0  0  0  0  0  0  0  0  0
   -3.0400   -1.7212    0.9265 C   0  0  0  0  0  0  0  0  0  0  0  0
   -3.9739   -0.7239    0.7573 C   0  0  0  0  0  0  0  0  0  0  0  0
   -3.3947    0.4536    0.4872 N   0  0  0  0  0  0  0  0  0  0  0  0
   -4.0556    1.7416    0.2457 C   0  0  0  0  0  0  0  0  0  0  0  0
   -2.0427    0.2303    0.4771 C   0  0  0  0  0  0  0  0  0  0  0  0
   -1.8088   -1.0884    0.7432 C   0  0  0  0  0  0  0  0  0  0  0  0
   -0.3797   -1.3318    0.7439 C   0  0  0  0  0  0  0  0  0  0  0  0
    0.1589   -2.4539    0.9571 O   0  0  0  0  0  0  0  0  0  0  0  0
    0.2451   -0.0895    0.4655 N   0  0  0  0  0  0  0  0  0  0  0  0
    1.6817    0.0485    0.4279 C   0  0  0  0  0  0  0  0  0  0  0  0
    2.3566   -0.1918   -0.7331 C   0  0  0  0  0  0  0  0  0  0  0  0
    3.7216   -0.0691   -0.8258 C   0  0  0  0  0  0  0  0  0  0  0  0
    4.3809   -0.3429   -2.1058 C   0  0  0  0  0  0  0  0  0  0  0  0
    4.4122    0.3105    0.3053 C   0  0  0  0  0  0  0  0  0  0  0  0
    5.7159    0.5136    0.5358 N   0  0  0  0  0  0  0  0  0  0  0  0
    5.8266    0.8720    1.8211 N   0  0  0  0  0  0  0  0  0  0  0  0
    4.6333    0.8961    2.3888 N   0  0  0  0  0  0  0  0  0  0  0  0
    4.4316    1.2517    3.7892 C   0  0  0  0  0  0  0  0  0  0  0  0
    3.7262    0.5511    1.4728 C   0  0  0  0  0  0  0  0  0  0  0  0
    2.3945    0.4181    1.5133 N   0  0  0  0  0  0  0  0  0  0  0  0
   -0.7488    0.8987    0.2745 C   0  0  0  0  0  0  0  0  0  0  0  0
   -0.6929    1.6277   -1.0150 C   0  0  0  0  0  0  0  0  0  0  0  0
   -0.5529    0.9888   -2.2264 C   0  0  0  0  0  0  0  0  0  0  0  0
   -0.5142    1.7730   -3.3571 C   0  0  0  0  0  0  0  0  0  0  0  0
   -0.6095    3.1514   -3.3142 C   0  0  0  0  0  0  0  0  0  0  0  0
   -0.5615    4.1532   -4.7418 Cl  0  0  0  0  0  0  0  0  0  0  0  0
   -0.7509    3.7931   -2.0892 C   0  0  0  0  0  0  0  0  0  0  0  0
   -0.7892    3.0120   -0.9662 C   0  0  0  0  0  0  0  0  0  0  0  0
   -3.0713   -5.6225    1.7181 H   0  0  0  0  0  0  0  0  0  0  0  0
   -4.5646   -5.8134    0.7654 H   0  0  0  0  0  0  0  0  0  0  0  0
   -2.9119   -6.1923    0.0389 H   0  0  0  0  0  0  0  0  0  0  0  0
   -3.2265   -3.3716    2.2362 H   0  0  0  0  0  0  0  0  0  0  0  0
   -5.0545   -0.8852    0.8361 H   0  0  0  0  0  0  0  0  0  0  0  0
   -5.1114    1.5511   -0.1068 H   0  0  0  0  0  0  0  0  0  0  0  0
   -3.5520    2.2196   -0.6120 H   0  0  0  0  0  0  0  0  0  0  0  0
   -4.1024    2.3602    1.1510 H   0  0  0  0  0  0  0  0  0  0  0  0
    1.8135   -0.4933   -1.6120 H   0  0  0  0  0  0  0  0  0  0  0  0
    4.5418   -1.4519   -2.1845 H   0  0  0  0  0  0  0  0  0  0  0  0
    5.2910    0.2347   -2.2919 H   0  0  0  0  0  0  0  0  0  0  0  0
    3.6594   -0.0941   -2.9282 H   0  0  0  0  0  0  0  0  0  0  0  0
    4.7499    0.3860    4.3868 H   0  0  0  0  0  0  0  0  0  0  0  0
    3.3724    1.5356    3.9527 H   0  0  0  0  0  0  0  0  0  0  0  0
    5.0547    2.1529    3.9774 H   0  0  0  0  0  0  0  0  0  0  0  0
   -0.6425    1.6602    1.1163 H   0  0  0  0  0  0  0  0  0  0  0  0
   -0.4825   -0.0755   -2.2193 H   0  0  0  0  0  0  0  0  0  0  0  0
   -0.4046    1.2897   -4.3189 H   0  0  0  0  0  0  0  0  0  0  0  0
   -0.8275    4.8709   -2.0300 H   0  0  0  0  0  0  0  0  0  0  0  0
   -0.9004    3.5319   -0.0145 H   0  0  0  0  0  0  0  0  0  0  0  0
  1  2  1  0
  2  3  2  0
  2  4  1  0
  4  5  1  0
  5  6  2  0
  6  7  1  0
  7  8  1  0
  7  9  1  0
  9 10  2  0
 10 11  1  0
 11 12  2  0
 11 13  1  0
 13 14  1  0
 14 15  2  0
 15 16  1  0
 16 17  1  0
 16 18  2  0
 18 19  1  0
 19 20  2  0
 20 21  1  0
 21 22  1  0
 21 23  1  0
 23 24  2  0
 13 25  1  0
 25 26  1  0
 26 27  2  0
 27 28  1  0
 28 29  2  0
 29 30  1  0
 29 31  1  0
 31 32  2  0
 10  5  1  0
 24 14  1  0
 32 26  1  0
 25  9  1  0
 23 18  1  0
  1 33  1  0
  1 34  1  0
  1 35  1  0
  4 36  1  0
  6 37  1  0
  8 38  1  0
  8 39  1  0
  8 40  1  0
 15 41  1  0
 17 42  1  0
 17 43  1  0
 17 44  1  0
 22 45  1  0
 22 46  1  0
 22 47  1  0
 25 48  1  0
 27 49  1  0
 28 50  1  0
 31 51  1  0
 32 52  1  0
M  END
$$$$
