@<TRIPOS>MOLECULE
*****
 52 56 0 0 0
SMALL
GASTEIGER

@<TRIPOS>ATOM
      1 C          -3.5185   -5.5078    0.6882 C.3     1  UNL1        0.0125
      2 C          -3.3488   -4.0983    0.2361 C.2     1  UNL1        0.2141
      3 O          -3.3250   -3.7599   -0.9636 O.2     1  UNL1       -0.2758
      4 N          -3.2082   -3.0995    1.2213 N.am    1  UNL1       -0.2839
      5 C          -3.0400   -1.7212    0.9265 C.ar    1  UNL1        0.0637
      6 C          -3.9739   -0.7239    0.7573 C.ar    1  UNL1        0.0266
      7 N          -3.3947    0.4536    0.4872 N.ar    1  UNL1       -0.3492
      8 C          -4.0556    1.7416    0.2457 C.3     1  UNL1        0.0117
      9 C          -2.0427    0.2303    0.4771 C.ar    1  UNL1        0.0581
     10 C          -1.8088   -1.0884    0.7432 C.ar    1  UNL1        0.0813
     11 C          -0.3797   -1.3318    0.7439 C.2     1  UNL1        0.2563
     12 O           0.1589   -2.4539    0.9571 O.2     1  UNL1       -0.2694
     13 N           0.2451   -0.0895    0.4655 N.am    1  UNL1       -0.2387
     14 C           1.6817    0.0485    0.4279 C.ar    1  UNL1        0.1313
     15 C           2.3566   -0.1918   -0.7331 C.ar    1  UNL1       -0.0161
     16 C           3.7216   -0.0691   -0.8258 C.ar    1  UNL1       -0.0164
     17 C           4.3809   -0.3429   -2.1058 C.3     1  UNL1       -0.0374
     18 C           4.4122    0.3105    0.3053 C.ar    1  UNL1        0.1345
     19 N           5.7159    0.5136    0.5358 N.ar    1  UNL1       -0.1276
     20 N           5.8266    0.8720    1.8211 N.ar    1  UNL1       -0.0635
     21 N           4.6333    0.8961    2.3888 N.ar    1  UNL1       -0.2297
     22 C           4.4316    1.2517    3.7892 C.3     1  UNL1        0.0341
     23 C           3.7262    0.5511    1.4728 C.ar    1  UNL1        0.1803
     24 N           2.3945    0.4181    1.5133 N.ar    1  UNL1       -0.2108
     25 C          -0.7488    0.8987    0.2745 C.3     1  UNL1        0.0986
     26 C          -0.6929    1.6277   -1.0150 C.ar    1  UNL1       -0.0207
     27 C          -0.5529    0.9888   -2.2264 C.ar    1  UNL1       -0.0550
     28 C          -0.5142    1.7730   -3.3571 C.ar    1  UNL1       -0.0431
     29 C          -0.6095    3.1514   -3.3142 C.ar    1  UNL1        0.0410
     30 CL         -0.5615    4.1532   -4.7418 Cl      1  UNL1       -0.0835
     31 C          -0.7509    3.7931   -2.0892 C.ar    1  UNL1       -0.0431
     32 C          -0.7892    3.0120   -0.9662 C.ar    1  UNL1       -0.0550
     33 H          -3.0713   -5.6225    1.7181 H       1  UNL1        0.0323
     34 H          -4.5646   -5.8134    0.7654 H       1  UNL1        0.0323
     35 H          -2.9119   -6.1923    0.0389 H       1  UNL1        0.0323
     36 H          -3.2265   -3.3716    2.2362 H       1  UNL1        0.1549
     37 H          -5.0545   -0.8852    0.8361 H       1  UNL1        0.0828
     38 H          -5.1114    1.5511   -0.1068 H       1  UNL1        0.0456
     39 H          -3.5520    2.2196   -0.6120 H       1  UNL1        0.0456
     40 H          -4.1024    2.3602    1.1510 H       1  UNL1        0.0456
     41 H           1.8135   -0.4933   -1.6120 H       1  UNL1        0.0655
     42 H           4.5418   -1.4519   -2.1845 H       1  UNL1        0.0278
     43 H           5.2910    0.2347   -2.2919 H       1  UNL1        0.0278
     44 H           3.6594   -0.0941   -2.9282 H       1  UNL1        0.0278
     45 H           4.7499    0.3860    4.3868 H       1  UNL1        0.0474
     46 H           3.3724    1.5356    3.9527 H       1  UNL1        0.0474
     47 H           5.0547    2.1529    3.9774 H       1  UNL1        0.0474
     48 H          -0.6425    1.6602    1.1163 H       1  UNL1        0.0620
     49 H          -0.4825   -0.0755   -2.2193 H       1  UNL1        0.0621
     50 H          -0.4046    1.2897   -4.3189 H       1  UNL1        0.0632
     51 H          -0.8275    4.8709   -2.0300 H       1  UNL1        0.0632
     52 H          -0.9004    3.5319   -0.0145 H       1  UNL1        0.0621
@<TRIPOS>BOND
     1     1     2    1
     2     2     3    2
     3     2     4   am
     4     4     5    1
     5     5     6   ar
     6     6     7   ar
     7     7     8    1
     8     7     9   ar
     9     9    10   ar
    10    10    11    1
    11    11    12    2
    12    11    13   am
    13    13    14    1
    14    14    15   ar
    15    15    16   ar
    16    16    17    1
    17    16    18   ar
    18    18    19   ar
    19    19    20   ar
    20    20    21   ar
    21    21    22    1
    22    21    23   ar
    23    23    24   ar
    24    13    25    1
    25    25    26    1
    26    26    27   ar
    27    27    28   ar
    28    28    29   ar
    29    29    30    1
    30    29    31   ar
    31    31    32   ar
    32    10     5   ar
    33    24    14   ar
    34    32    26   ar
    35    25     9    1
    36    23    18   ar
    37     1    33    1
    38     1    34    1
    39     1    35    1
    40     4    36    1
    41     6    37    1
    42     8    38    1
    43     8    39    1
    44     8    40    1
    45    15    41    1
    46    17    42    1
    47    17    43    1
    48    17    44    1
    49    22    45    1
    50    22    46    1
    51    22    47    1
    52    25    48    1
    53    27    49    1
    54    28    50    1
    55    31    51    1
    56    32    52    1
