@<TRIPOS>MOLECULE
*****
 57 61 0 0 0
SMALL
GASTEIGER

@<TRIPOS>ATOM
      1 C           8.0165    2.3333   -0.9661 C.3     1  UNL1       -0.0011
      2 N           6.6039    2.0259   -0.7523 N.pl3   1  UNL1       -0.3316
      3 C           6.2364    0.6824   -0.5808 C.ar    1  UNL1        0.1297
      4 N           7.1305   -0.3181   -0.6074 N.ar    1  UNL1       -0.2397
      5 C           6.8112   -1.6091   -0.4488 C.ar    1  UNL1        0.0317
      6 C           5.4846   -1.9300   -0.2463 C.ar    1  UNL1       -0.0193
      7 C           4.5140   -0.9596   -0.2073 C.ar    1  UNL1        0.0562
      8 C           4.9108    0.3534   -0.3776 C.ar    1  UNL1        0.0656
      9 C           3.7439    1.0815   -0.2919 C.ar    1  UNL1        0.1048
     10 N           3.5543    2.4193   -0.3819 N.ar    1  UNL1       -0.2330
     11 C           2.3181    2.9053   -0.2600 C.ar    1  UNL1        0.1189
     12 N           1.2546    2.0950   -0.0495 N.ar    1  UNL1       -0.2186
     13 C           1.3816    0.7375    0.0499 C.ar    1  UNL1        0.1489
     14 N           0.2322   -0.0620    0.2419 N.pl3   1  UNL1       -0.3110
     15 C          -0.3120   -0.9748   -0.7528 C.3     1  UNL1        0.0264
     16 C          -1.7676   -0.4986   -0.9337 C.3     1  UNL1        0.0147
     17 N          -2.4217   -0.7309    0.2880 N.3     1  UNL1       -0.2990
     18 C          -3.8221   -0.6805    0.3516 C.3     1  UNL1        0.0030
     19 C          -4.4475    0.6822    0.1586 C.3     1  UNL1       -0.0148
     20 C          -5.9175    0.4762    0.2493 C.ar    1  UNL1       -0.0433
     21 C          -6.5851    0.1993   -0.9503 C.ar    1  UNL1       -0.0556
     22 C          -7.9441   -0.0141   -1.0001 C.ar    1  UNL1       -0.0233
     23 C          -8.6447    0.0546    0.1933 C.ar    1  UNL1        0.1584
     24 F          -9.9827   -0.1452    0.2131 F       1  UNL1       -0.2025
     25 C          -8.0044    0.3288    1.4004 C.ar    1  UNL1        0.1587
     26 F          -8.7505    0.3804    2.5278 F       1  UNL1       -0.2025
     27 C          -6.6414    0.5374    1.4149 C.ar    1  UNL1       -0.0204
     28 C          -1.6695   -0.8874    1.4647 C.3     1  UNL1        0.0147
     29 C          -0.4778    0.0125    1.4993 C.3     1  UNL1        0.0264
     30 C           2.6556    0.2280   -0.0744 C.ar    1  UNL1        0.1089
     31 N           3.1745   -1.0057   -0.0292 N.ar    1  UNL1       -0.3389
     32 C           2.4094   -2.2124    0.1900 C.3     1  UNL1        0.0126
     33 H           8.1934    3.3957   -0.7245 H       1  UNL1        0.0426
     34 H           8.6488    1.6527   -0.3773 H       1  UNL1        0.0426
     35 H           8.2070    2.1543   -2.0491 H       1  UNL1        0.0426
     36 H           5.8778    2.7716   -0.7241 H       1  UNL1        0.1471
     37 H           7.5257   -2.4014   -0.4693 H       1  UNL1        0.0831
     38 H           5.1800   -2.9569   -0.1126 H       1  UNL1        0.0653
     39 H           2.1520    3.9694   -0.3289 H       1  UNL1        0.1048
     40 H           0.2347   -0.9580   -1.6957 H       1  UNL1        0.0477
     41 H          -0.4105   -2.0037   -0.3458 H       1  UNL1        0.0477
     42 H          -2.1817   -1.0850   -1.7549 H       1  UNL1        0.0442
     43 H          -1.7703    0.5667   -1.2515 H       1  UNL1        0.0442
     44 H          -4.1342   -1.0103    1.3807 H       1  UNL1        0.0430
     45 H          -4.3272   -1.3660   -0.3582 H       1  UNL1        0.0430
     46 H          -4.1826    1.1208   -0.8174 H       1  UNL1        0.0326
     47 H          -4.1262    1.3166    1.0254 H       1  UNL1        0.0326
     48 H          -6.0206    0.1492   -1.8739 H       1  UNL1        0.0621
     49 H          -8.4303   -0.2270   -1.9492 H       1  UNL1        0.0647
     50 H          -6.1367    0.7483    2.3288 H       1  UNL1        0.0650
     51 H          -1.2832   -1.9510    1.4910 H       1  UNL1        0.0442
     52 H          -2.2405   -0.6933    2.4026 H       1  UNL1        0.0442
     53 H          -0.8060    1.0765    1.6773 H       1  UNL1        0.0477
     54 H           0.2026   -0.2230    2.3570 H       1  UNL1        0.0477
     55 H           2.0159   -2.6560   -0.7489 H       1  UNL1        0.0456
     56 H           1.6556   -2.1153    0.9972 H       1  UNL1        0.0456
     57 H           3.1137   -3.0111    0.5889 H       1  UNL1        0.0456
@<TRIPOS>BOND
     1     1     2    1
     2     2     3    1
     3     3     4   ar
     4     4     5   ar
     5     5     6   ar
     6     6     7   ar
     7     7     8   ar
     8     8     9   ar
     9     9    10   ar
    10    10    11   ar
    11    11    12   ar
    12    12    13   ar
    13    13    14    1
    14    14    15    1
    15    15    16    1
    16    16    17    1
    17    17    18    1
    18    18    19    1
    19    19    20    1
    20    20    21   ar
    21    21    22   ar
    22    22    23   ar
    23    23    24    1
    24    23    25   ar
    25    25    26    1
    26    25    27   ar
    27    17    28    1
    28    28    29    1
    29    13    30   ar
    30    30    31   ar
    31    31    32    1
    32     8     3   ar
    33    30     9   ar
    34    31     7   ar
    35    29    14    1
    36    27    20   ar
    37     1    33    1
    38     1    34    1
    39     1    35    1
    40     2    36    1
    41     5    37    1
    42     6    38    1
    43    11    39    1
    44    15    40    1
    45    15    41    1
    46    16    42    1
    47    16    43    1
    48    18    44    1
    49    18    45    1
    50    19    46    1
    51    19    47    1
    52    21    48    1
    53    22    49    1
    54    27    50    1
    55    28    51    1
    56    28    52    1
    57    29    53    1
    58    29    54    1
    59    32    55    1
    60    32    56    1
    61    32    57    1
