
     RDKit          3D

 57 61  0  0  0  0  0  0  0  0999 V2000
    8.0165    2.3333   -0.9661 C   0  0  0  0  0  0  0  0  0  0  0  0
    6.6039    2.0259   -0.7523 N   0  0  0  0  0  0  0  0  0  0  0  0
    6.2364    0.6824   -0.5808 C   0  0  0  0  0  0  0  0  0  0  0  0
    7.1305   -0.3181   -0.6074 N   0  0  0  0  0  0  0  0  0  0  0  0
    6.8112   -1.6091   -0.4488 C   0  0  0  0  0  0  0  0  0  0  0  0
    5.4846   -1.9300   -0.2463 C   0  0  0  0  0  0  0  0  0  0  0  0
    4.5140   -0.9596   -0.2073 C   0  0  0  0  0  0  0  0  0  0  0  0
    4.9108    0.3534   -0.3776 C   0  0  0  0  0  0  0  0  0  0  0  0
    3.7439    1.0815   -0.2919 C   0  0  0  0  0  0  0  0  0  0  0  0
    3.5543    2.4193   -0.3819 N   0  0  0  0  0  0  0  0  0  0  0  0
    2.3181    2.9053   -0.2600 C   0  0  0  0  0  0  0  0  0  0  0  0
    1.2546    2.0950   -0.0495 N   0  0  0  0  0  0  0  0  0  0  0  0
    1.3816    0.7375    0.0499 C   0  0  0  0  0  0  0  0  0  0  0  0
    0.2322   -0.0620    0.2419 N   0  0  0  0  0  0  0  0  0  0  0  0
   -0.3120   -0.9748   -0.7528 C   0  0  0  0  0  0  0  0  0  0  0  0
   -1.7676   -0.4986   -0.9337 C   0  0  0  0  0  0  0  0  0  0  0  0
   -2.4217   -0.7309    0.2880 N   0  0  0  0  0  0  0  0  0  0  0  0
   -3.8221   -0.6805    0.3516 C   0  0  0  0  0  0  0  0  0  0  0  0
   -4.4475    0.6822    0.1586 C   0  0  0  0  0  0  0  0  0  0  0  0
   -5.9175    0.4762    0.2493 C   0  0  0  0  0  0  0  0  0  0  0  0
   -6.5851    0.1993   -0.9503 C   0  0  0  0  0  0  0  0  0  0  0  0
   -7.9441   -0.0141   -1.0001 C   0  0  0  0  0  0  0  0  0  0  0  0
   -8.6447    0.0546    0.1933 C   0  0  0  0  0  0  0  0  0  0  0  0
   -9.9827   -0.1452    0.2131 F   0  0  0  0  0  0  0  0  0  0  0  0
   -8.0044    0.3288    1.4004 C   0  0  0  0  0  0  0  0  0  0  0  0
   -8.7505    0.3804    2.5278 F   0  0  0  0  0  0  0  0  0  0  0  0
   -6.6414    0.5374    1.4149 C   0  0  0  0  0  0  0  0  0  0  0  0
   -1.6695   -0.8874    1.4647 C   0  0  0  0  0  0  0  0  0  0  0  0
   -0.4778    0.0125    1.4993 C   0  0  0  0  0  0  0  0  0  0  0  0
    2.6556    0.2280   -0.0744 C   0  0  0  0  0  0  0  0  0  0  0  0
    3.1745   -1.0057   -0.0292 N   0  0  0  0  0  0  0  0  0  0  0  0
    2.4094   -2.2124    0.1900 C   0  0  0  0  0  0  0  0  0  0  0  0
    8.1934    3.3957   -0.7245 H   0  0  0  0  0  0  0  0  0  0  0  0
    8.6488    1.6527   -0.3773 H   0  0  0  0  0  0  0  0  0  0  0  0
    8.2070    2.1543   -2.0491 H   0  0  0  0  0  0  0  0  0  0  0  0
    5.8778    2.7716   -0.7241 H   0  0  0  0  0  0  0  0  0  0  0  0
    7.5257   -2.4014   -0.4693 H   0  0  0  0  0  0  0  0  0  0  0  0
    5.1800   -2.9569   -0.1126 H   0  0  0  0  0  0  0  0  0  0  0  0
    2.1520    3.9694   -0.3289 H   0  0  0  0  0  0  0  0  0  0  0  0
    0.2347   -0.9580   -1.6957 H   0  0  0  0  0  0  0  0  0  0  0  0
   -0.4105   -2.0037   -0.3458 H   0  0  0  0  0  0  0  0  0  0  0  0
   -2.1817   -1.0850   -1.7549 H   0  0  0  0  0  0  0  0  0  0  0  0
   -1.7703    0.5667   -1.2515 H   0  0  0  0  0  0  0  0  0  0  0  0
   -4.1342   -1.0103    1.3807 H   0  0  0  0  0  0  0  0  0  0  0  0
   -4.3272   -1.3660   -0.3582 H   0  0  0  0  0  0  0  0  0  0  0  0
   -4.1826    1.1208   -0.8174 H   0  0  0  0  0  0  0  0  0  0  0  0
   -4.1262    1.3166    1.0254 H   0  0  0  0  0  0  0  0  0  0  0  0
   -6.0206    0.1492   -1.8739 H   0  0  0  0  0  0  0  0  0  0  0  0
   -8.4303   -0.2270   -1.9492 H   0  0  0  0  0  0  0  0  0  0  0  0
   -6.1367    0.7483    2.3288 H   0  0  0  0  0  0  0  0  0  0  0  0
   -1.2832   -1.9510    1.4910 H   0  0  0  0  0  0  0  0  0  0  0  0
   -2.2405   -0.6933    2.4026 H   0  0  0  0  0  0  0  0  0  0  0  0
   -0.8060    1.0765    1.6773 H   0  0  0  0  0  0  0  0  0  0  0  0
    0.2026   -0.2230    2.3570 H   0  0  0  0  0  0  0  0  0  0  0  0
    2.0159   -2.6560   -0.7489 H   0  0  0  0  0  0  0  0  0  0  0  0
    1.6556   -2.1153    0.9972 H   0  0  0  0  0  0  0  0  0  0  0  0
    3.1137   -3.0111    0.5889 H   0  0  0  0  0  0  0  0  0  0  0  0
  1  2  1  0
  2  3  1  0
  3  4  2  0
  4  5  1  0
  5  6  2  0
  6  7  1  0
  7  8  2  0
  8  9  1  0
  9 10  2  0
 10 11  1  0
 11 12  2  0
 12 13  1  0
 13 14  1  0
 14 15  1  0
 15 16  1  0
 16 17  1  0
 17 18  1  0
 18 19  1  0
 19 20  1  0
 20 21  2  0
 21 22  1  0
 22 23  2  0
 23 24  1  0
 23 25  1  0
 25 26  1  0
 25 27  2  0
 17 28  1  0
 28 29  1  0
 13 30  2  0
 30 31  1  0
 31 32  1  0
  8  3  1  0
 30  9  1  0
 31  7  1  0
 29 14  1  0
 27 20  1  0
  1 33  1  0
  1 34  1  0
  1 35  1  0
  2 36  1  0
  5 37  1  0
  6 38  1  0
 11 39  1  0
 15 40  1  0
 15 41  1  0
 16 42  1  0
 16 43  1  0
 18 44  1  0
 18 45  1  0
 19 46  1  0
 19 47  1  0
 21 48  1  0
 22 49  1  0
 27 50  1  0
 28 51  1  0
 28 52  1  0
 29 53  1  0
 29 54  1  0
 32 55  1  0
 32 56  1  0
 32 57  1  0
M  END
$$$$
