@<TRIPOS>MOLECULE
*****
 46 49 0 0 0
SMALL
GASTEIGER

@<TRIPOS>ATOM
      1 C           6.5774   -1.2847   -0.3230 C.3     1  UNL1        0.0309
      2 N           5.1623   -0.9826   -0.2539 N.ar    1  UNL1       -0.2661
      3 N           4.3276   -1.3990    0.7015 N.ar    1  UNL1       -0.1687
      4 C           3.0952   -0.9386    0.4558 C.ar    1  UNL1        0.1201
      5 C           1.9276   -1.1965    1.2940 C.ar    1  UNL1        0.1104
      6 C           2.0054   -1.9640    2.4377 C.ar    1  UNL1        0.0575
      7 N           0.9525   -2.2240    3.2311 N.ar    1  UNL1       -0.2338
      8 C          -0.2557   -1.7216    2.9159 C.ar    1  UNL1        0.1574
      9 N          -1.4835   -1.7624    3.4345 N.ar    1  UNL1       -0.3438
     10 C          -2.3564   -1.0532    2.6761 C.ar    1  UNL1        0.0178
     11 C          -1.6584   -0.5221    1.6043 C.ar    1  UNL1        0.0815
     12 C          -2.2741    0.3041    0.5720 C.2     1  UNL1        0.2480
     13 O          -1.5964    1.1021   -0.1352 O.2     1  UNL1       -0.2701
     14 N          -3.6707    0.2642    0.2947 N.am    1  UNL1       -0.3065
     15 C          -4.3266    1.0493   -0.7047 C.3     1  UNL1        0.0265
     16 C          -3.7757    0.7623   -2.0855 C.3     1  UNL1       -0.0442
     17 C          -5.8056    0.6649   -0.7225 C.3     1  UNL1       -0.0442
     18 C          -4.2478    2.5315   -0.4606 C.3     1  UNL1       -0.0442
     19 C          -0.3654   -0.9427    1.7660 C.ar    1  UNL1        0.1202
     20 N           0.7174   -0.6945    0.9809 N.ar    1  UNL1       -0.2397
     21 C           3.1917   -0.2081   -0.7050 C.ar    1  UNL1        0.0292
     22 C           2.2600    0.4907   -1.4306 C.ar    1  UNL1       -0.0490
     23 C           2.6625    1.1444   -2.5878 C.ar    1  UNL1       -0.0426
     24 C           3.9512    1.1247   -3.0425 C.ar    1  UNL1        0.0430
     25 CL          4.3870    1.9692   -4.5149 Cl      1  UNL1       -0.0835
     26 C           4.8846    0.4221   -2.3133 C.ar    1  UNL1       -0.0177
     27 C           4.5093   -0.2337   -1.1612 C.ar    1  UNL1        0.0706
     28 H           6.7636   -2.3607   -0.1371 H       1  UNL1        0.0473
     29 H           7.0027   -0.9799   -1.3004 H       1  UNL1        0.0473
     30 H           7.1525   -0.7498    0.4838 H       1  UNL1        0.0473
     31 H           2.9991   -2.3638    2.6768 H       1  UNL1        0.0853
     32 H          -1.7329   -2.2753    4.3032 H       1  UNL1        0.1668
     33 H          -3.4267   -0.9088    2.8522 H       1  UNL1        0.0816
     34 H          -4.2272   -0.3883    0.8700 H       1  UNL1        0.1495
     35 H          -4.6251    0.7984   -2.7927 H       1  UNL1        0.0250
     36 H          -3.2595   -0.2260   -2.1336 H       1  UNL1        0.0250
     37 H          -3.0708    1.5905   -2.3303 H       1  UNL1        0.0250
     38 H          -6.2213    0.5161    0.2772 H       1  UNL1        0.0250
     39 H          -6.3663    1.5124   -1.2010 H       1  UNL1        0.0250
     40 H          -5.9791   -0.2049   -1.4053 H       1  UNL1        0.0250
     41 H          -5.1877    2.9831   -0.8391 H       1  UNL1        0.0250
     42 H          -4.1668    2.8141    0.6011 H       1  UNL1        0.0250
     43 H          -3.4442    2.9523   -1.1026 H       1  UNL1        0.0250
     44 H           1.2301    0.5103   -1.0779 H       1  UNL1        0.0625
     45 H           1.8602    1.6801   -3.1091 H       1  UNL1        0.0632
     46 H           5.9043    0.3985   -2.6703 H       1  UNL1        0.0653
@<TRIPOS>BOND
     1     1     2    1
     2     2     3   ar
     3     3     4   ar
     4     4     5    1
     5     5     6   ar
     6     6     7   ar
     7     7     8   ar
     8     8     9   ar
     9     9    10   ar
    10    10    11   ar
    11    11    12    1
    12    12    13    2
    13    12    14   am
    14    14    15    1
    15    15    16    1
    16    15    17    1
    17    15    18    1
    18    11    19   ar
    19    19    20   ar
    20     4    21   ar
    21    21    22   ar
    22    22    23   ar
    23    23    24   ar
    24    24    25    1
    25    24    26   ar
    26    26    27   ar
    27    27     2   ar
    28    20     5   ar
    29    27    21   ar
    30    19     8   ar
    31     1    28    1
    32     1    29    1
    33     1    30    1
    34     6    31    1
    35     9    32    1
    36    10    33    1
    37    14    34    1
    38    16    35    1
    39    16    36    1
    40    16    37    1
    41    17    38    1
    42    17    39    1
    43    17    40    1
    44    18    41    1
    45    18    42    1
    46    18    43    1
    47    22    44    1
    48    23    45    1
    49    26    46    1
