
     RDKit          3D

 46 49  0  0  0  0  0  0  0  0999 V2000
    6.5774   -1.2847   -0.3230 C   0  0  0  0  0  0  0  0  0  0  0  0
    5.1623   -0.9826   -0.2539 N   0  0  0  0  0  0  0  0  0  0  0  0
    4.3276   -1.3990    0.7015 N   0  0  0  0  0  0  0  0  0  0  0  0
    3.0952   -0.9386    0.4558 C   0  0  0  0  0  0  0  0  0  0  0  0
    1.9276   -1.1965    1.2940 C   0  0  0  0  0  0  0  0  0  0  0  0
    2.0054   -1.9640    2.4377 C   0  0  0  0  0  0  0  0  0  0  0  0
    0.9525   -2.2240    3.2311 N   0  0  0  0  0  0  0  0  0  0  0  0
   -0.2557   -1.7216    2.9159 C   0  0  0  0  0  0  0  0  0  0  0  0
   -1.4835   -1.7624    3.4345 N   0  0  0  0  0  0  0  0  0  0  0  0
   -2.3564   -1.0532    2.6761 C   0  0  0  0  0  0  0  0  0  0  0  0
   -1.6584   -0.5221    1.6043 C   0  0  0  0  0  0  0  0  0  0  0  0
   -2.2741    0.3041    0.5720 C   0  0  0  0  0  0  0  0  0  0  0  0
   -1.5964    1.1021   -0.1352 O   0  0  0  0  0  0  0  0  0  0  0  0
   -3.6707    0.2642    0.2947 N   0  0  0  0  0  0  0  0  0  0  0  0
   -4.3266    1.0493   -0.7047 C   0  0  0  0  0  0  0  0  0  0  0  0
   -3.7757    0.7623   -2.0855 C   0  0  0  0  0  0  0  0  0  0  0  0
   -5.8056    0.6649   -0.7225 C   0  0  0  0  0  0  0  0  0  0  0  0
   -4.2478    2.5315   -0.4606 C   0  0  0  0  0  0  0  0  0  0  0  0
   -0.3654   -0.9427    1.7660 C   0  0  0  0  0  0  0  0  0  0  0  0
    0.7174   -0.6945    0.9809 N   0  0  0  0  0  0  0  0  0  0  0  0
    3.1917   -0.2081   -0.7050 C   0  0  0  0  0  0  0  0  0  0  0  0
    2.2600    0.4907   -1.4306 C   0  0  0  0  0  0  0  0  0  0  0  0
    2.6625    1.1444   -2.5878 C   0  0  0  0  0  0  0  0  0  0  0  0
    3.9512    1.1247   -3.0425 C   0  0  0  0  0  0  0  0  0  0  0  0
    4.3870    1.9692   -4.5149 Cl  0  0  0  0  0  0  0  0  0  0  0  0
    4.8846    0.4221   -2.3133 C   0  0  0  0  0  0  0  0  0  0  0  0
    4.5093   -0.2337   -1.1612 C   0  0  0  0  0  0  0  0  0  0  0  0
    6.7636   -2.3607   -0.1371 H   0  0  0  0  0  0  0  0  0  0  0  0
    7.0027   -0.9799   -1.3004 H   0  0  0  0  0  0  0  0  0  0  0  0
    7.1525   -0.7498    0.4838 H   0  0  0  0  0  0  0  0  0  0  0  0
    2.9991   -2.3638    2.6768 H   0  0  0  0  0  0  0  0  0  0  0  0
   -1.7329   -2.2753    4.3032 H   0  0  0  0  0  0  0  0  0  0  0  0
   -3.4267   -0.9088    2.8522 H   0  0  0  0  0  0  0  0  0  0  0  0
   -4.2272   -0.3883    0.8700 H   0  0  0  0  0  0  0  0  0  0  0  0
   -4.6251    0.7984   -2.7927 H   0  0  0  0  0  0  0  0  0  0  0  0
   -3.2595   -0.2260   -2.1336 H   0  0  0  0  0  0  0  0  0  0  0  0
   -3.0708    1.5905   -2.3303 H   0  0  0  0  0  0  0  0  0  0  0  0
   -6.2213    0.5161    0.2772 H   0  0  0  0  0  0  0  0  0  0  0  0
   -6.3663    1.5124   -1.2010 H   0  0  0  0  0  0  0  0  0  0  0  0
   -5.9791   -0.2049   -1.4053 H   0  0  0  0  0  0  0  0  0  0  0  0
   -5.1877    2.9831   -0.8391 H   0  0  0  0  0  0  0  0  0  0  0  0
   -4.1668    2.8141    0.6011 H   0  0  0  0  0  0  0  0  0  0  0  0
   -3.4442    2.9523   -1.1026 H   0  0  0  0  0  0  0  0  0  0  0  0
    1.2301    0.5103   -1.0779 H   0  0  0  0  0  0  0  0  0  0  0  0
    1.8602    1.6801   -3.1091 H   0  0  0  0  0  0  0  0  0  0  0  0
    5.9043    0.3985   -2.6703 H   0  0  0  0  0  0  0  0  0  0  0  0
  1  2  1  0
  2  3  1  0
  3  4  2  0
  4  5  1  0
  5  6  2  0
  6  7  1  0
  7  8  2  0
  8  9  1  0
  9 10  1  0
 10 11  2  0
 11 12  1  0
 12 13  2  0
 12 14  1  0
 14 15  1  0
 15 16  1  0
 15 17  1  0
 15 18  1  0
 11 19  1  0
 19 20  2  0
  4 21  1  0
 21 22  2  0
 22 23  1  0
 23 24  2  0
 24 25  1  0
 24 26  1  0
 26 27  2  0
 27  2  1  0
 20  5  1  0
 27 21  1  0
 19  8  1  0
  1 28  1  0
  1 29  1  0
  1 30  1  0
  6 31  1  0
  9 32  1  0
 10 33  1  0
 14 34  1  0
 16 35  1  0
 16 36  1  0
 16 37  1  0
 17 38  1  0
 17 39  1  0
 17 40  1  0
 18 41  1  0
 18 42  1  0
 18 43  1  0
 22 44  1  0
 23 45  1  0
 26 46  1  0
M  END
$$$$
