
     RDKit          3D

 64 69  0  0  0  0  0  0  0  0999 V2000
    2.8926   -4.2969   -2.3023 C   0  0  0  0  0  0  0  0  0  0  0  0
    3.8347   -3.1778   -2.6375 C   0  0  0  0  0  0  0  0  0  0  0  0
    5.0132   -3.2880   -3.2059 O   0  0  0  0  0  0  0  0  0  0  0  0
    5.5352   -2.0870   -3.3342 C   0  0  0  0  0  0  0  0  0  0  0  0
    4.6839   -1.1416   -2.8378 C   0  0  0  0  0  0  0  0  0  0  0  0
    3.5774   -1.8448   -2.3839 C   0  0  0  0  0  0  0  0  0  0  0  0
    2.3750   -1.2828   -1.7609 C   0  0  0  0  0  0  0  0  0  0  0  0
    1.1675   -1.4425   -2.3736 N   0  0  0  0  0  0  0  0  0  0  0  0
    0.0233   -0.9353   -1.8255 C   0  0  0  0  0  0  0  0  0  0  0  0
   -1.1634   -1.1746   -2.5654 N   0  0  0  0  0  0  0  0  0  0  0  0
    0.0428   -0.2462   -0.6393 C   0  0  0  0  0  0  0  0  0  0  0  0
   -1.1064    0.2600   -0.0963 O   0  0  0  0  0  0  0  0  0  0  0  0
   -1.1393    0.9734    1.1262 C   0  0  0  0  0  0  0  0  0  0  0  0
   -2.5549    1.3983    1.4431 C   0  0  1  0  0  0  0  0  0  0  0  0
   -2.9724    2.2652    0.3482 N   0  0  0  0  0  0  0  0  0  0  0  0
   -3.3992    0.1132    1.4318 C   0  0  0  0  0  0  0  0  0  0  0  0
   -4.8046    0.4052    1.7473 C   0  0  0  0  0  0  0  0  0  0  0  0
   -5.3442    0.6576    3.0133 C   0  0  0  0  0  0  0  0  0  0  0  0
   -4.5415    0.6350    4.1977 C   0  0  0  0  0  0  0  0  0  0  0  0
   -3.8886    0.6313    5.1867 N   0  0  0  0  0  0  0  0  0  0  0  0
   -6.6614    0.8905    2.8756 N   0  0  0  0  0  0  0  0  0  0  0  0
   -7.0203    0.8051    1.5866 C   0  0  0  0  0  0  0  0  0  0  0  0
   -8.2169    0.9509    0.9115 C   0  0  0  0  0  0  0  0  0  0  0  0
   -8.3420    0.8122   -0.4544 C   0  0  0  0  0  0  0  0  0  0  0  0
   -7.1888    0.5102   -1.1613 C   0  0  0  0  0  0  0  0  0  0  0  0
   -5.9900    0.3631   -0.4912 C   0  0  0  0  0  0  0  0  0  0  0  0
   -5.8561    0.5004    0.8774 C   0  0  0  0  0  0  0  0  0  0  0  0
    1.2477   -0.0697    0.0013 C   0  0  0  0  0  0  0  0  0  0  0  0
    2.4088   -0.5937   -0.5709 C   0  0  0  0  0  0  0  0  0  0  0  0
    3.6716   -0.3864    0.1256 C   0  0  0  0  0  0  0  0  0  0  0  0
    4.3501   -1.4870    0.5839 C   0  0  0  0  0  0  0  0  0  0  0  0
    5.5122   -1.3613    1.2346 N   0  0  0  0  0  0  0  0  0  0  0  0
    6.0432   -0.1656    1.4560 C   0  0  0  0  0  0  0  0  0  0  0  0
    7.1581    0.2797    2.0600 N   0  0  0  0  0  0  0  0  0  0  0  0
    7.1949    1.6121    1.9928 N   0  0  0  0  0  0  0  0  0  0  0  0
    6.1087    2.0620    1.3458 C   0  0  0  0  0  0  0  0  0  0  0  0
    5.7226    3.4806    1.0338 C   0  0  0  0  0  0  0  0  0  0  0  0
    5.3539    0.9473    0.9909 C   0  0  0  0  0  0  0  0  0  0  0  0
    4.1903    0.8274    0.3387 N   0  0  0  0  0  0  0  0  0  0  0  0
    2.0479   -4.3434   -3.0509 H   0  0  0  0  0  0  0  0  0  0  0  0
    3.4140   -5.2709   -2.4009 H   0  0  0  0  0  0  0  0  0  0  0  0
    2.4122   -4.1691   -1.3300 H   0  0  0  0  0  0  0  0  0  0  0  0
    6.5152   -1.8620   -3.7763 H   0  0  0  0  0  0  0  0  0  0  0  0
    4.7631   -0.0766   -2.7700 H   0  0  0  0  0  0  0  0  0  0  0  0
   -1.9469   -1.6603   -2.0807 H   0  0  0  0  0  0  0  0  0  0  0  0
   -1.2258   -0.8722   -3.5399 H   0  0  0  0  0  0  0  0  0  0  0  0
   -0.7971    0.3179    1.9450 H   0  0  0  0  0  0  0  0  0  0  0  0
   -0.4604    1.8755    1.0767 H   0  0  0  0  0  0  0  0  0  0  0  0
   -2.6551    1.9250    2.3947 H   0  0  0  0  0  0  0  0  0  0  0  0
   -2.1482    2.6573   -0.1588 H   0  0  0  0  0  0  0  0  0  0  0  0
   -3.6341    3.0122    0.6644 H   0  0  0  0  0  0  0  0  0  0  0  0
   -2.9223   -0.5295    2.2300 H   0  0  0  0  0  0  0  0  0  0  0  0
   -3.2844   -0.3510    0.4364 H   0  0  0  0  0  0  0  0  0  0  0  0
   -7.3331    1.1115    3.6661 H   0  0  0  0  0  0  0  0  0  0  0  0
   -9.1115    1.1862    1.4740 H   0  0  0  0  0  0  0  0  0  0  0  0
   -9.2972    0.9338   -0.9492 H   0  0  0  0  0  0  0  0  0  0  0  0
   -7.2569    0.3940   -2.2499 H   0  0  0  0  0  0  0  0  0  0  0  0
   -5.0712    0.1221   -1.0448 H   0  0  0  0  0  0  0  0  0  0  0  0
    1.3498    0.4636    0.9431 H   0  0  0  0  0  0  0  0  0  0  0  0
    3.9511   -2.5004    0.4245 H   0  0  0  0  0  0  0  0  0  0  0  0
    7.8858   -0.3031    2.5124 H   0  0  0  0  0  0  0  0  0  0  0  0
    4.6822    3.6854    1.3263 H   0  0  0  0  0  0  0  0  0  0  0  0
    6.3767    4.1542    1.6301 H   0  0  0  0  0  0  0  0  0  0  0  0
    5.8285    3.7004   -0.0558 H   0  0  0  0  0  0  0  0  0  0  0  0
  1  2  1  0
  2  3  1  0
  3  4  1  0
  4  5  2  0
  5  6  1  0
  6  7  1  0
  7  8  2  0
  8  9  1  0
  9 10  1  0
  9 11  2  0
 11 12  1  0
 12 13  1  0
 13 14  1  0
 14 15  1  0
 14 16  1  0
 16 17  1  0
 17 18  2  0
 18 19  1  0
 19 20  3  0
 18 21  1  0
 21 22  1  0
 22 23  2  0
 23 24  1  0
 24 25  2  0
 25 26  1  0
 26 27  2  0
 11 28  1  0
 28 29  2  0
 29 30  1  0
 30 31  2  0
 31 32  1  0
 32 33  2  0
 33 34  1  0
 34 35  1  0
 35 36  2  0
 36 37  1  0
 36 38  1  0
 38 39  2  0
  6  2  2  0
 29  7  1  0
 39 30  1  0
 27 17  1  0
 38 33  1  0
 27 22  1  0
  1 40  1  0
  1 41  1  0
  1 42  1  0
  4 43  1  0
  5 44  1  0
 10 45  1  0
 10 46  1  0
 13 47  1  0
 13 48  1  0
 14 49  1  1
 15 50  1  0
 15 51  1  0
 16 52  1  0
 16 53  1  0
 21 54  1  0
 23 55  1  0
 24 56  1  0
 25 57  1  0
 26 58  1  0
 28 59  1  0
 31 60  1  0
 34 61  1  0
 37 62  1  0
 37 63  1  0
 37 64  1  0
M  END
$$$$
