@<TRIPOS>MOLECULE
*****
 64 69 0 0 0
SMALL
GASTEIGER

@<TRIPOS>ATOM
      1 C           2.8926   -4.2969   -2.3023 C.3     1  UNL1       -0.0057
      2 C           3.8347   -3.1778   -2.6375 C.ar    1  UNL1        0.1109
      3 O           5.0132   -3.2880   -3.2059 O.2     1  UNL1       -0.4674
      4 C           5.5352   -2.0870   -3.3342 C.ar    1  UNL1        0.0927
      5 C           4.6839   -1.1416   -2.8378 C.ar    1  UNL1       -0.0144
      6 C           3.5774   -1.8448   -2.3839 C.ar    1  UNL1        0.0416
      7 C           2.3750   -1.2828   -1.7609 C.ar    1  UNL1        0.0858
      8 N           1.1675   -1.4425   -2.3736 N.ar    1  UNL1       -0.2279
      9 C           0.0233   -0.9353   -1.8255 C.ar    1  UNL1        0.1589
     10 N          -1.1634   -1.1746   -2.5654 N.pl3   1  UNL1       -0.3402
     11 C           0.0428   -0.2462   -0.6393 C.ar    1  UNL1        0.1605
     12 O          -1.1064    0.2600   -0.0963 O.3     1  UNL1       -0.4870
     13 C          -1.1393    0.9734    1.1262 C.3     1  UNL1        0.1051
     14 C          -2.5549    1.3983    1.4431 C.3     1  UNL1        0.0435
     15 N          -2.9724    2.2652    0.3482 N.3     1  UNL1       -0.3242
     16 C          -3.3992    0.1132    1.4318 C.3     1  UNL1       -0.0060
     17 C          -4.8046    0.4052    1.7473 C.ar    1  UNL1       -0.0028
     18 C          -5.3442    0.6576    3.0133 C.ar    1  UNL1        0.1217
     19 C          -4.5415    0.6350    4.1977 C.1     1  UNL1        0.1174
     20 N          -3.8886    0.6313    5.1867 N.1     1  UNL1       -0.1893
     21 N          -6.6614    0.8905    2.8756 N.ar    1  UNL1       -0.3460
     22 C          -7.0203    0.8051    1.5866 C.ar    1  UNL1        0.0477
     23 C          -8.2169    0.9509    0.9115 C.ar    1  UNL1       -0.0378
     24 C          -8.3420    0.8122   -0.4544 C.ar    1  UNL1       -0.0598
     25 C          -7.1888    0.5102   -1.1613 C.ar    1  UNL1       -0.0611
     26 C          -5.9900    0.3631   -0.4912 C.ar    1  UNL1       -0.0523
     27 C          -5.8561    0.5004    0.8774 C.ar    1  UNL1        0.0042
     28 C           1.2477   -0.0697    0.0013 C.ar    1  UNL1       -0.0052
     29 C           2.4088   -0.5937   -0.5709 C.ar    1  UNL1        0.0315
     30 C           3.6716   -0.3864    0.1256 C.ar    1  UNL1        0.0921
     31 C           4.3501   -1.4870    0.5839 C.ar    1  UNL1        0.0560
     32 N           5.5122   -1.3613    1.2346 N.ar    1  UNL1       -0.2326
     33 C           6.0432   -0.1656    1.4560 C.ar    1  UNL1        0.1747
     34 N           7.1581    0.2797    2.0600 N.ar    1  UNL1       -0.2587
     35 N           7.1949    1.6121    1.9928 N.ar    1  UNL1       -0.1752
     36 C           6.1087    2.0620    1.3458 C.ar    1  UNL1        0.0872
     37 C           5.7226    3.4806    1.0338 C.3     1  UNL1       -0.0185
     38 C           5.3539    0.9473    0.9909 C.ar    1  UNL1        0.1306
     39 N           4.1903    0.8274    0.3387 N.ar    1  UNL1       -0.2401
     40 H           2.0479   -4.3434   -3.0509 H       1  UNL1        0.0308
     41 H           3.4140   -5.2709   -2.4009 H       1  UNL1        0.0308
     42 H           2.4122   -4.1691   -1.3300 H       1  UNL1        0.0308
     43 H           6.5152   -1.8620   -3.7763 H       1  UNL1        0.1029
     44 H           4.7631   -0.0766   -2.7700 H       1  UNL1        0.0656
     45 H          -1.9469   -1.6603   -2.0807 H       1  UNL1        0.1438
     46 H          -1.2258   -0.8722   -3.5399 H       1  UNL1        0.1438
     47 H          -0.7971    0.3179    1.9450 H       1  UNL1        0.0712
     48 H          -0.4604    1.8755    1.0767 H       1  UNL1        0.0712
     49 H          -2.6551    1.9250    2.3947 H       1  UNL1        0.0495
     50 H          -2.1482    2.6573   -0.1588 H       1  UNL1        0.1186
     51 H          -3.6341    3.0122    0.6644 H       1  UNL1        0.1186
     52 H          -2.9223   -0.5295    2.2300 H       1  UNL1        0.0330
     53 H          -3.2844   -0.3510    0.4364 H       1  UNL1        0.0330
     54 H          -7.3331    1.1115    3.6661 H       1  UNL1        0.1665
     55 H          -9.1115    1.1862    1.4740 H       1  UNL1        0.0638
     56 H          -9.2972    0.9338   -0.9492 H       1  UNL1        0.0618
     57 H          -7.2569    0.3940   -2.2499 H       1  UNL1        0.0618
     58 H          -5.0712    0.1221   -1.0448 H       1  UNL1        0.0624
     59 H           1.3498    0.4636    0.9431 H       1  UNL1        0.0662
     60 H           3.9511   -2.5004    0.4245 H       1  UNL1        0.0852
     61 H           7.8858   -0.3031    2.5124 H       1  UNL1        0.1906
     62 H           4.6822    3.6854    1.3263 H       1  UNL1        0.0294
     63 H           6.3767    4.1542    1.6301 H       1  UNL1        0.0294
     64 H           5.8285    3.7004   -0.0558 H       1  UNL1        0.0294
@<TRIPOS>BOND
     1     1     2    1
     2     2     3   ar
     3     3     4   ar
     4     4     5   ar
     5     5     6   ar
     6     6     7    1
     7     7     8   ar
     8     8     9   ar
     9     9    10    1
    10     9    11   ar
    11    11    12    1
    12    12    13    1
    13    13    14    1
    14    14    15    1
    15    14    16    1
    16    16    17    1
    17    17    18   ar
    18    18    19    1
    19    19    20    3
    20    18    21   ar
    21    21    22   ar
    22    22    23   ar
    23    23    24   ar
    24    24    25   ar
    25    25    26   ar
    26    26    27   ar
    27    11    28   ar
    28    28    29   ar
    29    29    30    1
    30    30    31   ar
    31    31    32   ar
    32    32    33   ar
    33    33    34   ar
    34    34    35   ar
    35    35    36   ar
    36    36    37    1
    37    36    38   ar
    38    38    39   ar
    39     6     2   ar
    40    29     7   ar
    41    39    30   ar
    42    27    17   ar
    43    38    33   ar
    44    27    22   ar
    45     1    40    1
    46     1    41    1
    47     1    42    1
    48     4    43    1
    49     5    44    1
    50    10    45    1
    51    10    46    1
    52    13    47    1
    53    13    48    1
    54    14    49    1
    55    15    50    1
    56    15    51    1
    57    16    52    1
    58    16    53    1
    59    21    54    1
    60    23    55    1
    61    24    56    1
    62    25    57    1
    63    26    58    1
    64    28    59    1
    65    31    60    1
    66    34    61    1
    67    37    62    1
    68    37    63    1
    69    37    64    1
