@<TRIPOS>MOLECULE
*****
 45 48 0 0 0
SMALL
GASTEIGER

@<TRIPOS>ATOM
      1 C          -1.4039   -0.6759    0.1615 C.3     1  UNL1       -0.0274
      2 C          -2.4818   -1.3151   -0.6172 C.3     1  UNL1       -0.0207
      3 C          -3.6339   -1.1214    0.3758 C.3     1  UNL1        0.0819
      4 O          -3.3715   -1.9805    1.4442 O.3     1  UNL1       -0.3892
      5 C          -3.4055    0.2980    0.8632 C.3     1  UNL1        0.0867
      6 O          -3.7312    0.4642    2.1899 O.3     1  UNL1       -0.3887
      7 C          -2.0196    0.6887    0.5077 C.3     1  UNL1       -0.0005
      8 C          -2.0141    1.6271   -0.6605 C.3     1  UNL1       -0.0569
      9 C          -1.1991    1.1841    1.6601 C.3     1  UNL1       -0.0444
     10 C           0.2376    1.3292    1.2973 C.3     1  UNL1       -0.0454
     11 C           0.7797    0.0952    0.6408 C.3     1  UNL1       -0.0125
     12 C           2.1593    0.2446    0.1892 C.ar    1  UNL1       -0.0406
     13 C           2.7290   -0.7775   -0.5487 C.ar    1  UNL1       -0.0405
     14 C           1.8193   -1.9354   -0.7900 C.3     1  UNL1       -0.0270
     15 C           0.4963   -1.4200   -1.3287 C.3     1  UNL1       -0.0454
     16 C          -0.1339   -0.3636   -0.5079 C.3     1  UNL1       -0.0304
     17 C           4.0217   -0.7344   -1.0211 C.ar    1  UNL1       -0.0167
     18 C           4.7672    0.4025   -0.7279 C.ar    1  UNL1        0.1171
     19 O           6.0651    0.3810   -1.2352 O.3     1  UNL1       -0.5068
     20 C           4.2258    1.4395    0.0068 C.ar    1  UNL1       -0.0199
     21 C           2.9190    1.3788    0.4757 C.ar    1  UNL1       -0.0546
     22 H          -1.2701   -1.2200    1.1082 H       1  UNL1        0.0311
     23 H          -2.2320   -2.3963   -0.7239 H       1  UNL1        0.0294
     24 H          -2.7282   -0.8563   -1.5748 H       1  UNL1        0.0294
     25 H          -4.6115   -1.2760   -0.0941 H       1  UNL1        0.0619
     26 H          -2.6951   -2.6801    1.2063 H       1  UNL1        0.2099
     27 H          -4.1359    0.9198    0.2684 H       1  UNL1        0.0624
     28 H          -4.5865    0.9285    2.3232 H       1  UNL1        0.2099
     29 H          -1.1522    2.3238   -0.6915 H       1  UNL1        0.0236
     30 H          -2.1629    1.1117   -1.6377 H       1  UNL1        0.0236
     31 H          -2.9058    2.3088   -0.5338 H       1  UNL1        0.0236
     32 H          -1.3572    0.4813    2.5094 H       1  UNL1        0.0272
     33 H          -1.5762    2.1651    2.0447 H       1  UNL1        0.0272
     34 H           0.8125    1.4508    2.2504 H       1  UNL1        0.0271
     35 H           0.4205    2.2526    0.7316 H       1  UNL1        0.0271
     36 H           0.7476   -0.7265    1.3879 H       1  UNL1        0.0352
     37 H           1.5679   -2.4528    0.1624 H       1  UNL1        0.0313
     38 H           2.2340   -2.6501   -1.5038 H       1  UNL1        0.0313
     39 H           0.7396   -1.0788   -2.3739 H       1  UNL1        0.0271
     40 H          -0.1740   -2.3005   -1.4997 H       1  UNL1        0.0271
     41 H          -0.2613    0.5482   -1.1592 H       1  UNL1        0.0310
     42 H           4.3701   -1.5883   -1.5889 H       1  UNL1        0.0657
     43 H           6.7660    1.0479   -1.0022 H       1  UNL1        0.2921
     44 H           4.8677    2.2965    0.1973 H       1  UNL1        0.0654
     45 H           2.4974    2.1818    1.0455 H       1  UNL1        0.0622
@<TRIPOS>BOND
     1     1     2    1
     2     2     3    1
     3     3     4    1
     4     3     5    1
     5     5     6    1
     6     5     7    1
     7     7     8    1
     8     7     9    1
     9     9    10    1
    10    10    11    1
    11    11    12    1
    12    12    13   ar
    13    13    14    1
    14    14    15    1
    15    15    16    1
    16    13    17   ar
    17    17    18   ar
    18    18    19    1
    19    18    20   ar
    20    20    21   ar
    21     7     1    1
    22    16    11    1
    23    16     1    1
    24    21    12   ar
    25     1    22    1
    26     2    23    1
    27     2    24    1
    28     3    25    1
    29     4    26    1
    30     5    27    1
    31     6    28    1
    32     8    29    1
    33     8    30    1
    34     8    31    1
    35     9    32    1
    36     9    33    1
    37    10    34    1
    38    10    35    1
    39    11    36    1
    40    14    37    1
    41    14    38    1
    42    15    39    1
    43    15    40    1
    44    16    41    1
    45    17    42    1
    46    19    43    1
    47    20    44    1
    48    21    45    1
