
     RDKit          3D

 39 39  0  0  0  0  0  0  0  0999 V2000
    5.1760   -2.8182    0.9722 O   0  0  0  0  0  0  0  0  0  0  0  0
    4.3580   -1.7169    0.8824 C   0  0  0  0  0  0  0  0  0  0  0  0
    4.3653   -0.8357   -0.1920 C   0  0  0  0  0  0  0  0  0  0  0  0
    3.4993    0.2358   -0.1729 C   0  0  0  0  0  0  0  0  0  0  0  0
    2.6330    0.4658    0.8618 C   0  0  0  0  0  0  0  0  0  0  0  0
    1.6711    1.5880    0.9675 C   0  0  0  0  0  0  0  0  0  0  0  0
    0.3517    1.2624    0.3834 C   0  0  0  0  0  0  0  0  0  0  0  0
    0.1809    0.1271   -0.1208 O   0  0  0  0  0  0  0  0  0  0  0  0
   -0.6636    2.2539    0.4210 N   0  0  0  0  0  0  0  0  0  0  0  0
   -1.9960    2.0409   -0.1224 C   0  0  0  0  0  0  0  0  0  0  0  0
   -2.6119    0.8842    0.6109 C   0  0  0  0  0  0  0  0  0  0  0  0
   -4.0054    0.5919    0.1090 C   0  0  0  0  0  0  0  0  0  0  0  0
   -4.0592    0.2441   -1.3406 C   0  0  0  0  0  0  0  0  0  0  0  0
   -3.2604   -0.9694   -1.7321 C   0  0  0  0  0  0  0  0  0  0  0  0
   -3.7254   -2.1845   -1.0155 C   0  0  0  0  0  0  0  0  0  0  0  0
   -4.7385   -2.3410   -0.0888 O   0  0  0  0  0  1  0  0  0  0  0  0
   -4.5624   -2.6269   -0.1699 O   0  0  0  0  0  0  0  0  0  0  0  0
    2.6088   -0.4082    1.9532 C   0  0  0  0  0  0  0  0  0  0  0  0
    3.4793   -1.4911    1.9410 C   0  0  0  0  0  0  0  0  0  0  0  0
    5.2592   -1.0664   -1.2663 N   0  0  0  0  0  4  0  0  0  0  0  0
    5.0869   -0.7681   -2.5956 O   0  0  0  0  0  1  0  0  0  0  0  0
    6.3798   -1.5933   -1.1740 O   0  0  0  0  0  0  0  0  0  0  0  0
    5.4327   -3.3033    0.1205 H   0  0  0  0  0  0  0  0  0  0  0  0
    3.4812    0.9310   -0.9846 H   0  0  0  0  0  0  0  0  0  0  0  0
    2.1209    2.4352    0.3903 H   0  0  0  0  0  0  0  0  0  0  0  0
    1.5964    1.9344    2.0340 H   0  0  0  0  0  0  0  0  0  0  0  0
   -0.4332    3.1912    0.8677 H   0  0  0  0  0  0  0  0  0  0  0  0
   -1.9449    1.7765   -1.2031 H   0  0  0  0  0  0  0  0  0  0  0  0
   -2.6123    2.9212    0.0647 H   0  0  0  0  0  0  0  0  0  0  0  0
   -1.9899   -0.0014    0.7149 H   0  0  0  0  0  0  0  0  0  0  0  0
   -2.7668    1.2542    1.6677 H   0  0  0  0  0  0  0  0  0  0  0  0
   -4.5970    1.5246    0.2371 H   0  0  0  0  0  0  0  0  0  0  0  0
   -4.5048   -0.1628    0.7210 H   0  0  0  0  0  0  0  0  0  0  0  0
   -5.1327   -0.0287   -1.5477 H   0  0  0  0  0  0  0  0  0  0  0  0
   -3.8680    1.1105   -2.0033 H   0  0  0  0  0  0  0  0  0  0  0  0
   -3.4436   -1.1280   -2.8180 H   0  0  0  0  0  0  0  0  0  0  0  0
   -2.1867   -0.8751   -1.5809 H   0  0  0  0  0  0  0  0  0  0  0  0
    1.9532   -0.2823    2.7951 H   0  0  0  0  0  0  0  0  0  0  0  0
    3.4689   -2.1718    2.7776 H   0  0  0  0  0  0  0  0  0  0  0  0
  1  2  1  0
  2  3  2  0
  3  4  1  0
  4  5  2  0
  5  6  1  0
  6  7  1  0
  7  8  2  0
  7  9  1  0
  9 10  1  0
 10 11  1  0
 11 12  1  0
 12 13  1  0
 13 14  1  0
 14 15  1  0
 15 16  1  0
 15 17  2  0
  5 18  1  0
 18 19  2  0
  3 20  1  0
 20 21  1  0
 20 22  2  0
 19  2  1  0
  1 23  1  0
  4 24  1  0
  6 25  1  0
  6 26  1  0
  9 27  1  0
 10 28  1  0
 10 29  1  0
 11 30  1  0
 11 31  1  0
 12 32  1  0
 12 33  1  0
 13 34  1  0
 13 35  1  0
 14 36  1  0
 14 37  1  0
 18 38  1  0
 19 39  1  0
M  CHG  3  16  -1  20   1  21  -1
M  END
$$$$
