
     RDKit          3D

 55 57  0  0  0  0  0  0  0  0999 V2000
    7.6907    3.1771   -0.0480 O   0  0  0  0  0  0  0  0  0  0  0  0
    7.6759    1.9292   -0.1908 C   0  0  0  0  0  0  0  0  0  0  0  0
    6.6299    1.1105    0.4547 C   0  0  0  0  0  0  0  0  0  0  0  0
    5.6574    1.9224    1.2470 C   0  0  0  0  0  0  0  0  0  0  0  0
    4.6229    1.0540    1.8819 C   0  0  0  0  0  0  0  0  0  0  0  0
    3.8010    0.2534    0.8890 C   0  0  0  0  0  0  0  0  0  0  0  0
    3.0628    1.1188   -0.0691 C   0  0  0  0  0  0  0  0  0  0  0  0
    2.2704    0.2937   -1.0357 C   0  0  0  0  0  0  0  0  0  0  0  0
    1.2236   -0.5331   -0.3936 C   0  0  0  0  0  0  0  0  0  0  0  0
    0.9558   -0.4748    0.8485 O   0  0  0  0  0  0  0  0  0  0  0  0
    0.4627   -1.4458   -1.1723 N   0  0  0  0  0  0  0  0  0  0  0  0
   -0.5371   -2.2407   -0.5806 C   0  0  0  0  0  0  0  0  0  0  0  0
   -0.2695   -3.5000   -0.0594 C   0  0  0  0  0  0  0  0  0  0  0  0
   -1.2374   -4.2892    0.5225 C   0  0  0  0  0  0  0  0  0  0  0  0
   -2.5383   -3.7882    0.5837 C   0  0  0  0  0  0  0  0  0  0  0  0
   -2.8439   -2.5434    0.0778 C   0  0  0  0  0  0  0  0  0  0  0  0
   -4.2305   -2.0705    0.1712 C   0  0  0  0  0  0  0  0  0  0  0  0
   -4.7447   -0.8629   -0.2697 C   0  0  0  0  0  0  0  0  0  0  0  0
   -6.0632   -0.8015   -0.0013 N   0  0  0  0  0  0  0  0  0  0  0  0
   -6.9693    0.2577   -0.2852 C   0  0  0  0  0  0  0  0  0  0  0  0
   -8.0749    0.5503    0.4860 C   0  0  0  0  0  0  0  0  0  0  0  0
   -8.9326    1.5942    0.1715 C   0  0  0  0  0  0  0  0  0  0  0  0
   -8.6858    2.3785   -0.9500 C   0  0  0  0  0  0  0  0  0  0  0  0
   -9.5365    3.3954   -1.2413 F   0  0  0  0  0  0  0  0  0  0  0  0
   -7.5866    2.0942   -1.7243 C   0  0  0  0  0  0  0  0  0  0  0  0
   -6.7505    1.0524   -1.3907 C   0  0  0  0  0  0  0  0  0  0  0  0
   -6.3692   -1.9485    0.5961 N   0  0  0  0  0  0  0  0  0  0  0  0
   -5.2854   -2.7128    0.7045 N   0  0  0  0  0  0  0  0  0  0  0  0
   -1.8593   -1.7900   -0.4914 C   0  0  0  0  0  0  0  0  0  0  0  0
    8.6829    1.3186   -0.9842 N   0  0  0  0  0  0  0  0  0  0  0  0
    9.6643    2.0361   -1.5960 O   0  0  0  0  0  0  0  0  0  0  0  0
    7.0254    0.2988    1.0844 H   0  0  0  0  0  0  0  0  0  0  0  0
    6.0444    0.6440   -0.3891 H   0  0  0  0  0  0  0  0  0  0  0  0
    5.1469    2.6792    0.5916 H   0  0  0  0  0  0  0  0  0  0  0  0
    6.1540    2.4795    2.0830 H   0  0  0  0  0  0  0  0  0  0  0  0
    3.9558    1.5753    2.5752 H   0  0  0  0  0  0  0  0  0  0  0  0
    5.1752    0.2911    2.5048 H   0  0  0  0  0  0  0  0  0  0  0  0
    3.0961   -0.3344    1.4933 H   0  0  0  0  0  0  0  0  0  0  0  0
    4.4746   -0.4282    0.3239 H   0  0  0  0  0  0  0  0  0  0  0  0
    3.7312    1.8380   -0.6032 H   0  0  0  0  0  0  0  0  0  0  0  0
    2.3492    1.7819    0.4964 H   0  0  0  0  0  0  0  0  0  0  0  0
    1.8238    0.9038   -1.8517 H   0  0  0  0  0  0  0  0  0  0  0  0
    2.9281   -0.4531   -1.5744 H   0  0  0  0  0  0  0  0  0  0  0  0
    0.6503   -1.5213   -2.1807 H   0  0  0  0  0  0  0  0  0  0  0  0
    0.7476   -3.8412   -0.1305 H   0  0  0  0  0  0  0  0  0  0  0  0
   -1.0369   -5.2712    0.9308 H   0  0  0  0  0  0  0  0  0  0  0  0
   -3.2858   -4.4188    1.0428 H   0  0  0  0  0  0  0  0  0  0  0  0
   -4.1811   -0.0905   -0.7524 H   0  0  0  0  0  0  0  0  0  0  0  0
   -8.2841   -0.0394    1.3527 H   0  0  0  0  0  0  0  0  0  0  0  0
   -9.7976    1.8387    0.7574 H   0  0  0  0  0  0  0  0  0  0  0  0
   -7.3993    2.7053   -2.5931 H   0  0  0  0  0  0  0  0  0  0  0  0
   -5.8775    0.8232   -2.0016 H   0  0  0  0  0  0  0  0  0  0  0  0
   -2.1078   -0.8185   -0.8840 H   0  0  0  0  0  0  0  0  0  0  0  0
    8.6328    0.2775   -1.0765 H   0  0  0  0  0  0  0  0  0  0  0  0
   10.1493    2.5452   -0.8977 H   0  0  0  0  0  0  0  0  0  0  0  0
  1  2  2  0
  2  3  1  0
  3  4  1  0
  4  5  1  0
  5  6  1  0
  6  7  1  0
  7  8  1  0
  8  9  1  0
  9 10  2  0
  9 11  1  0
 11 12  1  0
 12 13  2  0
 13 14  1  0
 14 15  2  0
 15 16  1  0
 16 17  1  0
 17 18  2  0
 18 19  1  0
 19 20  1  0
 20 21  2  0
 21 22  1  0
 22 23  2  0
 23 24  1  0
 23 25  1  0
 25 26  2  0
 19 27  1  0
 27 28  2  0
 16 29  2  0
  2 30  1  0
 30 31  1  0
 29 12  1  0
 28 17  1  0
 26 20  1  0
  3 32  1  0
  3 33  1  0
  4 34  1  0
  4 35  1  0
  5 36  1  0
  5 37  1  0
  6 38  1  0
  6 39  1  0
  7 40  1  0
  7 41  1  0
  8 42  1  0
  8 43  1  0
 11 44  1  0
 13 45  1  0
 14 46  1  0
 15 47  1  0
 18 48  1  0
 21 49  1  0
 22 50  1  0
 25 51  1  0
 26 52  1  0
 29 53  1  0
 30 54  1  0
 31 55  1  0
M  END
$$$$
