@<TRIPOS>MOLECULE
*****
 55 57 0 0 0
SMALL
GASTEIGER

@<TRIPOS>ATOM
      1 O           7.6907    3.1771   -0.0480 O.2     1  UNL1       -0.2737
      2 C           7.6759    1.9292   -0.1908 C.2     1  UNL1        0.2354
      3 C           6.6299    1.1105    0.4547 C.3     1  UNL1        0.0259
      4 C           5.6574    1.9224    1.2470 C.3     1  UNL1       -0.0447
      5 C           4.6229    1.0540    1.8819 C.3     1  UNL1       -0.0526
      6 C           3.8010    0.2534    0.8890 C.3     1  UNL1       -0.0526
      7 C           3.0628    1.1188   -0.0691 C.3     1  UNL1       -0.0448
      8 C           2.2704    0.2937   -1.0357 C.3     1  UNL1        0.0243
      9 C           1.2236   -0.5331   -0.3936 C.2     1  UNL1        0.2172
     10 O           0.9558   -0.4748    0.8485 O.2     1  UNL1       -0.2755
     11 N           0.4627   -1.4458   -1.1723 N.am    1  UNL1       -0.2855
     12 C          -0.5371   -2.2407   -0.5806 C.ar    1  UNL1        0.0340
     13 C          -0.2695   -3.5000   -0.0594 C.ar    1  UNL1       -0.0404
     14 C          -1.2374   -4.2892    0.5225 C.ar    1  UNL1       -0.0594
     15 C          -2.5383   -3.7882    0.5837 C.ar    1  UNL1       -0.0523
     16 C          -2.8439   -2.5434    0.0778 C.ar    1  UNL1        0.0054
     17 C          -4.2305   -2.0705    0.1712 C.ar    1  UNL1        0.1130
     18 C          -4.7447   -0.8629   -0.2697 C.ar    1  UNL1        0.0591
     19 N          -6.0632   -0.8015   -0.0013 N.ar    1  UNL1       -0.2195
     20 C          -6.9693    0.2577   -0.2852 C.ar    1  UNL1        0.0672
     21 C          -8.0749    0.5503    0.4860 C.ar    1  UNL1       -0.0335
     22 C          -8.9326    1.5942    0.1715 C.ar    1  UNL1       -0.0244
     23 C          -8.6858    2.3785   -0.9500 C.ar    1  UNL1        0.1235
     24 F          -9.5365    3.3954   -1.2413 F       1  UNL1       -0.2055
     25 C          -7.5866    2.0942   -1.7243 C.ar    1  UNL1       -0.0244
     26 C          -6.7505    1.0524   -1.3907 C.ar    1  UNL1       -0.0335
     27 N          -6.3692   -1.9485    0.5961 N.ar    1  UNL1       -0.0602
     28 N          -5.2854   -2.7128    0.7045 N.ar    1  UNL1       -0.1292
     29 C          -1.8593   -1.7900   -0.4914 C.ar    1  UNL1       -0.0312
     30 N           8.6829    1.3186   -0.9842 N.am    1  UNL1       -0.1975
     31 O           9.6643    2.0361   -1.5960 O.3     1  UNL1       -0.2952
     32 H           7.0254    0.2988    1.0844 H       1  UNL1        0.0359
     33 H           6.0444    0.6440   -0.3891 H       1  UNL1        0.0359
     34 H           5.1469    2.6792    0.5916 H       1  UNL1        0.0270
     35 H           6.1540    2.4795    2.0830 H       1  UNL1        0.0270
     36 H           3.9558    1.5753    2.5752 H       1  UNL1        0.0265
     37 H           5.1752    0.2911    2.5048 H       1  UNL1        0.0265
     38 H           3.0961   -0.3344    1.4933 H       1  UNL1        0.0265
     39 H           4.4746   -0.4282    0.3239 H       1  UNL1        0.0265
     40 H           3.7312    1.8380   -0.6032 H       1  UNL1        0.0270
     41 H           2.3492    1.7819    0.4964 H       1  UNL1        0.0270
     42 H           1.8238    0.9038   -1.8517 H       1  UNL1        0.0358
     43 H           2.9281   -0.4531   -1.5744 H       1  UNL1        0.0358
     44 H           0.6503   -1.5213   -2.1807 H       1  UNL1        0.1548
     45 H           0.7476   -3.8412   -0.1305 H       1  UNL1        0.0636
     46 H          -1.0369   -5.2712    0.9308 H       1  UNL1        0.0618
     47 H          -3.2858   -4.4188    1.0428 H       1  UNL1        0.0624
     48 H          -4.1811   -0.0905   -0.7524 H       1  UNL1        0.0853
     49 H          -8.2841   -0.0394    1.3527 H       1  UNL1        0.0640
     50 H          -9.7976    1.8387    0.7574 H       1  UNL1        0.0647
     51 H          -7.3993    2.7053   -2.5931 H       1  UNL1        0.0647
     52 H          -5.8775    0.8232   -2.0016 H       1  UNL1        0.0640
     53 H          -2.1078   -0.8185   -0.8840 H       1  UNL1        0.0643
     54 H           8.6328    0.2775   -1.0765 H       1  UNL1        0.1822
     55 H          10.1493    2.5452   -0.8977 H       1  UNL1        0.2414
@<TRIPOS>BOND
     1     1     2    2
     2     2     3    1
     3     3     4    1
     4     4     5    1
     5     5     6    1
     6     6     7    1
     7     7     8    1
     8     8     9    1
     9     9    10    2
    10     9    11   am
    11    11    12    1
    12    12    13   ar
    13    13    14   ar
    14    14    15   ar
    15    15    16   ar
    16    16    17    1
    17    17    18   ar
    18    18    19   ar
    19    19    20    1
    20    20    21   ar
    21    21    22   ar
    22    22    23   ar
    23    23    24    1
    24    23    25   ar
    25    25    26   ar
    26    19    27   ar
    27    27    28   ar
    28    16    29   ar
    29     2    30   am
    30    30    31    1
    31    29    12   ar
    32    28    17   ar
    33    26    20   ar
    34     3    32    1
    35     3    33    1
    36     4    34    1
    37     4    35    1
    38     5    36    1
    39     5    37    1
    40     6    38    1
    41     6    39    1
    42     7    40    1
    43     7    41    1
    44     8    42    1
    45     8    43    1
    46    11    44    1
    47    13    45    1
    48    14    46    1
    49    15    47    1
    50    18    48    1
    51    21    49    1
    52    22    50    1
    53    25    51    1
    54    26    52    1
    55    29    53    1
    56    30    54    1
    57    31    55    1
