
     RDKit          3D

 66 70  0  0  0  0  0  0  0  0999 V2000
    3.6898    1.4768   -3.4602 C   0  0  0  0  0  0  0  0  0  0  0  0
    2.5327    1.8362   -2.5732 C   0  0  0  0  0  0  0  0  0  0  0  0
    2.5437    1.5128   -1.3183 C   0  0  0  0  0  0  0  0  0  0  0  0
    3.5821    0.8178   -0.5748 C   0  0  0  0  0  0  0  0  0  0  0  0
    3.2168    0.6664    0.6860 O   0  0  0  0  0  0  0  0  0  0  0  0
    4.8058    0.3270   -0.9537 N   0  0  0  0  0  0  0  0  0  0  0  0
    5.7118   -0.3426   -0.0675 C   0  0  0  0  0  0  0  0  0  0  0  0
    5.5615   -0.5564    1.2556 C   0  0  0  0  0  0  0  0  0  0  0  0
    6.5359   -1.2409    1.9980 C   0  0  0  0  0  0  0  0  0  0  0  0
    7.6671   -1.7096    1.3929 C   0  0  0  0  0  0  0  0  0  0  0  0
    8.7504   -2.3889    1.8528 N   0  0  0  0  0  0  0  0  0  0  0  0
    9.5818   -2.6102    0.8550 N   0  0  0  0  0  0  0  0  0  0  0  0
    9.0713   -2.0891   -0.2667 C   0  0  0  0  0  0  0  0  0  0  0  0
    7.8561   -1.5111    0.0456 C   0  0  0  0  0  0  0  0  0  0  0  0
    6.8872   -0.8371   -0.6628 C   0  0  0  0  0  0  0  0  0  0  0  0
    1.2869    1.7969   -0.5113 C   0  0  0  0  0  0  0  0  0  0  0  0
    0.4631    0.5596   -0.3776 C   0  0  0  0  0  0  0  0  0  0  0  0
    0.9465   -0.6373   -0.8453 C   0  0  0  0  0  0  0  0  0  0  0  0
    0.1558   -1.7721   -0.7022 C   0  0  0  0  0  0  0  0  0  0  0  0
   -1.0980   -1.6869   -0.0968 C   0  0  0  0  0  0  0  0  0  0  0  0
   -1.7850   -2.8384   -0.0193 F   0  0  0  0  0  0  0  0  0  0  0  0
   -1.5895   -0.5067    0.3714 C   0  0  0  0  0  0  0  0  0  0  0  0
   -2.8872   -0.3138    1.0334 C   0  0  0  0  0  0  0  0  0  0  0  0
   -3.2641    0.8877    1.2604 O   0  0  0  0  0  0  0  0  0  0  0  0
   -3.7648   -1.3157    1.4478 N   0  0  0  0  0  0  0  0  0  0  0  0
   -5.0444   -1.2258    2.0944 C   0  0  0  0  0  0  0  0  0  0  0  0
   -6.1118   -0.5051    1.4290 C   0  0  0  0  0  0  0  0  0  0  0  0
   -6.4067    0.8110    1.6126 C   0  0  0  0  0  0  0  0  0  0  0  0
   -5.7681    1.6726    2.6589 C   0  0  0  0  0  0  0  0  0  0  0  0
   -7.4147    1.4450    0.8580 C   0  0  0  0  0  0  0  0  0  0  0  0
   -8.1423    0.7654   -0.0893 C   0  0  0  0  0  0  0  0  0  0  0  0
   -7.8399   -0.5634   -0.2661 C   0  0  0  0  0  0  0  0  0  0  0  0
   -6.8613   -1.2048    0.4553 C   0  0  0  0  0  0  0  0  0  0  0  0
   -6.5996   -2.6498    0.1967 C   0  0  0  0  0  0  0  0  0  0  0  0
   -0.7782    0.6021    0.2135 C   0  0  0  0  0  0  0  0  0  0  0  0
    0.4783    2.8137   -1.0390 N   0  0  0  0  0  0  0  0  0  0  0  0
    0.4344    3.1652   -2.4144 C   0  0  0  0  0  0  0  0  0  0  0  0
   -0.4553    3.8622   -2.9316 O   0  0  0  0  0  0  0  0  0  0  0  0
    1.4969    2.6606   -3.1935 N   0  0  0  0  0  0  0  0  0  0  0  0
    3.8087    0.3831   -3.5862 H   0  0  0  0  0  0  0  0  0  0  0  0
    3.3564    1.7748   -4.5198 H   0  0  0  0  0  0  0  0  0  0  0  0
    4.5860    2.0679   -3.2588 H   0  0  0  0  0  0  0  0  0  0  0  0
    5.0998    0.4585   -1.9391 H   0  0  0  0  0  0  0  0  0  0  0  0
    4.6914   -0.2058    1.7901 H   0  0  0  0  0  0  0  0  0  0  0  0
    6.3616   -1.3833    3.0569 H   0  0  0  0  0  0  0  0  0  0  0  0
    8.9206   -2.6960    2.8268 H   0  0  0  0  0  0  0  0  0  0  0  0
    9.5125   -2.1069   -1.2449 H   0  0  0  0  0  0  0  0  0  0  0  0
    7.0556   -0.6946   -1.7109 H   0  0  0  0  0  0  0  0  0  0  0  0
    1.6422    2.1387    0.5062 H   0  0  0  0  0  0  0  0  0  0  0  0
    1.9059   -0.7502   -1.3232 H   0  0  0  0  0  0  0  0  0  0  0  0
    0.5334   -2.7149   -1.0689 H   0  0  0  0  0  0  0  0  0  0  0  0
   -3.3850   -2.3187    1.2397 H   0  0  0  0  0  0  0  0  0  0  0  0
   -5.4134   -2.3015    2.2172 H   0  0  0  0  0  0  0  0  0  0  0  0
   -4.9297   -0.8329    3.1402 H   0  0  0  0  0  0  0  0  0  0  0  0
   -5.0715    1.1308    3.3131 H   0  0  0  0  0  0  0  0  0  0  0  0
   -5.2764    2.5475    2.1562 H   0  0  0  0  0  0  0  0  0  0  0  0
   -6.5539    2.1032    3.3010 H   0  0  0  0  0  0  0  0  0  0  0  0
   -7.5998    2.4977    1.0505 H   0  0  0  0  0  0  0  0  0  0  0  0
   -8.8976    1.3000   -0.6336 H   0  0  0  0  0  0  0  0  0  0  0  0
   -8.4297   -1.0969   -1.0262 H   0  0  0  0  0  0  0  0  0  0  0  0
   -7.1536   -3.2966    0.9092 H   0  0  0  0  0  0  0  0  0  0  0  0
   -6.9996   -2.8929   -0.8128 H   0  0  0  0  0  0  0  0  0  0  0  0
   -5.5246   -2.9153    0.2871 H   0  0  0  0  0  0  0  0  0  0  0  0
   -1.1122    1.5585    0.5628 H   0  0  0  0  0  0  0  0  0  0  0  0
   -0.1451    3.3723   -0.3928 H   0  0  0  0  0  0  0  0  0  0  0  0
    1.5728    2.8519   -4.1935 H   0  0  0  0  0  0  0  0  0  0  0  0
  1  2  1  0
  2  3  2  0
  3  4  1  0
  4  5  2  0
  4  6  1  0
  6  7  1  0
  7  8  2  0
  8  9  1  0
  9 10  2  0
 10 11  1  0
 11 12  1  0
 12 13  2  0
 13 14  1  0
 14 15  2  0
  3 16  1  0
 16 17  1  0
 17 18  2  0
 18 19  1  0
 19 20  2  0
 20 21  1  0
 20 22  1  0
 22 23  1  0
 23 24  2  0
 23 25  1  0
 25 26  1  0
 26 27  1  0
 27 28  2  0
 28 29  1  0
 28 30  1  0
 30 31  2  0
 31 32  1  0
 32 33  2  0
 33 34  1  0
 22 35  2  0
 16 36  1  0
 36 37  1  0
 37 38  2  0
 37 39  1  0
 39  2  1  0
 15  7  1  0
 35 17  1  0
 14 10  1  0
 33 27  1  0
  1 40  1  0
  1 41  1  0
  1 42  1  0
  6 43  1  0
  8 44  1  0
  9 45  1  0
 11 46  1  0
 13 47  1  0
 15 48  1  0
 16 49  1  0
 18 50  1  0
 19 51  1  0
 25 52  1  0
 26 53  1  0
 26 54  1  0
 29 55  1  0
 29 56  1  0
 29 57  1  0
 30 58  1  0
 31 59  1  0
 32 60  1  0
 34 61  1  0
 34 62  1  0
 34 63  1  0
 35 64  1  0
 36 65  1  0
 39 66  1  0
M  END
$$$$
