@<TRIPOS>MOLECULE
*****
 66 70 0 0 0
SMALL
GASTEIGER

@<TRIPOS>ATOM
      1 C           3.6898    1.4768   -3.4602 C.3     1  UNL1       -0.0259
      2 C           2.5327    1.8362   -2.5732 C.2     1  UNL1        0.0191
      3 C           2.5437    1.5128   -1.3183 C.2     1  UNL1        0.0559
      4 C           3.5821    0.8178   -0.5748 C.2     1  UNL1        0.2478
      5 O           3.2168    0.6664    0.6860 O.2     1  UNL1       -0.2701
      6 N           4.8058    0.3270   -0.9537 N.am    1  UNL1       -0.2816
      7 C           5.7118   -0.3426   -0.0675 C.ar    1  UNL1        0.0344
      8 C           5.5615   -0.5564    1.2556 C.ar    1  UNL1       -0.0384
      9 C           6.5359   -1.2409    1.9980 C.ar    1  UNL1       -0.0345
     10 C           7.6671   -1.7096    1.3929 C.ar    1  UNL1        0.0658
     11 N           8.7504   -2.3889    1.8528 N.ar    1  UNL1       -0.2770
     12 N           9.5818   -2.6102    0.8550 N.ar    1  UNL1       -0.1812
     13 C           9.0713   -2.0891   -0.2667 C.ar    1  UNL1        0.0569
     14 C           7.8561   -1.5111    0.0456 C.ar    1  UNL1        0.0212
     15 C           6.8872   -0.8371   -0.6628 C.ar    1  UNL1       -0.0298
     16 C           1.2869    1.7969   -0.5113 C.3     1  UNL1        0.0815
     17 C           0.4631    0.5596   -0.3776 C.ar    1  UNL1       -0.0217
     18 C           0.9465   -0.6373   -0.8453 C.ar    1  UNL1       -0.0537
     19 C           0.1558   -1.7721   -0.7022 C.ar    1  UNL1       -0.0254
     20 C          -1.0980   -1.6869   -0.0968 C.ar    1  UNL1        0.1355
     21 F          -1.7850   -2.8384   -0.0193 F       1  UNL1       -0.2047
     22 C          -1.5895   -0.5067    0.3714 C.ar    1  UNL1        0.0721
     23 C          -2.8872   -0.3138    1.0334 C.2     1  UNL1        0.2471
     24 O          -3.2641    0.8877    1.2604 O.2     1  UNL1       -0.2701
     25 N          -3.7648   -1.3157    1.4478 N.am    1  UNL1       -0.3071
     26 C          -5.0444   -1.2258    2.0944 C.3     1  UNL1        0.0376
     27 C          -6.1118   -0.5051    1.4290 C.ar    1  UNL1       -0.0245
     28 C          -6.4067    0.8110    1.6126 C.ar    1  UNL1       -0.0455
     29 C          -5.7681    1.6726    2.6589 C.3     1  UNL1       -0.0394
     30 C          -7.4147    1.4450    0.8580 C.ar    1  UNL1       -0.0585
     31 C          -8.1423    0.7654   -0.0893 C.ar    1  UNL1       -0.0612
     32 C          -7.8399   -0.5634   -0.2661 C.ar    1  UNL1       -0.0585
     33 C          -6.8613   -1.2048    0.4553 C.ar    1  UNL1       -0.0455
     34 C          -6.5996   -2.6498    0.1967 C.3     1  UNL1       -0.0394
     35 C          -0.7782    0.6021    0.2135 C.ar    1  UNL1       -0.0416
     36 N           0.4783    2.8137   -1.0390 N.am    1  UNL1       -0.2881
     37 C           0.4344    3.1652   -2.4144 C.2     1  UNL1        0.3043
     38 O          -0.4553    3.8622   -2.9316 O.2     1  UNL1       -0.2525
     39 N           1.4969    2.6606   -3.1935 N.am    1  UNL1       -0.2729
     40 H           3.8087    0.3831   -3.5862 H       1  UNL1        0.0290
     41 H           3.3564    1.7748   -4.5198 H       1  UNL1        0.0290
     42 H           4.5860    2.0679   -3.2588 H       1  UNL1        0.0290
     43 H           5.0998    0.4585   -1.9391 H       1  UNL1        0.1551
     44 H           4.6914   -0.2058    1.7901 H       1  UNL1        0.0637
     45 H           6.3616   -1.3833    3.0569 H       1  UNL1        0.0639
     46 H           8.9206   -2.6960    2.8268 H       1  UNL1        0.1889
     47 H           9.5125   -2.1069   -1.2449 H       1  UNL1        0.0854
     48 H           7.0556   -0.6946   -1.7109 H       1  UNL1        0.0643
     49 H           1.6422    2.1387    0.5062 H       1  UNL1        0.0601
     50 H           1.9059   -0.7502   -1.3232 H       1  UNL1        0.0622
     51 H           0.5334   -2.7149   -1.0689 H       1  UNL1        0.0646
     52 H          -3.3850   -2.3187    1.2397 H       1  UNL1        0.1493
     53 H          -5.4134   -2.3015    2.2172 H       1  UNL1        0.0512
     54 H          -4.9297   -0.8329    3.1402 H       1  UNL1        0.0512
     55 H          -5.0715    1.1308    3.3131 H       1  UNL1        0.0278
     56 H          -5.2764    2.5475    2.1562 H       1  UNL1        0.0278
     57 H          -6.5539    2.1032    3.3010 H       1  UNL1        0.0278
     58 H          -7.5998    2.4977    1.0505 H       1  UNL1        0.0620
     59 H          -8.8976    1.3000   -0.6336 H       1  UNL1        0.0618
     60 H          -8.4297   -1.0969   -1.0262 H       1  UNL1        0.0620
     61 H          -7.1536   -3.2966    0.9092 H       1  UNL1        0.0278
     62 H          -6.9996   -2.8929   -0.8128 H       1  UNL1        0.0278
     63 H          -5.5246   -2.9153    0.2871 H       1  UNL1        0.0278
     64 H          -1.1122    1.5585    0.5628 H       1  UNL1        0.0629
     65 H          -0.1451    3.3723   -0.3928 H       1  UNL1        0.1512
     66 H           1.5728    2.8519   -4.1935 H       1  UNL1        0.1561
@<TRIPOS>BOND
     1     1     2    1
     2     2     3    2
     3     3     4    1
     4     4     5    2
     5     4     6   am
     6     6     7    1
     7     7     8   ar
     8     8     9   ar
     9     9    10   ar
    10    10    11   ar
    11    11    12   ar
    12    12    13   ar
    13    13    14   ar
    14    14    15   ar
    15     3    16    1
    16    16    17    1
    17    17    18   ar
    18    18    19   ar
    19    19    20   ar
    20    20    21    1
    21    20    22   ar
    22    22    23    1
    23    23    24    2
    24    23    25   am
    25    25    26    1
    26    26    27    1
    27    27    28   ar
    28    28    29    1
    29    28    30   ar
    30    30    31   ar
    31    31    32   ar
    32    32    33   ar
    33    33    34    1
    34    22    35   ar
    35    16    36    1
    36    36    37   am
    37    37    38    2
    38    37    39   am
    39    39     2    1
    40    15     7   ar
    41    35    17   ar
    42    14    10   ar
    43    33    27   ar
    44     1    40    1
    45     1    41    1
    46     1    42    1
    47     6    43    1
    48     8    44    1
    49     9    45    1
    50    11    46    1
    51    13    47    1
    52    15    48    1
    53    16    49    1
    54    18    50    1
    55    19    51    1
    56    25    52    1
    57    26    53    1
    58    26    54    1
    59    29    55    1
    60    29    56    1
    61    29    57    1
    62    30    58    1
    63    31    59    1
    64    32    60    1
    65    34    61    1
    66    34    62    1
    67    34    63    1
    68    35    64    1
    69    36    65    1
    70    39    66    1
