
     RDKit          3D

 58 62  0  0  0  0  0  0  0  0999 V2000
    7.3563   -4.3977    0.4303 C   0  0  0  0  0  0  0  0  0  0  0  0
    7.0079   -3.1488    0.9960 O   0  0  0  0  0  0  0  0  0  0  0  0
    5.7604   -2.6184    0.7463 C   0  0  0  0  0  0  0  0  0  0  0  0
    5.3822   -1.3960    1.2833 C   0  0  0  0  0  0  0  0  0  0  0  0
    4.1321   -0.8498    1.0416 C   0  0  0  0  0  0  0  0  0  0  0  0
    3.2291   -1.5141    0.2558 C   0  0  0  0  0  0  0  0  0  0  0  0
    1.9418   -1.2475   -0.1639 C   0  0  0  0  0  0  0  0  0  0  0  0
    1.1734   -0.0844    0.1651 N   0  0  0  0  0  0  0  0  0  0  0  0
   -0.0214   -0.0507    0.7685 C   0  0  0  0  0  0  0  0  0  0  0  0
   -0.6527   -1.1000    1.1426 O   0  0  0  0  0  0  0  0  0  0  0  0
   -0.4670    1.2011    0.9292 N   0  0  0  0  0  0  0  0  0  0  0  0
   -1.7179    1.6154    1.5445 C   0  0  0  0  0  0  0  0  0  0  0  0
   -2.8378    1.7020    0.5797 C   0  0  0  0  0  0  0  0  0  0  0  0
   -3.1251    2.8776   -0.0718 C   0  0  0  0  0  0  0  0  0  0  0  0
   -4.1807    2.9709   -0.9873 C   0  0  0  0  0  0  0  0  0  0  0  0
   -4.9678    1.8724   -1.2612 C   0  0  0  0  0  0  0  0  0  0  0  0
   -6.2858    2.0149   -2.4134 Cl  0  0  0  0  0  0  0  0  0  0  0  0
   -4.6910    0.6761   -0.6112 C   0  0  0  0  0  0  0  0  0  0  0  0
   -5.4940   -0.3921   -0.9091 O   0  0  0  0  0  0  0  0  0  0  0  0
   -5.4603   -1.6862   -0.4282 C   0  0  1  0  0  0  0  0  0  0  0  0
   -6.7244   -2.0788    0.3201 C   0  0  0  0  0  0  0  0  0  0  0  0
   -5.1835   -2.6956   -1.4988 C   0  0  0  0  0  0  0  0  0  0  0  0
   -5.0150   -2.2993   -2.6780 O   0  0  0  0  0  0  0  0  0  0  0  0
   -5.1078   -4.0464   -1.2307 O   0  0  0  0  0  0  0  0  0  0  0  0
   -3.6500    0.6013    0.2856 C   0  0  0  0  0  0  0  0  0  0  0  0
    0.4670    2.0249    0.4137 C   0  0  0  0  0  0  0  0  0  0  0  0
    0.5627    3.4013    0.2955 C   0  0  0  0  0  0  0  0  0  0  0  0
    1.6734    3.9344   -0.2935 C   0  0  0  0  0  0  0  0  0  0  0  0
    1.8511    5.4037   -0.4579 C   0  0  0  0  0  0  0  0  0  0  0  0
    1.4420    5.7397   -1.7463 F   0  0  0  0  0  0  0  0  0  0  0  0
    3.1846    5.6911   -0.3263 F   0  0  0  0  0  0  0  0  0  0  0  0
    1.0744    6.0956    0.4665 F   0  0  0  0  0  0  0  0  0  0  0  0
    2.7047    3.1278   -0.7743 C   0  0  0  0  0  0  0  0  0  0  0  0
    2.6127    1.7622   -0.6583 C   0  0  0  0  0  0  0  0  0  0  0  0
    1.4789    1.2059   -0.0565 C   0  0  0  0  0  0  0  0  0  0  0  0
    1.5941   -2.3002   -0.9265 N   0  0  0  0  0  0  0  0  0  0  0  0
    2.5812   -3.1551   -0.9801 O   0  0  0  0  0  0  0  0  0  0  0  0
    3.6017   -2.7415   -0.2867 C   0  0  0  0  0  0  0  0  0  0  0  0
    4.8482   -3.2848   -0.0448 C   0  0  0  0  0  0  0  0  0  0  0  0
    7.2825   -4.3154   -0.6892 H   0  0  0  0  0  0  0  0  0  0  0  0
    8.3529   -4.7347    0.7362 H   0  0  0  0  0  0  0  0  0  0  0  0
    6.5862   -5.1771    0.6962 H   0  0  0  0  0  0  0  0  0  0  0  0
    6.0776   -0.8391    1.9147 H   0  0  0  0  0  0  0  0  0  0  0  0
    3.8267    0.1038    1.4560 H   0  0  0  0  0  0  0  0  0  0  0  0
   -1.9818    0.8280    2.2962 H   0  0  0  0  0  0  0  0  0  0  0  0
   -1.6037    2.5527    2.1299 H   0  0  0  0  0  0  0  0  0  0  0  0
   -2.5294    3.7537    0.1216 H   0  0  0  0  0  0  0  0  0  0  0  0
   -4.3833    3.9116   -1.4858 H   0  0  0  0  0  0  0  0  0  0  0  0
   -4.6344   -1.7920    0.2995 H   0  0  0  0  0  0  0  0  0  0  0  0
   -6.9354   -1.2940    1.0718 H   0  0  0  0  0  0  0  0  0  0  0  0
   -6.4747   -3.0027    0.8860 H   0  0  0  0  0  0  0  0  0  0  0  0
   -7.5661   -2.2671   -0.3721 H   0  0  0  0  0  0  0  0  0  0  0  0
   -4.5718   -4.6969   -1.8134 H   0  0  0  0  0  0  0  0  0  0  0  0
   -3.3924   -0.3027    0.8172 H   0  0  0  0  0  0  0  0  0  0  0  0
   -0.2222    4.0238    0.6631 H   0  0  0  0  0  0  0  0  0  0  0  0
    3.5789    3.5733   -1.2392 H   0  0  0  0  0  0  0  0  0  0  0  0
    3.3785    1.0884   -1.0116 H   0  0  0  0  0  0  0  0  0  0  0  0
    5.1343   -4.2449   -0.4716 H   0  0  0  0  0  0  0  0  0  0  0  0
  1  2  1  0
  2  3  1  0
  3  4  2  0
  4  5  1  0
  5  6  2  0
  6  7  1  0
  7  8  1  0
  8  9  1  0
  9 10  2  0
  9 11  1  0
 11 12  1  0
 12 13  1  0
 13 14  2  0
 14 15  1  0
 15 16  2  0
 16 17  1  0
 16 18  1  0
 18 19  1  0
 19 20  1  0
 20 21  1  0
 20 22  1  0
 22 23  2  0
 22 24  1  0
 18 25  2  0
 11 26  1  0
 26 27  2  0
 27 28  1  0
 28 29  1  0
 29 30  1  0
 29 31  1  0
 29 32  1  0
 28 33  2  0
 33 34  1  0
 34 35  2  0
  7 36  2  0
 36 37  1  0
 37 38  1  0
 38 39  2  0
 39  3  1  0
 38  6  1  0
 35  8  1  0
 25 13  1  0
 35 26  1  0
  1 40  1  0
  1 41  1  0
  1 42  1  0
  4 43  1  0
  5 44  1  0
 12 45  1  0
 12 46  1  0
 14 47  1  0
 15 48  1  0
 20 49  1  1
 21 50  1  0
 21 51  1  0
 21 52  1  0
 24 53  1  0
 25 54  1  0
 27 55  1  0
 33 56  1  0
 34 57  1  0
 39 58  1  0
M  END
$$$$
