@<TRIPOS>MOLECULE
*****
 58 62 0 0 0
SMALL
GASTEIGER

@<TRIPOS>ATOM
      1 C           7.3563   -4.3977    0.4303 C.3     1  UNL1        0.0788
      2 O           7.0079   -3.1488    0.9960 O.3     1  UNL1       -0.4950
      3 C           5.7604   -2.6184    0.7463 C.ar    1  UNL1        0.1237
      4 C           5.3822   -1.3960    1.2833 C.ar    1  UNL1       -0.0190
      5 C           4.1321   -0.8498    1.0416 C.ar    1  UNL1       -0.0439
      6 C           3.2291   -1.5141    0.2558 C.ar    1  UNL1        0.0662
      7 C           1.9418   -1.2475   -0.1639 C.ar    1  UNL1        0.1922
      8 N           1.1734   -0.0844    0.1651 N.ar    1  UNL1       -0.2413
      9 C          -0.0214   -0.0507    0.7685 C.ar    1  UNL1        0.3362
     10 O          -0.6527   -1.1000    1.1426 O.2     1  UNL1       -0.2459
     11 N          -0.4670    1.2011    0.9292 N.ar    1  UNL1       -0.2873
     12 C          -1.7179    1.6154    1.5445 C.3     1  UNL1        0.0533
     13 C          -2.8378    1.7020    0.5797 C.ar    1  UNL1       -0.0241
     14 C          -3.1251    2.8776   -0.0718 C.ar    1  UNL1       -0.0553
     15 C          -4.1807    2.9709   -0.9873 C.ar    1  UNL1       -0.0395
     16 C          -4.9678    1.8724   -1.2612 C.ar    1  UNL1        0.0826
     17 CL         -6.2858    2.0149   -2.4134 Cl      1  UNL1       -0.0798
     18 C          -4.6910    0.6761   -0.6112 C.ar    1  UNL1        0.1402
     19 O          -5.4940   -0.3921   -0.9091 O.3     1  UNL1       -0.4765
     20 C          -5.4603   -1.6862   -0.4282 C.3     1  UNL1        0.1931
     21 C          -6.7244   -2.0788    0.3201 C.3     1  UNL1       -0.0172
     22 C          -5.1835   -2.6956   -1.4988 C.2     1  UNL1        0.3456
     23 O          -5.0150   -2.2993   -2.6780 O.2     1  UNL1       -0.2468
     24 O          -5.1078   -4.0464   -1.2307 O.3     1  UNL1       -0.4781
     25 C          -3.6500    0.6013    0.2856 C.ar    1  UNL1       -0.0136
     26 C           0.4670    2.0249    0.4137 C.ar    1  UNL1        0.0712
     27 C           0.5627    3.4013    0.2955 C.ar    1  UNL1       -0.0244
     28 C           1.6734    3.9344   -0.2935 C.ar    1  UNL1        0.0569
     29 C           1.8511    5.4037   -0.4579 C.3     1  UNL1        0.4175
     30 F           1.4420    5.7397   -1.7463 F       1  UNL1       -0.1659
     31 F           3.1846    5.6911   -0.3263 F       1  UNL1       -0.1659
     32 F           1.0744    6.0956    0.4665 F       1  UNL1       -0.1659
     33 C           2.7047    3.1278   -0.7743 C.ar    1  UNL1       -0.0480
     34 C           2.6127    1.7622   -0.6583 C.ar    1  UNL1       -0.0351
     35 C           1.4789    1.2059   -0.0565 C.ar    1  UNL1        0.0766
     36 N           1.5941   -2.3002   -0.9265 N.ar    1  UNL1       -0.0587
     37 O           2.5812   -3.1551   -0.9801 O.2     1  UNL1       -0.3525
     38 C           3.6017   -2.7415   -0.2867 C.ar    1  UNL1        0.1728
     39 C           4.8482   -3.2848   -0.0448 C.ar    1  UNL1        0.0257
     40 H           7.2825   -4.3154   -0.6892 H       1  UNL1        0.0660
     41 H           8.3529   -4.7347    0.7362 H       1  UNL1        0.0660
     42 H           6.5862   -5.1771    0.6962 H       1  UNL1        0.0660
     43 H           6.0776   -0.8391    1.9147 H       1  UNL1        0.0654
     44 H           3.8267    0.1038    1.4560 H       1  UNL1        0.0627
     45 H          -1.9818    0.8280    2.2962 H       1  UNL1        0.0543
     46 H          -1.6037    2.5527    2.1299 H       1  UNL1        0.0543
     47 H          -2.5294    3.7537    0.1216 H       1  UNL1        0.0621
     48 H          -4.3833    3.9116   -1.4858 H       1  UNL1        0.0633
     49 H          -4.6344   -1.7920    0.2995 H       1  UNL1        0.0849
     50 H          -6.9354   -1.2940    1.0718 H       1  UNL1        0.0271
     51 H          -6.4747   -3.0027    0.8860 H       1  UNL1        0.0271
     52 H          -7.5661   -2.2671   -0.3721 H       1  UNL1        0.0271
     53 H          -4.5718   -4.6969   -1.8134 H       1  UNL1        0.2952
     54 H          -3.3924   -0.3027    0.8172 H       1  UNL1        0.0658
     55 H          -0.2222    4.0238    0.6631 H       1  UNL1        0.0644
     56 H           3.5789    3.5733   -1.2392 H       1  UNL1        0.0624
     57 H           3.3785    1.0884   -1.0116 H       1  UNL1        0.0639
     58 H           5.1343   -4.2449   -0.4716 H       1  UNL1        0.0692
@<TRIPOS>BOND
     1     1     2    1
     2     2     3    1
     3     3     4   ar
     4     4     5   ar
     5     5     6   ar
     6     6     7   ar
     7     7     8    1
     8     8     9   ar
     9     9    10    2
    10     9    11   ar
    11    11    12    1
    12    12    13    1
    13    13    14   ar
    14    14    15   ar
    15    15    16   ar
    16    16    17    1
    17    16    18   ar
    18    18    19    1
    19    19    20    1
    20    20    21    1
    21    20    22    1
    22    22    23    2
    23    22    24    1
    24    18    25   ar
    25    11    26   ar
    26    26    27   ar
    27    27    28   ar
    28    28    29    1
    29    29    30    1
    30    29    31    1
    31    29    32    1
    32    28    33   ar
    33    33    34   ar
    34    34    35   ar
    35     7    36   ar
    36    36    37   ar
    37    37    38   ar
    38    38    39   ar
    39    39     3   ar
    40    38     6   ar
    41    35     8   ar
    42    25    13   ar
    43    35    26   ar
    44     1    40    1
    45     1    41    1
    46     1    42    1
    47     4    43    1
    48     5    44    1
    49    12    45    1
    50    12    46    1
    51    14    47    1
    52    15    48    1
    53    20    49    1
    54    21    50    1
    55    21    51    1
    56    21    52    1
    57    24    53    1
    58    25    54    1
    59    27    55    1
    60    33    56    1
    61    34    57    1
    62    39    58    1
