@<TRIPOS>MOLECULE
*****
 67 71 0 0 0
SMALL
GASTEIGER

@<TRIPOS>ATOM
      1 C           5.8301    2.1253    2.6569 C.3     1  UNL1       -0.0221
      2 C           4.4401    2.4359    2.2183 C.ar    1  UNL1        0.0459
      3 N           3.8103    3.6239    2.2141 N.ar    1  UNL1       -0.2805
      4 N           2.6102    3.4248    1.7486 N.ar    1  UNL1       -0.1728
      5 C           2.4201    2.1095    1.4364 C.ar    1  UNL1        0.1070
      6 C           3.5823    1.4688    1.7323 C.ar    1  UNL1        0.0874
      7 C           3.6584    0.1160    1.5081 C.ar    1  UNL1        0.2628
      8 O           4.7183   -0.4872    1.7744 O.2     1  UNL1       -0.2669
      9 N           2.6308   -0.6261    1.0033 N.ar    1  UNL1       -0.3047
     10 C           2.7943   -2.0506    0.7977 C.3     1  UNL1        0.0590
     11 C           3.3396   -2.3486   -0.5805 C.3     1  UNL1        0.1310
     12 F           2.5466   -1.9041   -1.6075 F       1  UNL1       -0.2423
     13 C           3.5527   -3.8348   -0.7778 C.3     1  UNL1        0.0262
     14 N           4.0757   -4.1245   -2.0985 N.3     1  UNL1       -0.3274
     15 C           1.4972    0.0345    0.7216 C.ar    1  UNL1        0.0545
     16 C           0.4015   -0.6272    0.2108 C.ar    1  UNL1       -0.0337
     17 C          -0.8077    0.0169   -0.0991 C.ar    1  UNL1       -0.0389
     18 C          -1.8648   -0.8236   -0.5803 C.3     1  UNL1       -0.0155
     19 C          -2.4623   -1.6653    0.5726 C.3     1  UNL1       -0.0462
     20 C          -3.6073   -2.4259   -0.0579 C.3     1  UNL1       -0.0525
     21 C          -3.0137   -3.5289   -0.8865 C.3     1  UNL1       -0.0530
     22 C          -1.5487   -3.2499   -1.1628 C.3     1  UNL1       -0.0525
     23 C          -1.3142   -1.8173   -1.5863 C.3     1  UNL1       -0.0462
     24 C          -0.9349    1.3590    0.1026 C.ar    1  UNL1       -0.0401
     25 C          -2.1780    2.0394   -0.2541 C.3     1  UNL1       -0.0156
     26 C          -3.3496    1.8397    0.6545 C.3     1  UNL1       -0.0462
     27 C          -4.2753    3.0512    0.4823 C.3     1  UNL1       -0.0525
     28 C          -4.5653    3.2915   -0.9837 C.3     1  UNL1       -0.0530
     29 C          -3.3278    3.5424   -1.7968 C.3     1  UNL1       -0.0525
     30 C          -2.4679    2.2642   -1.6869 C.3     1  UNL1       -0.0462
     31 C           0.1894    2.0337    0.6274 C.ar    1  UNL1       -0.0468
     32 C           1.3648    1.3938    0.9268 C.ar    1  UNL1        0.0267
     33 H           6.2652    1.2970    2.0776 H       1  UNL1        0.0293
     34 H           5.7738    1.8554    3.7337 H       1  UNL1        0.0293
     35 H           6.4544    3.0454    2.5951 H       1  UNL1        0.0293
     36 H           4.2559    4.5246    2.5405 H       1  UNL1        0.1885
     37 H           1.9043   -2.6547    0.9614 H       1  UNL1        0.0522
     38 H           3.6124   -2.3746    1.5091 H       1  UNL1        0.0522
     39 H           4.3502   -1.8586   -0.7003 H       1  UNL1        0.0682
     40 H           4.2950   -4.2267   -0.0436 H       1  UNL1        0.0451
     41 H           2.5938   -4.3814   -0.6645 H       1  UNL1        0.0451
     42 H           4.8139   -3.4130   -2.3418 H       1  UNL1        0.1183
     43 H           3.3052   -4.0443   -2.7951 H       1  UNL1        0.1183
     44 H           0.4928   -1.6925    0.0526 H       1  UNL1        0.0641
     45 H          -2.7417   -0.3881   -1.0327 H       1  UNL1        0.0349
     46 H          -1.6935   -2.3381    0.9997 H       1  UNL1        0.0271
     47 H          -2.8781   -0.9611    1.3045 H       1  UNL1        0.0271
     48 H          -4.3572   -2.7639    0.6641 H       1  UNL1        0.0265
     49 H          -4.1186   -1.7288   -0.7755 H       1  UNL1        0.0265
     50 H          -3.1151   -4.4647   -0.3280 H       1  UNL1        0.0265
     51 H          -3.5814   -3.6860   -1.8497 H       1  UNL1        0.0265
     52 H          -1.3001   -3.8715   -2.0726 H       1  UNL1        0.0265
     53 H          -0.8845   -3.6059   -0.3743 H       1  UNL1        0.0265
     54 H          -0.2595   -1.6883   -1.8193 H       1  UNL1        0.0271
     55 H          -1.8417   -1.7273   -2.5845 H       1  UNL1        0.0271
     56 H          -1.9300    3.1377    0.0594 H       1  UNL1        0.0349
     57 H          -2.9930    1.8581    1.6934 H       1  UNL1        0.0271
     58 H          -3.9712    0.9779    0.4836 H       1  UNL1        0.0271
     59 H          -3.8663    3.9536    0.9344 H       1  UNL1        0.0265
     60 H          -5.2425    2.7825    0.9558 H       1  UNL1        0.0265
     61 H          -5.1953    4.1968   -1.0388 H       1  UNL1        0.0265
     62 H          -5.1273    2.4662   -1.4431 H       1  UNL1        0.0265
     63 H          -3.6469    3.6545   -2.8499 H       1  UNL1        0.0265
     64 H          -2.7260    4.3866   -1.4263 H       1  UNL1        0.0265
     65 H          -3.0196    1.5433   -2.2569 H       1  UNL1        0.0271
     66 H          -1.4890    2.4354   -2.1967 H       1  UNL1        0.0271
     67 H           0.1170    3.0978    0.7987 H       1  UNL1        0.0628
@<TRIPOS>BOND
     1     1     2    1
     2     2     3   ar
     3     3     4   ar
     4     4     5   ar
     5     5     6   ar
     6     6     7   ar
     7     7     8    2
     8     7     9   ar
     9     9    10    1
    10    10    11    1
    11    11    12    1
    12    11    13    1
    13    13    14    1
    14     9    15   ar
    15    15    16   ar
    16    16    17   ar
    17    17    18    1
    18    18    19    1
    19    19    20    1
    20    20    21    1
    21    21    22    1
    22    22    23    1
    23    17    24   ar
    24    24    25    1
    25    25    26    1
    26    26    27    1
    27    27    28    1
    28    28    29    1
    29    29    30    1
    30    24    31   ar
    31    31    32   ar
    32     6     2   ar
    33    32    15   ar
    34    32     5   ar
    35    23    18    1
    36    30    25    1
    37     1    33    1
    38     1    34    1
    39     1    35    1
    40     3    36    1
    41    10    37    1
    42    10    38    1
    43    11    39    1
    44    13    40    1
    45    13    41    1
    46    14    42    1
    47    14    43    1
    48    16    44    1
    49    18    45    1
    50    19    46    1
    51    19    47    1
    52    20    48    1
    53    20    49    1
    54    21    50    1
    55    21    51    1
    56    22    52    1
    57    22    53    1
    58    23    54    1
    59    23    55    1
    60    25    56    1
    61    26    57    1
    62    26    58    1
    63    27    59    1
    64    27    60    1
    65    28    61    1
    66    28    62    1
    67    29    63    1
    68    29    64    1
    69    30    65    1
    70    30    66    1
    71    31    67    1
