
     RDKit          3D

 67 71  0  0  0  0  0  0  0  0999 V2000
    5.8301    2.1253    2.6569 C   0  0  0  0  0  0  0  0  0  0  0  0
    4.4401    2.4359    2.2183 C   0  0  0  0  0  0  0  0  0  0  0  0
    3.8103    3.6239    2.2141 N   0  0  0  0  0  0  0  0  0  0  0  0
    2.6102    3.4248    1.7486 N   0  0  0  0  0  0  0  0  0  0  0  0
    2.4201    2.1095    1.4364 C   0  0  0  0  0  0  0  0  0  0  0  0
    3.5823    1.4688    1.7323 C   0  0  0  0  0  0  0  0  0  0  0  0
    3.6584    0.1160    1.5081 C   0  0  0  0  0  0  0  0  0  0  0  0
    4.7183   -0.4872    1.7744 O   0  0  0  0  0  0  0  0  0  0  0  0
    2.6308   -0.6261    1.0033 N   0  0  0  0  0  0  0  0  0  0  0  0
    2.7943   -2.0506    0.7977 C   0  0  0  0  0  0  0  0  0  0  0  0
    3.3396   -2.3486   -0.5805 C   0  0  2  0  0  0  0  0  0  0  0  0
    2.5466   -1.9041   -1.6075 F   0  0  0  0  0  0  0  0  0  0  0  0
    3.5527   -3.8348   -0.7778 C   0  0  0  0  0  0  0  0  0  0  0  0
    4.0757   -4.1245   -2.0985 N   0  0  0  0  0  0  0  0  0  0  0  0
    1.4972    0.0345    0.7216 C   0  0  0  0  0  0  0  0  0  0  0  0
    0.4015   -0.6272    0.2108 C   0  0  0  0  0  0  0  0  0  0  0  0
   -0.8077    0.0169   -0.0991 C   0  0  0  0  0  0  0  0  0  0  0  0
   -1.8648   -0.8236   -0.5803 C   0  0  0  0  0  0  0  0  0  0  0  0
   -2.4623   -1.6653    0.5726 C   0  0  0  0  0  0  0  0  0  0  0  0
   -3.6073   -2.4259   -0.0579 C   0  0  0  0  0  0  0  0  0  0  0  0
   -3.0137   -3.5289   -0.8865 C   0  0  0  0  0  0  0  0  0  0  0  0
   -1.5487   -3.2499   -1.1628 C   0  0  0  0  0  0  0  0  0  0  0  0
   -1.3142   -1.8173   -1.5863 C   0  0  0  0  0  0  0  0  0  0  0  0
   -0.9349    1.3590    0.1026 C   0  0  0  0  0  0  0  0  0  0  0  0
   -2.1780    2.0394   -0.2541 C   0  0  0  0  0  0  0  0  0  0  0  0
   -3.3496    1.8397    0.6545 C   0  0  0  0  0  0  0  0  0  0  0  0
   -4.2753    3.0512    0.4823 C   0  0  0  0  0  0  0  0  0  0  0  0
   -4.5653    3.2915   -0.9837 C   0  0  0  0  0  0  0  0  0  0  0  0
   -3.3278    3.5424   -1.7968 C   0  0  0  0  0  0  0  0  0  0  0  0
   -2.4679    2.2642   -1.6869 C   0  0  0  0  0  0  0  0  0  0  0  0
    0.1894    2.0337    0.6274 C   0  0  0  0  0  0  0  0  0  0  0  0
    1.3648    1.3938    0.9268 C   0  0  0  0  0  0  0  0  0  0  0  0
    6.2652    1.2970    2.0776 H   0  0  0  0  0  0  0  0  0  0  0  0
    5.7738    1.8554    3.7337 H   0  0  0  0  0  0  0  0  0  0  0  0
    6.4544    3.0454    2.5951 H   0  0  0  0  0  0  0  0  0  0  0  0
    4.2559    4.5246    2.5405 H   0  0  0  0  0  0  0  0  0  0  0  0
    1.9043   -2.6547    0.9614 H   0  0  0  0  0  0  0  0  0  0  0  0
    3.6124   -2.3746    1.5091 H   0  0  0  0  0  0  0  0  0  0  0  0
    4.3502   -1.8586   -0.7003 H   0  0  0  0  0  0  0  0  0  0  0  0
    4.2950   -4.2267   -0.0436 H   0  0  0  0  0  0  0  0  0  0  0  0
    2.5938   -4.3814   -0.6645 H   0  0  0  0  0  0  0  0  0  0  0  0
    4.8139   -3.4130   -2.3418 H   0  0  0  0  0  0  0  0  0  0  0  0
    3.3052   -4.0443   -2.7951 H   0  0  0  0  0  0  0  0  0  0  0  0
    0.4928   -1.6925    0.0526 H   0  0  0  0  0  0  0  0  0  0  0  0
   -2.7417   -0.3881   -1.0327 H   0  0  0  0  0  0  0  0  0  0  0  0
   -1.6935   -2.3381    0.9997 H   0  0  0  0  0  0  0  0  0  0  0  0
   -2.8781   -0.9611    1.3045 H   0  0  0  0  0  0  0  0  0  0  0  0
   -4.3572   -2.7639    0.6641 H   0  0  0  0  0  0  0  0  0  0  0  0
   -4.1186   -1.7288   -0.7755 H   0  0  0  0  0  0  0  0  0  0  0  0
   -3.1151   -4.4647   -0.3280 H   0  0  0  0  0  0  0  0  0  0  0  0
   -3.5814   -3.6860   -1.8497 H   0  0  0  0  0  0  0  0  0  0  0  0
   -1.3001   -3.8715   -2.0726 H   0  0  0  0  0  0  0  0  0  0  0  0
   -0.8845   -3.6059   -0.3743 H   0  0  0  0  0  0  0  0  0  0  0  0
   -0.2595   -1.6883   -1.8193 H   0  0  0  0  0  0  0  0  0  0  0  0
   -1.8417   -1.7273   -2.5845 H   0  0  0  0  0  0  0  0  0  0  0  0
   -1.9300    3.1377    0.0594 H   0  0  0  0  0  0  0  0  0  0  0  0
   -2.9930    1.8581    1.6934 H   0  0  0  0  0  0  0  0  0  0  0  0
   -3.9712    0.9779    0.4836 H   0  0  0  0  0  0  0  0  0  0  0  0
   -3.8663    3.9536    0.9344 H   0  0  0  0  0  0  0  0  0  0  0  0
   -5.2425    2.7825    0.9558 H   0  0  0  0  0  0  0  0  0  0  0  0
   -5.1953    4.1968   -1.0388 H   0  0  0  0  0  0  0  0  0  0  0  0
   -5.1273    2.4662   -1.4431 H   0  0  0  0  0  0  0  0  0  0  0  0
   -3.6469    3.6545   -2.8499 H   0  0  0  0  0  0  0  0  0  0  0  0
   -2.7260    4.3866   -1.4263 H   0  0  0  0  0  0  0  0  0  0  0  0
   -3.0196    1.5433   -2.2569 H   0  0  0  0  0  0  0  0  0  0  0  0
   -1.4890    2.4354   -2.1967 H   0  0  0  0  0  0  0  0  0  0  0  0
    0.1170    3.0978    0.7987 H   0  0  0  0  0  0  0  0  0  0  0  0
  1  2  1  0
  2  3  1  0
  3  4  1  0
  4  5  2  0
  5  6  1  0
  6  7  1  0
  7  8  2  0
  7  9  1  0
  9 10  1  0
 10 11  1  0
 11 12  1  0
 11 13  1  0
 13 14  1  0
  9 15  1  0
 15 16  2  0
 16 17  1  0
 17 18  1  0
 18 19  1  0
 19 20  1  0
 20 21  1  0
 21 22  1  0
 22 23  1  0
 17 24  2  0
 24 25  1  0
 25 26  1  0
 26 27  1  0
 27 28  1  0
 28 29  1  0
 29 30  1  0
 24 31  1  0
 31 32  2  0
  6  2  2  0
 32 15  1  0
 32  5  1  0
 23 18  1  0
 30 25  1  0
  1 33  1  0
  1 34  1  0
  1 35  1  0
  3 36  1  0
 10 37  1  0
 10 38  1  0
 11 39  1  1
 13 40  1  0
 13 41  1  0
 14 42  1  0
 14 43  1  0
 16 44  1  0
 18 45  1  0
 19 46  1  0
 19 47  1  0
 20 48  1  0
 20 49  1  0
 21 50  1  0
 21 51  1  0
 22 52  1  0
 22 53  1  0
 23 54  1  0
 23 55  1  0
 25 56  1  0
 26 57  1  0
 26 58  1  0
 27 59  1  0
 27 60  1  0
 28 61  1  0
 28 62  1  0
 29 63  1  0
 29 64  1  0
 30 65  1  0
 30 66  1  0
 31 67  1  0
M  END
$$$$
