
     RDKit          3D

 55 58  0  0  0  0  0  0  0  0999 V2000
    8.1558    0.3281    1.8494 C   0  0  0  0  0  0  0  0  0  0  0  0
    7.8873    0.1404    0.3715 C   0  0  0  0  0  0  0  0  0  0  0  0
    6.4863   -0.3206    0.1411 C   0  0  0  0  0  0  0  0  0  0  0  0
    5.4284    0.5169   -0.0483 C   0  0  0  0  0  0  0  0  0  0  0  0
    4.2679   -0.2380   -0.2326 C   0  0  0  0  0  0  0  0  0  0  0  0
    2.9734    0.3628   -0.4589 C   0  0  0  0  0  0  0  0  0  0  0  0
    2.8974    1.6425   -0.4959 O   0  0  0  0  0  0  0  0  0  0  0  0
    1.7419   -0.3095   -0.6505 N   0  0  0  0  0  0  0  0  0  0  0  0
    0.4870    0.3837   -0.8722 C   0  0  0  0  0  0  0  0  0  0  0  0
   -0.1259    0.0584   -2.1994 C   0  0  0  0  0  0  0  0  0  0  0  0
   -1.3366    0.8815   -2.4691 C   0  0  0  0  0  0  0  0  0  0  0  0
   -2.0545    1.3902   -1.2603 C   0  0  0  0  0  0  0  0  0  0  0  0
   -1.7797    0.6219   -0.0244 C   0  0  0  0  0  0  0  0  0  0  0  0
   -0.5116    0.1175    0.1747 C   0  0  0  0  0  0  0  0  0  0  0  0
   -0.5763   -0.5318    1.3896 C   0  0  0  0  0  0  0  0  0  0  0  0
   -1.8310   -0.3951    1.8500 N   0  0  0  0  0  0  0  0  0  0  0  0
   -2.5750    0.3046    1.0005 N   0  0  0  0  0  0  0  0  0  0  0  0
   -3.9570    0.6650    1.1269 C   0  0  0  0  0  0  0  0  0  0  0  0
   -4.2901    1.8753    1.7005 C   0  0  0  0  0  0  0  0  0  0  0  0
   -5.6201    2.2253    1.8237 C   0  0  0  0  0  0  0  0  0  0  0  0
   -6.5923    1.3581    1.3707 C   0  0  0  0  0  0  0  0  0  0  0  0
   -6.2855    0.1432    0.7938 C   0  0  0  0  0  0  0  0  0  0  0  0
   -7.3335   -0.7999    0.3014 C   0  0  0  0  0  0  0  0  0  0  0  0
   -4.9526   -0.1849    0.6814 C   0  0  0  0  0  0  0  0  0  0  0  0
   -4.5566   -1.4982    0.0604 C   0  0  0  0  0  0  0  0  0  0  0  0
    4.6736   -1.5121   -0.1467 N   0  0  0  0  0  0  0  0  0  0  0  0
    3.8541   -2.6727   -0.2685 C   0  0  0  0  0  0  0  0  0  0  0  0
    6.0001   -1.5490    0.0766 N   0  0  0  0  0  0  0  0  0  0  0  0
    7.1610    0.4974    2.3490 H   0  0  0  0  0  0  0  0  0  0  0  0
    8.7690    1.2091    2.0717 H   0  0  0  0  0  0  0  0  0  0  0  0
    8.5552   -0.6195    2.2360 H   0  0  0  0  0  0  0  0  0  0  0  0
    7.9981    1.1289   -0.1142 H   0  0  0  0  0  0  0  0  0  0  0  0
    8.6072   -0.5717   -0.0896 H   0  0  0  0  0  0  0  0  0  0  0  0
    5.5063    1.6166   -0.0505 H   0  0  0  0  0  0  0  0  0  0  0  0
    1.7591   -1.3450   -0.6272 H   0  0  0  0  0  0  0  0  0  0  0  0
    0.7086    1.4711   -0.8558 H   0  0  0  0  0  0  0  0  0  0  0  0
    0.6581    0.2937   -2.9771 H   0  0  0  0  0  0  0  0  0  0  0  0
   -0.3468   -1.0144   -2.3309 H   0  0  0  0  0  0  0  0  0  0  0  0
   -2.0321    0.2671   -3.1153 H   0  0  0  0  0  0  0  0  0  0  0  0
   -1.0589    1.7403   -3.1464 H   0  0  0  0  0  0  0  0  0  0  0  0
   -1.7759    2.4686   -1.1426 H   0  0  0  0  0  0  0  0  0  0  0  0
   -3.1578    1.3105   -1.4749 H   0  0  0  0  0  0  0  0  0  0  0  0
    0.2773   -1.0359    1.8224 H   0  0  0  0  0  0  0  0  0  0  0  0
   -3.4913    2.5424    2.0507 H   0  0  0  0  0  0  0  0  0  0  0  0
   -5.8610    3.1792    2.2766 H   0  0  0  0  0  0  0  0  0  0  0  0
   -7.6123    1.6525    1.4777 H   0  0  0  0  0  0  0  0  0  0  0  0
   -7.2366   -1.0262   -0.7658 H   0  0  0  0  0  0  0  0  0  0  0  0
   -7.2200   -1.7209    0.9413 H   0  0  0  0  0  0  0  0  0  0  0  0
   -8.3141   -0.3711    0.5506 H   0  0  0  0  0  0  0  0  0  0  0  0
   -3.5965   -1.3871   -0.4840 H   0  0  0  0  0  0  0  0  0  0  0  0
   -4.5052   -2.2511    0.8696 H   0  0  0  0  0  0  0  0  0  0  0  0
   -5.3502   -1.8035   -0.6321 H   0  0  0  0  0  0  0  0  0  0  0  0
    3.4242   -2.8277   -1.3001 H   0  0  0  0  0  0  0  0  0  0  0  0
    4.5384   -3.5772   -0.1729 H   0  0  0  0  0  0  0  0  0  0  0  0
    3.1210   -2.8297    0.5414 H   0  0  0  0  0  0  0  0  0  0  0  0
  1  2  1  0
  2  3  1  0
  3  4  1  0
  4  5  2  0
  5  6  1  0
  6  7  2  0
  6  8  1  0
  8  9  1  0
  9 10  1  0
 10 11  1  0
 11 12  1  0
 12 13  1  0
 13 14  2  0
 14 15  1  0
 15 16  2  0
 16 17  1  0
 17 18  1  0
 18 19  2  0
 19 20  1  0
 20 21  2  0
 21 22  1  0
 22 23  1  0
 22 24  2  0
 24 25  1  0
  5 26  1  0
 26 27  1  0
 26 28  1  0
 28  3  2  0
 14  9  1  0
 24 18  1  0
 17 13  1  0
  1 29  1  0
  1 30  1  0
  1 31  1  0
  2 32  1  0
  2 33  1  0
  4 34  1  0
  8 35  1  0
  9 36  1  0
 10 37  1  0
 10 38  1  0
 11 39  1  0
 11 40  1  0
 12 41  1  0
 12 42  1  0
 15 43  1  0
 19 44  1  0
 20 45  1  0
 21 46  1  0
 23 47  1  0
 23 48  1  0
 23 49  1  0
 25 50  1  0
 25 51  1  0
 25 52  1  0
 27 53  1  0
 27 54  1  0
 27 55  1  0
M  END
$$$$
