@<TRIPOS>MOLECULE
*****
 55 58 0 0 0
SMALL
GASTEIGER

@<TRIPOS>ATOM
      1 C           8.1558    0.3281    1.8494 C.3     1  UNL1       -0.0598
      2 C           7.8873    0.1404    0.3715 C.3     1  UNL1       -0.0115
      3 C           6.4863   -0.3206    0.1411 C.ar    1  UNL1        0.0635
      4 C           5.4284    0.5169   -0.0483 C.ar    1  UNL1       -0.0086
      5 C           4.2679   -0.2380   -0.2326 C.ar    1  UNL1        0.1232
      6 C           2.9734    0.3628   -0.4589 C.2     1  UNL1        0.2625
      7 O           2.8974    1.6425   -0.4959 O.2     1  UNL1       -0.2685
      8 N           1.7419   -0.3095   -0.6505 N.am    1  UNL1       -0.3032
      9 C           0.4870    0.3837   -0.8722 C.3     1  UNL1        0.0519
     10 C          -0.1259    0.0584   -2.1994 C.3     1  UNL1       -0.0299
     11 C          -1.3366    0.8815   -2.4691 C.3     1  UNL1       -0.0456
     12 C          -2.0545    1.3902   -1.2603 C.3     1  UNL1       -0.0099
     13 C          -1.7797    0.6219   -0.0244 C.ar    1  UNL1        0.0499
     14 C          -0.5116    0.1175    0.1747 C.ar    1  UNL1        0.0138
     15 C          -0.5763   -0.5318    1.3896 C.ar    1  UNL1        0.0550
     16 N          -1.8310   -0.3951    1.8500 N.ar    1  UNL1       -0.1742
     17 N          -2.5750    0.3046    1.0005 N.ar    1  UNL1       -0.2361
     18 C          -3.9570    0.6650    1.1269 C.ar    1  UNL1        0.0688
     19 C          -4.2901    1.8753    1.7005 C.ar    1  UNL1       -0.0360
     20 C          -5.6201    2.2253    1.8237 C.ar    1  UNL1       -0.0595
     21 C          -6.5923    1.3581    1.3707 C.ar    1  UNL1       -0.0585
     22 C          -6.2855    0.1432    0.7938 C.ar    1  UNL1       -0.0455
     23 C          -7.3335   -0.7999    0.3014 C.3     1  UNL1       -0.0394
     24 C          -4.9526   -0.1849    0.6814 C.ar    1  UNL1       -0.0221
     25 C          -4.5566   -1.4982    0.0604 C.3     1  UNL1       -0.0374
     26 N           4.6736   -1.5121   -0.1467 N.ar    1  UNL1       -0.2620
     27 C           3.8541   -2.6727   -0.2685 C.3     1  UNL1        0.0310
     28 N           6.0001   -1.5490    0.0766 N.ar    1  UNL1       -0.1758
     29 H           7.1610    0.4974    2.3490 H       1  UNL1        0.0233
     30 H           8.7690    1.2091    2.0717 H       1  UNL1        0.0233
     31 H           8.5552   -0.6195    2.2360 H       1  UNL1        0.0233
     32 H           7.9981    1.1289   -0.1142 H       1  UNL1        0.0326
     33 H           8.6072   -0.5717   -0.0896 H       1  UNL1        0.0326
     34 H           5.5063    1.6166   -0.0505 H       1  UNL1        0.0659
     35 H           1.7591   -1.3450   -0.6272 H       1  UNL1        0.1497
     36 H           0.7086    1.4711   -0.8558 H       1  UNL1        0.0549
     37 H           0.6581    0.2937   -2.9771 H       1  UNL1        0.0286
     38 H          -0.3468   -1.0144   -2.3309 H       1  UNL1        0.0286
     39 H          -2.0321    0.2671   -3.1153 H       1  UNL1        0.0270
     40 H          -1.0589    1.7403   -3.1464 H       1  UNL1        0.0270
     41 H          -1.7759    2.4686   -1.1426 H       1  UNL1        0.0328
     42 H          -3.1578    1.3105   -1.4749 H       1  UNL1        0.0328
     43 H           0.2773   -1.0359    1.8224 H       1  UNL1        0.0851
     44 H          -3.4913    2.5424    2.0507 H       1  UNL1        0.0639
     45 H          -5.8610    3.1792    2.2766 H       1  UNL1        0.0618
     46 H          -7.6123    1.6525    1.4777 H       1  UNL1        0.0620
     47 H          -7.2366   -1.0262   -0.7658 H       1  UNL1        0.0278
     48 H          -7.2200   -1.7209    0.9413 H       1  UNL1        0.0278
     49 H          -8.3141   -0.3711    0.5506 H       1  UNL1        0.0278
     50 H          -3.5965   -1.3871   -0.4840 H       1  UNL1        0.0278
     51 H          -4.5052   -2.2511    0.8696 H       1  UNL1        0.0278
     52 H          -5.3502   -1.8035   -0.6321 H       1  UNL1        0.0278
     53 H           3.4242   -2.8277   -1.3001 H       1  UNL1        0.0473
     54 H           4.5384   -3.5772   -0.1729 H       1  UNL1        0.0473
     55 H           3.1210   -2.8297    0.5414 H       1  UNL1        0.0473
@<TRIPOS>BOND
     1     1     2    1
     2     2     3    1
     3     3     4   ar
     4     4     5   ar
     5     5     6    1
     6     6     7    2
     7     6     8   am
     8     8     9    1
     9     9    10    1
    10    10    11    1
    11    11    12    1
    12    12    13    1
    13    13    14   ar
    14    14    15   ar
    15    15    16   ar
    16    16    17   ar
    17    17    18    1
    18    18    19   ar
    19    19    20   ar
    20    20    21   ar
    21    21    22   ar
    22    22    23    1
    23    22    24   ar
    24    24    25    1
    25     5    26   ar
    26    26    27    1
    27    26    28   ar
    28    28     3   ar
    29    14     9    1
    30    24    18   ar
    31    17    13   ar
    32     1    29    1
    33     1    30    1
    34     1    31    1
    35     2    32    1
    36     2    33    1
    37     4    34    1
    38     8    35    1
    39     9    36    1
    40    10    37    1
    41    10    38    1
    42    11    39    1
    43    11    40    1
    44    12    41    1
    45    12    42    1
    46    15    43    1
    47    19    44    1
    48    20    45    1
    49    21    46    1
    50    23    47    1
    51    23    48    1
    52    23    49    1
    53    25    50    1
    54    25    51    1
    55    25    52    1
    56    27    53    1
    57    27    54    1
    58    27    55    1
