
     RDKit          3D

 61 65  0  0  0  0  0  0  0  0999 V2000
   -7.1973    0.5052    3.5150 C   0  0  0  0  0  0  0  0  0  0  0  0
   -6.5746    0.5281    2.1341 C   0  0  2  0  0  0  0  0  0  0  0  0
   -7.5267    1.1070    1.2695 O   0  0  0  0  0  0  0  0  0  0  0  0
   -6.2497   -0.8746    1.7283 C   0  0  0  0  0  0  0  0  0  0  0  0
   -4.7796   -0.8988    1.4032 C   0  0  0  0  0  0  0  0  0  0  0  0
   -4.3698    0.4940    1.2734 N   0  0  0  0  0  0  0  0  0  0  0  0
   -3.2889    0.9797    0.4682 C   0  0  0  0  0  0  0  0  0  0  0  0
   -3.0785    2.2220    0.4873 O   0  0  0  0  0  0  0  0  0  0  0  0
   -2.4716    0.0471   -0.3401 C   0  0  2  0  0  0  0  0  0  0  0  0
   -1.7147   -1.0832    0.3411 C   0  0  0  0  0  0  0  0  0  0  0  0
   -1.0204    0.1067   -0.2604 C   0  0  1  0  0  0  0  0  0  0  0  0
   -0.1976    0.1061   -1.4291 C   0  0  1  0  0  0  0  0  0  0  0  0
    0.5325    1.5085   -1.4403 C   0  0  0  0  0  0  0  0  0  0  0  0
    0.9301   -0.8485   -1.3602 C   0  0  0  0  0  0  0  0  0  0  0  0
    2.2096   -0.5203   -0.9220 C   0  0  0  0  0  0  0  0  0  0  0  0
    3.2338   -1.4412   -0.8138 C   0  0  0  0  0  0  0  0  0  0  0  0
    4.5426   -0.9781   -0.3425 C   0  0  0  0  0  0  0  0  0  0  0  0
    5.1086    0.1476   -0.6682 C   0  0  0  0  0  0  0  0  0  0  0  0
    4.4156    0.9569   -1.5229 F   0  0  0  0  0  0  0  0  0  0  0  0
    6.3948    0.6381   -0.2194 C   0  0  0  0  0  0  0  0  0  0  0  0
    7.1525   -0.1077    0.6444 C   0  0  0  0  0  0  0  0  0  0  0  0
    8.3967    0.3340    1.0983 C   0  0  0  0  0  0  0  0  0  0  0  0
    8.8451    1.5486    0.6509 C   0  0  0  0  0  0  0  0  0  0  0  0
   10.1197    2.0671    1.0789 C   0  0  0  0  0  0  0  0  0  0  0  0
   11.1276    2.4980    1.4151 N   0  0  0  0  0  0  0  0  0  0  0  0
    8.0644    2.2795   -0.2179 C   0  0  0  0  0  0  0  0  0  0  0  0
    6.8679    1.8231   -0.6363 N   0  0  0  0  0  0  0  0  0  0  0  0
    3.0107   -2.7607   -1.1486 C   0  0  0  0  0  0  0  0  0  0  0  0
    1.7614   -3.1269   -1.5865 C   0  0  0  0  0  0  0  0  0  0  0  0
    0.7543   -2.1864   -1.6867 C   0  0  0  0  0  0  0  0  0  0  0  0
   -0.4216   -2.6480   -2.1765 F   0  0  0  0  0  0  0  0  0  0  0  0
   -0.7227    0.0661   -2.7545 N   0  0  0  0  0  0  0  0  0  0  0  0
   -1.8910   -0.1196   -3.1441 C   0  0  0  0  0  0  0  0  0  0  0  0
   -2.2337   -0.1269   -4.5112 N   0  0  0  0  0  0  0  0  0  0  0  0
   -3.1692   -0.3843   -1.9375 S   0  0  0  0  0  0  0  0  0  0  0  0
   -5.2706    1.2525    2.1110 C   0  0  0  0  0  0  0  0  0  0  0  0
   -7.2308    1.5442    3.9503 H   0  0  0  0  0  0  0  0  0  0  0  0
   -8.1988    0.0506    3.4286 H   0  0  0  0  0  0  0  0  0  0  0  0
   -6.5783   -0.1751    4.1428 H   0  0  0  0  0  0  0  0  0  0  0  0
   -6.9867    1.6249    0.6022 H   0  0  0  0  0  0  0  0  0  0  0  0
   -6.4731   -1.6105    2.5422 H   0  0  0  0  0  0  0  0  0  0  0  0
   -6.8661   -1.1188    0.8222 H   0  0  0  0  0  0  0  0  0  0  0  0
   -4.1770   -1.3050    2.2639 H   0  0  0  0  0  0  0  0  0  0  0  0
   -4.5776   -1.4565    0.4732 H   0  0  0  0  0  0  0  0  0  0  0  0
   -1.7381   -2.0727   -0.0931 H   0  0  0  0  0  0  0  0  0  0  0  0
   -1.9266   -1.0833    1.4437 H   0  0  0  0  0  0  0  0  0  0  0  0
   -0.6530    0.8042    0.5798 H   0  0  0  0  0  0  0  0  0  0  0  0
    0.8150    1.6994   -0.3992 H   0  0  0  0  0  0  0  0  0  0  0  0
   -0.1958    2.2672   -1.7892 H   0  0  0  0  0  0  0  0  0  0  0  0
    1.3810    1.4331   -2.0969 H   0  0  0  0  0  0  0  0  0  0  0  0
    2.3779    0.5120   -0.6514 H   0  0  0  0  0  0  0  0  0  0  0  0
    5.0880   -1.6454    0.3455 H   0  0  0  0  0  0  0  0  0  0  0  0
    6.8474   -1.0727    1.0293 H   0  0  0  0  0  0  0  0  0  0  0  0
    8.9753   -0.2583    1.7722 H   0  0  0  0  0  0  0  0  0  0  0  0
    8.4609    3.2438   -0.5503 H   0  0  0  0  0  0  0  0  0  0  0  0
    3.8345   -3.4567   -1.0519 H   0  0  0  0  0  0  0  0  0  0  0  0
    1.5929   -4.1561   -1.8462 H   0  0  0  0  0  0  0  0  0  0  0  0
   -2.8110    0.6249   -4.9706 H   0  0  0  0  0  0  0  0  0  0  0  0
   -1.9300   -0.8995   -5.1782 H   0  0  0  0  0  0  0  0  0  0  0  0
   -5.4734    2.2496    1.6181 H   0  0  0  0  0  0  0  0  0  0  0  0
   -4.8466    1.4740    3.1129 H   0  0  0  0  0  0  0  0  0  0  0  0
  1  2  1  0
  2  3  1  6
  2  4  1  0
  4  5  1  0
  5  6  1  0
  6  7  1  0
  7  8  2  0
  9  7  1  1
  9 10  1  0
 10 11  1  0
 11 12  1  0
 12 13  1  6
 12 14  1  0
 14 15  2  0
 15 16  1  0
 16 17  1  0
 17 18  2  0
 18 19  1  0
 18 20  1  0
 20 21  2  0
 21 22  1  0
 22 23  2  0
 23 24  1  0
 24 25  3  0
 23 26  1  0
 26 27  2  0
 16 28  2  0
 28 29  1  0
 29 30  2  0
 30 31  1  0
 12 32  1  0
 32 33  2  0
 33 34  1  0
 33 35  1  0
  6 36  1  0
 36  2  1  0
 11  9  1  0
 30 14  1  0
 35  9  1  0
 27 20  1  0
  1 37  1  0
  1 38  1  0
  1 39  1  0
  3 40  1  0
  4 41  1  0
  4 42  1  0
  5 43  1  0
  5 44  1  0
 10 45  1  0
 10 46  1  0
 11 47  1  1
 13 48  1  0
 13 49  1  0
 13 50  1  0
 15 51  1  0
 17 52  1  0
 21 53  1  0
 22 54  1  0
 26 55  1  0
 28 56  1  0
 29 57  1  0
 34 58  1  0
 34 59  1  0
 36 60  1  0
 36 61  1  0
M  END
$$$$
