@<TRIPOS>MOLECULE
*****
 61 65 0 0 0
SMALL
GASTEIGER

@<TRIPOS>ATOM
      1 C          -7.1973    0.5052    3.5150 C.3     1  UNL1       -0.0345
      2 C          -6.5746    0.5281    2.1341 C.3     1  UNL1        0.0804
      3 O          -7.5267    1.1070    1.2695 O.3     1  UNL1       -0.3872
      4 C          -6.2497   -0.8746    1.7283 C.3     1  UNL1       -0.0069
      5 C          -4.7796   -0.8988    1.4032 C.3     1  UNL1        0.0175
      6 N          -4.3698    0.4940    1.2734 N.am    1  UNL1       -0.2975
      7 C          -3.2889    0.9797    0.4682 C.2     1  UNL1        0.2325
      8 O          -3.0785    2.2220    0.4873 O.2     1  UNL1       -0.2741
      9 C          -2.4716    0.0471   -0.3401 C.3     1  UNL1        0.1054
     10 C          -1.7147   -1.0832    0.3411 C.3     1  UNL1       -0.0220
     11 C          -1.0204    0.1067   -0.2604 C.3     1  UNL1        0.0134
     12 C          -0.1976    0.1061   -1.4291 C.3     1  UNL1        0.0935
     13 C           0.5325    1.5085   -1.4403 C.3     1  UNL1       -0.0351
     14 C           0.9301   -0.8485   -1.3602 C.ar    1  UNL1        0.0158
     15 C           2.2096   -0.5203   -0.9220 C.ar    1  UNL1       -0.0463
     16 C           3.2338   -1.4412   -0.8138 C.ar    1  UNL1       -0.0217
     17 C           4.5426   -0.9781   -0.3425 C.2     1  UNL1       -0.0172
     18 C           5.1086    0.1476   -0.6682 C.2     1  UNL1        0.1492
     19 F           4.4156    0.9569   -1.5229 F       1  UNL1       -0.2032
     20 C           6.3948    0.6381   -0.2194 C.ar    1  UNL1        0.0990
     21 C           7.1525   -0.1077    0.6444 C.ar    1  UNL1       -0.0322
     22 C           8.3967    0.3340    1.0983 C.ar    1  UNL1       -0.0408
     23 C           8.8451    1.5486    0.6509 C.ar    1  UNL1        0.0699
     24 C          10.1197    2.0671    1.0789 C.1     1  UNL1        0.1007
     25 N          11.1276    2.4980    1.4151 N.1     1  UNL1       -0.1908
     26 C           8.0644    2.2795   -0.2179 C.ar    1  UNL1        0.0457
     27 N           6.8679    1.8231   -0.6363 N.ar    1  UNL1       -0.2514
     28 C           3.0107   -2.7607   -1.1486 C.ar    1  UNL1       -0.0518
     29 C           1.7614   -3.1269   -1.5865 C.ar    1  UNL1       -0.0255
     30 C           0.7543   -2.1864   -1.6867 C.ar    1  UNL1        0.1289
     31 F          -0.4216   -2.6480   -2.1765 F       1  UNL1       -0.2051
     32 N          -0.7227    0.0661   -2.7545 N.2     1  UNL1       -0.2521
     33 C          -1.8910   -0.1196   -3.1441 C.2     1  UNL1        0.1485
     34 N          -2.2337   -0.1269   -4.5112 N.pl3   1  UNL1       -0.3380
     35 S          -3.1692   -0.3843   -1.9375 S.3     1  UNL1       -0.0746
     36 C          -5.2706    1.2525    2.1110 C.3     1  UNL1        0.0433
     37 H          -7.2308    1.5442    3.9503 H       1  UNL1        0.0258
     38 H          -8.1988    0.0506    3.4286 H       1  UNL1        0.0258
     39 H          -6.5783   -0.1751    4.1428 H       1  UNL1        0.0258
     40 H          -6.9867    1.6249    0.6022 H       1  UNL1        0.2102
     41 H          -6.4731   -1.6105    2.5422 H       1  UNL1        0.0308
     42 H          -6.8661   -1.1188    0.8222 H       1  UNL1        0.0308
     43 H          -4.1770   -1.3050    2.2639 H       1  UNL1        0.0465
     44 H          -4.5776   -1.4565    0.4732 H       1  UNL1        0.0465
     45 H          -1.7381   -2.0727   -0.0931 H       1  UNL1        0.0287
     46 H          -1.9266   -1.0833    1.4437 H       1  UNL1        0.0287
     47 H          -0.6530    0.8042    0.5798 H       1  UNL1        0.0346
     48 H           0.8150    1.6994   -0.3992 H       1  UNL1        0.0256
     49 H          -0.1958    2.2672   -1.7892 H       1  UNL1        0.0256
     50 H           1.3810    1.4331   -2.0969 H       1  UNL1        0.0256
     51 H           2.3779    0.5120   -0.6514 H       1  UNL1        0.0628
     52 H           5.0880   -1.6454    0.3455 H       1  UNL1        0.0653
     53 H           6.8474   -1.0727    1.0293 H       1  UNL1        0.0640
     54 H           8.9753   -0.2583    1.7722 H       1  UNL1        0.0631
     55 H           8.4609    3.2438   -0.5503 H       1  UNL1        0.0843
     56 H           3.8345   -3.4567   -1.0519 H       1  UNL1        0.0624
     57 H           1.5929   -4.1561   -1.8462 H       1  UNL1        0.0646
     58 H          -2.8110    0.6249   -4.9706 H       1  UNL1        0.1442
     59 H          -1.9300   -0.8995   -5.1782 H       1  UNL1        0.1442
     60 H          -5.4734    2.2496    1.6181 H       1  UNL1        0.0493
     61 H          -4.8466    1.4740    3.1129 H       1  UNL1        0.0493
@<TRIPOS>BOND
     1     1     2    1
     2     2     3    1
     3     2     4    1
     4     4     5    1
     5     5     6    1
     6     6     7   am
     7     7     8    2
     8     9     7    1
     9     9    10    1
    10    10    11    1
    11    11    12    1
    12    12    13    1
    13    12    14    1
    14    14    15   ar
    15    15    16   ar
    16    16    17    1
    17    17    18    2
    18    18    19    1
    19    18    20    1
    20    20    21   ar
    21    21    22   ar
    22    22    23   ar
    23    23    24    1
    24    24    25    3
    25    23    26   ar
    26    26    27   ar
    27    16    28   ar
    28    28    29   ar
    29    29    30   ar
    30    30    31    1
    31    12    32    1
    32    32    33    2
    33    33    34    1
    34    33    35    1
    35     6    36    1
    36    36     2    1
    37    11     9    1
    38    30    14   ar
    39    35     9    1
    40    27    20   ar
    41     1    37    1
    42     1    38    1
    43     1    39    1
    44     3    40    1
    45     4    41    1
    46     4    42    1
    47     5    43    1
    48     5    44    1
    49    10    45    1
    50    10    46    1
    51    11    47    1
    52    13    48    1
    53    13    49    1
    54    13    50    1
    55    15    51    1
    56    17    52    1
    57    21    53    1
    58    22    54    1
    59    26    55    1
    60    28    56    1
    61    29    57    1
    62    34    58    1
    63    34    59    1
    64    36    60    1
    65    36    61    1
