
     RDKit          3D

 58 62  0  0  0  0  0  0  0  0999 V2000
   -6.4630    1.5900   -2.1481 C   0  0  0  0  0  0  0  0  0  0  0  0
   -5.6754    0.5227   -1.6445 O   0  0  0  0  0  0  0  0  0  0  0  0
   -4.5924    0.8012   -0.8179 C   0  0  0  0  0  0  0  0  0  0  0  0
   -4.3023    2.1122   -0.5022 C   0  0  0  0  0  0  0  0  0  0  0  0
   -3.2133    2.3575    0.3268 C   0  0  0  0  0  0  0  0  0  0  0  0
   -2.4449    1.3224    0.8199 C   0  0  0  0  0  0  0  0  0  0  0  0
   -1.3606    1.6949    1.6981 N   0  0  0  0  0  0  0  0  0  0  0  0
   -1.1190    1.1627    2.8906 N   0  0  0  0  0  0  0  0  0  0  0  0
   -0.0518    1.7297    3.4662 C   0  0  0  0  0  0  0  0  0  0  0  0
    0.3915    2.6747    2.5625 C   0  0  0  0  0  0  0  0  0  0  0  0
   -0.4350    2.6146    1.5063 N   0  0  0  0  0  0  0  0  0  0  0  0
   -2.7211    0.0107    0.5132 C   0  0  0  0  0  0  0  0  0  0  0  0
   -1.9200   -1.0842    0.9867 C   0  0  0  0  0  0  0  0  0  0  0  0
   -2.1642   -1.5586    2.1278 O   0  0  0  0  0  0  0  0  0  0  0  0
   -0.8482   -1.6937    0.2476 N   0  0  0  0  0  0  0  0  0  0  0  0
   -0.5624   -1.1683   -1.0666 C   0  0  0  0  0  0  0  0  0  0  0  0
   -0.0612   -2.2136   -2.0219 C   0  0  0  0  0  0  0  0  0  0  0  0
    0.6684   -3.2230   -1.4725 O   0  0  0  0  0  0  0  0  0  0  0  0
    0.0948   -3.8426   -0.3744 C   0  0  0  0  0  0  0  0  0  0  0  0
   -0.1092   -2.7956    0.7559 C   0  0  1  0  0  0  0  0  0  0  0  0
    1.2005   -2.5384    1.3990 C   0  0  0  0  0  0  0  0  0  0  0  0
    2.2576   -1.9421    0.5972 C   0  0  0  0  0  0  0  0  0  0  0  0
    3.0938   -2.7596   -0.1325 C   0  0  0  0  0  0  0  0  0  0  0  0
    4.0992   -2.1937   -0.8747 C   0  0  0  0  0  0  0  0  0  0  0  0
    4.2718   -0.8300   -0.8916 C   0  0  0  0  0  0  0  0  0  0  0  0
    3.4512    0.0372   -0.1702 C   0  0  0  0  0  0  0  0  0  0  0  0
    3.6599    1.4707   -0.2146 C   0  0  0  0  0  0  0  0  0  0  0  0
    2.8788    2.3112    0.4699 N   0  0  0  0  0  0  0  0  0  0  0  0
    3.0720    3.6610    0.4276 C   0  0  0  0  0  0  0  0  0  0  0  0
    4.0912    4.1895   -0.3328 C   0  0  0  0  0  0  0  0  0  0  0  0
    4.8876    3.3097   -1.0327 C   0  0  0  0  0  0  0  0  0  0  0  0
    4.6398    1.9894   -0.9452 N   0  0  0  0  0  0  0  0  0  0  0  0
    2.4514   -0.5895    0.5626 C   0  0  0  0  0  0  0  0  0  0  0  0
   -3.8171   -0.2420   -0.3209 C   0  0  0  0  0  0  0  0  0  0  0  0
   -6.9849    2.0400   -1.2829 H   0  0  0  0  0  0  0  0  0  0  0  0
   -7.2099    1.2116   -2.8756 H   0  0  0  0  0  0  0  0  0  0  0  0
   -5.8643    2.3684   -2.6569 H   0  0  0  0  0  0  0  0  0  0  0  0
   -4.9019    2.9234   -0.8865 H   0  0  0  0  0  0  0  0  0  0  0  0
   -2.9858    3.4078    0.5765 H   0  0  0  0  0  0  0  0  0  0  0  0
    0.3840    1.4948    4.4546 H   0  0  0  0  0  0  0  0  0  0  0  0
    1.2521    3.2964    2.7620 H   0  0  0  0  0  0  0  0  0  0  0  0
   -1.4926   -0.7548   -1.5462 H   0  0  0  0  0  0  0  0  0  0  0  0
    0.0895   -0.2879   -0.9548 H   0  0  0  0  0  0  0  0  0  0  0  0
   -0.8648   -2.6320   -2.6605 H   0  0  0  0  0  0  0  0  0  0  0  0
    0.6203   -1.6767   -2.7466 H   0  0  0  0  0  0  0  0  0  0  0  0
    0.7063   -4.6528    0.0468 H   0  0  0  0  0  0  0  0  0  0  0  0
   -0.8684   -4.2772   -0.6956 H   0  0  0  0  0  0  0  0  0  0  0  0
   -0.7385   -3.3323    1.5016 H   0  0  0  0  0  0  0  0  0  0  0  0
    1.0482   -1.9990    2.3850 H   0  0  0  0  0  0  0  0  0  0  0  0
    1.5809   -3.5483    1.7443 H   0  0  0  0  0  0  0  0  0  0  0  0
    2.9813   -3.8430   -0.1373 H   0  0  0  0  0  0  0  0  0  0  0  0
    4.7766   -2.8130   -1.4613 H   0  0  0  0  0  0  0  0  0  0  0  0
    5.0563   -0.3691   -1.4685 H   0  0  0  0  0  0  0  0  0  0  0  0
    2.4538    4.3571    0.9711 H   0  0  0  0  0  0  0  0  0  0  0  0
    4.2309    5.2674   -0.3537 H   0  0  0  0  0  0  0  0  0  0  0  0
    5.6848    3.7283   -1.6277 H   0  0  0  0  0  0  0  0  0  0  0  0
    1.8062    0.1049    1.1313 H   0  0  0  0  0  0  0  0  0  0  0  0
   -4.1085   -1.2405   -0.6139 H   0  0  0  0  0  0  0  0  0  0  0  0
  1  2  1  0
  2  3  1  0
  3  4  2  0
  4  5  1  0
  5  6  2  0
  6  7  1  0
  7  8  1  0
  8  9  2  0
  9 10  1  0
 10 11  2  0
  6 12  1  0
 12 13  1  0
 13 14  2  0
 13 15  1  0
 15 16  1  0
 16 17  1  0
 17 18  1  0
 18 19  1  0
 19 20  1  0
 20 21  1  0
 21 22  1  0
 22 23  2  0
 23 24  1  0
 24 25  2  0
 25 26  1  0
 26 27  1  0
 27 28  2  0
 28 29  1  0
 29 30  2  0
 30 31  1  0
 31 32  2  0
 26 33  2  0
 12 34  2  0
 34  3  1  0
 11  7  1  0
 20 15  1  0
 33 22  1  0
 32 27  1  0
  1 35  1  0
  1 36  1  0
  1 37  1  0
  4 38  1  0
  5 39  1  0
  9 40  1  0
 10 41  1  0
 16 42  1  0
 16 43  1  0
 17 44  1  0
 17 45  1  0
 19 46  1  0
 19 47  1  0
 20 48  1  1
 21 49  1  0
 21 50  1  0
 23 51  1  0
 24 52  1  0
 25 53  1  0
 29 54  1  0
 30 55  1  0
 31 56  1  0
 33 57  1  0
 34 58  1  0
M  END
$$$$
