@<TRIPOS>MOLECULE
*****
 58 62 0 0 0
SMALL
GASTEIGER

@<TRIPOS>ATOM
      1 C          -6.4630    1.5900   -2.1481 C.3     1  UNL1        0.0788
      2 O          -5.6754    0.5227   -1.6445 O.3     1  UNL1       -0.4951
      3 C          -4.5924    0.8012   -0.8179 C.ar    1  UNL1        0.1209
      4 C          -4.3023    2.1122   -0.5022 C.ar    1  UNL1       -0.0179
      5 C          -3.2133    2.3575    0.3268 C.ar    1  UNL1       -0.0303
      6 C          -2.4449    1.3224    0.8199 C.ar    1  UNL1        0.0984
      7 N          -1.3606    1.6949    1.6981 N.ar    1  UNL1       -0.1496
      8 N          -1.1190    1.1627    2.8906 N.ar    1  UNL1       -0.1556
      9 C          -0.0518    1.7297    3.4662 C.ar    1  UNL1        0.0697
     10 C           0.3915    2.6747    2.5625 C.ar    1  UNL1        0.0697
     11 N          -0.4350    2.6146    1.5063 N.ar    1  UNL1       -0.1556
     12 C          -2.7211    0.0107    0.5132 C.ar    1  UNL1        0.0674
     13 C          -1.9200   -1.0842    0.9867 C.2     1  UNL1        0.2492
     14 O          -2.1642   -1.5586    2.1278 O.2     1  UNL1       -0.2699
     15 N          -0.8482   -1.6937    0.2476 N.am    1  UNL1       -0.2897
     16 C          -0.5624   -1.1683   -1.0666 C.3     1  UNL1        0.0388
     17 C          -0.0612   -2.2136   -2.0219 C.3     1  UNL1        0.0635
     18 O           0.6684   -3.2230   -1.4725 O.3     1  UNL1       -0.3764
     19 C           0.0948   -3.8426   -0.3744 C.3     1  UNL1        0.0666
     20 C          -0.1092   -2.7956    0.7559 C.3     1  UNL1        0.0537
     21 C           1.2005   -2.5384    1.3990 C.3     1  UNL1       -0.0068
     22 C           2.2576   -1.9421    0.5972 C.ar    1  UNL1       -0.0449
     23 C           3.0938   -2.7596   -0.1325 C.ar    1  UNL1       -0.0585
     24 C           4.0992   -2.1937   -0.8747 C.ar    1  UNL1       -0.0608
     25 C           4.2718   -0.8300   -0.8916 C.ar    1  UNL1       -0.0510
     26 C           3.4512    0.0372   -0.1702 C.ar    1  UNL1        0.0194
     27 C           3.6599    1.4707   -0.2146 C.ar    1  UNL1        0.1597
     28 N           2.8788    2.3112    0.4699 N.ar    1  UNL1       -0.2357
     29 C           3.0720    3.6610    0.4276 C.ar    1  UNL1        0.0314
     30 C           4.0912    4.1895   -0.3328 C.ar    1  UNL1       -0.0254
     31 C           4.8876    3.3097   -1.0327 C.ar    1  UNL1        0.0314
     32 N           4.6398    1.9894   -0.9452 N.ar    1  UNL1       -0.2357
     33 C           2.4514   -0.5895    0.5626 C.ar    1  UNL1       -0.0478
     34 C          -3.8171   -0.2420   -0.3209 C.ar    1  UNL1       -0.0057
     35 H          -6.9849    2.0400   -1.2829 H       1  UNL1        0.0660
     36 H          -7.2099    1.2116   -2.8756 H       1  UNL1        0.0660
     37 H          -5.8643    2.3684   -2.6569 H       1  UNL1        0.0660
     38 H          -4.9019    2.9234   -0.8865 H       1  UNL1        0.0655
     39 H          -2.9858    3.4078    0.5765 H       1  UNL1        0.0641
     40 H           0.3840    1.4948    4.4546 H       1  UNL1        0.0864
     41 H           1.2521    3.2964    2.7620 H       1  UNL1        0.0864
     42 H          -1.4926   -0.7548   -1.5462 H       1  UNL1        0.0487
     43 H           0.0895   -0.2879   -0.9548 H       1  UNL1        0.0487
     44 H          -0.8648   -2.6320   -2.6605 H       1  UNL1        0.0575
     45 H           0.6203   -1.6767   -2.7466 H       1  UNL1        0.0575
     46 H           0.7063   -4.6528    0.0468 H       1  UNL1        0.0578
     47 H          -0.8684   -4.2772   -0.6956 H       1  UNL1        0.0578
     48 H          -0.7385   -3.3323    1.5016 H       1  UNL1        0.0526
     49 H           1.0482   -1.9990    2.3850 H       1  UNL1        0.0332
     50 H           1.5809   -3.5483    1.7443 H       1  UNL1        0.0332
     51 H           2.9813   -3.8430   -0.1373 H       1  UNL1        0.0620
     52 H           4.7766   -2.8130   -1.4613 H       1  UNL1        0.0618
     53 H           5.0563   -0.3691   -1.4685 H       1  UNL1        0.0625
     54 H           2.4538    4.3571    0.9711 H       1  UNL1        0.0831
     55 H           4.2309    5.2674   -0.3537 H       1  UNL1        0.0648
     56 H           5.6848    3.7283   -1.6277 H       1  UNL1        0.0831
     57 H           1.8062    0.1049    1.1313 H       1  UNL1        0.0627
     58 H          -4.1085   -1.2405   -0.6139 H       1  UNL1        0.0662
@<TRIPOS>BOND
     1     1     2    1
     2     2     3    1
     3     3     4   ar
     4     4     5   ar
     5     5     6   ar
     6     6     7    1
     7     7     8   ar
     8     8     9   ar
     9     9    10   ar
    10    10    11   ar
    11     6    12   ar
    12    12    13    1
    13    13    14    2
    14    13    15   am
    15    15    16    1
    16    16    17    1
    17    17    18    1
    18    18    19    1
    19    19    20    1
    20    20    21    1
    21    21    22    1
    22    22    23   ar
    23    23    24   ar
    24    24    25   ar
    25    25    26   ar
    26    26    27    1
    27    27    28   ar
    28    28    29   ar
    29    29    30   ar
    30    30    31   ar
    31    31    32   ar
    32    26    33   ar
    33    12    34   ar
    34    34     3   ar
    35    11     7   ar
    36    20    15    1
    37    33    22   ar
    38    32    27   ar
    39     1    35    1
    40     1    36    1
    41     1    37    1
    42     4    38    1
    43     5    39    1
    44     9    40    1
    45    10    41    1
    46    16    42    1
    47    16    43    1
    48    17    44    1
    49    17    45    1
    50    19    46    1
    51    19    47    1
    52    20    48    1
    53    21    49    1
    54    21    50    1
    55    23    51    1
    56    24    52    1
    57    25    53    1
    58    29    54    1
    59    30    55    1
    60    31    56    1
    61    33    57    1
    62    34    58    1
