@<TRIPOS>MOLECULE
*****
 37 39 0 0 0
SMALL
GASTEIGER

@<TRIPOS>ATOM
      1 N          -5.1615   -0.7917   -2.8456 N.pl3   1  UNL1       -0.3413
      2 C          -4.5258    0.1055   -1.9479 C.ar    1  UNL1        0.1472
      3 C          -3.2329   -0.1738   -1.5521 C.ar    1  UNL1        0.1473
      4 N          -2.3131   -1.1120   -1.7731 N.ar    1  UNL1       -0.2306
      5 C          -1.2008   -0.7906   -1.0511 C.ar    1  UNL1        0.1004
      6 N          -1.4661    0.3680   -0.3840 N.ar    1  UNL1       -0.2855
      7 C          -0.4356    0.9264    0.4619 C.3     1  UNL1        0.1667
      8 O           0.6710    1.3270   -0.2385 O.3     1  UNL1       -0.3456
      9 C           1.8057    1.1659    0.5029 C.3     1  UNL1        0.1134
     10 C           2.7297    0.0936   -0.0680 C.3     1  UNL1        0.0878
     11 O           3.8760   -0.0780    0.6701 O.3     1  UNL1       -0.2841
     12 P           4.8861   -1.2718    0.0314 P.3     1  UNL1        0.4724
     13 O           5.2338   -2.4447    1.2068 O.3     1  UNL1       -0.3026
     14 O           4.0697   -2.0530   -1.2352 O.3     1  UNL1       -0.3026
     15 O           6.1332   -0.6405   -0.4884 O.2     1  UNL1       -0.2275
     16 C           1.3694    0.6353    1.8707 C.3     1  UNL1        0.1135
     17 O           0.9797    1.7438    2.6475 O.3     1  UNL1       -0.3864
     18 C           0.1144   -0.1001    1.4314 C.3     1  UNL1        0.1285
     19 O          -0.7522   -0.3628    2.4869 O.3     1  UNL1       -0.3847
     20 C          -2.7152    0.7749   -0.6731 C.ar    1  UNL1        0.1674
     21 N          -3.3777    1.8601   -0.2358 N.ar    1  UNL1       -0.2159
     22 C          -4.6191    2.0661   -0.6580 C.ar    1  UNL1        0.1205
     23 N          -5.1940    1.1908   -1.5131 N.ar    1  UNL1       -0.2188
     24 H          -5.7073   -0.8378   -3.7238 H       1  UNL1        0.1438
     25 H          -5.0690   -1.8052   -2.5454 H       1  UNL1        0.1438
     26 H          -0.3168   -1.4161   -1.0759 H       1  UNL1        0.1030
     27 H          -0.7909    1.7653    1.0858 H       1  UNL1        0.0866
     28 H           2.3450    2.1177    0.5778 H       1  UNL1        0.0647
     29 H           2.1962   -0.8725   -0.0999 H       1  UNL1        0.0592
     30 H           2.9981    0.3733   -1.1152 H       1  UNL1        0.0592
     31 H           4.4670   -2.5733    1.8313 H       1  UNL1        0.2220
     32 H           4.5918   -1.9747   -2.0722 H       1  UNL1        0.2220
     33 H           2.1127    0.0008    2.3487 H       1  UNL1        0.0647
     34 H           1.7825    2.2679    2.8960 H       1  UNL1        0.2100
     35 H           0.4319   -1.0360    0.9106 H       1  UNL1        0.0665
     36 H          -0.6438   -1.3376    2.6904 H       1  UNL1        0.2101
     37 H          -5.2722    2.8897   -0.3942 H       1  UNL1        0.1048
@<TRIPOS>BOND
     1     1     2    1
     2     2     3   ar
     3     3     4   ar
     4     4     5   ar
     5     5     6   ar
     6     6     7    1
     7     7     8    1
     8     8     9    1
     9     9    10    1
    10    10    11    1
    11    11    12    1
    12    12    13    1
    13    12    14    1
    14    12    15    2
    15     9    16    1
    16    16    17    1
    17    16    18    1
    18    18    19    1
    19     6    20   ar
    20    20    21   ar
    21    21    22   ar
    22    22    23   ar
    23    23     2   ar
    24    20     3   ar
    25    18     7    1
    26     1    24    1
    27     1    25    1
    28     5    26    1
    29     7    27    1
    30     9    28    1
    31    10    29    1
    32    10    30    1
    33    13    31    1
    34    14    32    1
    35    16    33    1
    36    17    34    1
    37    18    35    1
    38    19    36    1
    39    22    37    1
