@<TRIPOS>MOLECULE
*****
 110 118 0 0 0
SMALL
GASTEIGER

@<TRIPOS>ATOM
      1 C          -3.8778    0.5185   -1.0428 C.3     1  UNL1        0.0337
      2 N          -4.1544   -0.0918   -2.2916 N.3     1  UNL1       -0.2940
      3 C          -3.5936   -1.4031   -2.3597 C.3     1  UNL1        0.0005
      4 C          -3.4737   -1.8400   -0.9323 C.3     1  UNL1       -0.0272
      5 C          -3.3969   -0.5698   -0.1585 C.3     1  UNL1        0.0367
      6 C          -1.9734   -0.4167    0.2856 C.ar    1  UNL1       -0.0162
      7 C          -1.9505   -0.0190    1.6094 C.ar    1  UNL1        0.0372
      8 C          -0.7529    0.1897    2.2568 C.ar    1  UNL1        0.0017
      9 C           0.4426    0.0043    1.5920 C.ar    1  UNL1        0.1265
     10 O           1.6027    0.2226    2.2745 O.3     1  UNL1       -0.4947
     11 C           1.5837    0.6279    3.6264 C.3     1  UNL1        0.0788
     12 C           0.5042   -0.3979    0.2493 C.ar    1  UNL1        0.0172
     13 C          -0.7421   -0.5821   -0.3156 C.ar    1  UNL1       -0.0481
     14 C           1.7877   -0.5913   -0.4902 C.3     1  UNL1        0.1360
     15 C           2.4170    0.7159   -0.6741 C.3     1  UNL1       -0.0234
     16 C           3.6475    0.8879   -1.4465 C.3     1  UNL1       -0.0239
     17 C           4.7068   -0.1203   -1.5055 C.3     1  UNL1        0.0020
     18 N           5.9185    0.1351   -0.8152 N.3     1  UNL1       -0.2990
     19 C           6.4654    1.4595   -1.0243 C.3     1  UNL1        0.0278
     20 C           5.5256    2.3913   -1.7422 C.3     1  UNL1        0.0788
     21 O           5.4732    2.0200   -3.0904 O.3     1  UNL1       -0.3873
     22 C           6.1191    3.7815   -1.7066 C.3     1  UNL1       -0.0256
     23 C           6.2831    4.2028   -0.2681 C.3     1  UNL1       -0.0626
     24 C           4.2029    2.2806   -1.0660 C.3     1  UNL1       -0.0188
     25 C           5.9453   -0.2963    0.5229 C.3     1  UNL1        0.0031
     26 C           4.7186   -0.4993    1.3089 C.3     1  UNL1       -0.0126
     27 C           3.7992   -1.5748    0.8897 C.ar    1  UNL1       -0.0165
     28 C           2.6332   -1.6321    0.1833 C.ar    1  UNL1        0.0418
     29 N           2.2010   -2.9045    0.1019 N.ar    1  UNL1       -0.3565
     30 C           3.0434   -3.7287    0.7366 C.ar    1  UNL1        0.0470
     31 C           3.0478   -5.0924    0.9352 C.ar    1  UNL1       -0.0378
     32 C           4.0484   -5.7196    1.6379 C.ar    1  UNL1       -0.0598
     33 C           5.0716   -4.9623    2.1555 C.ar    1  UNL1       -0.0611
     34 C           5.0294   -3.6075    1.9350 C.ar    1  UNL1       -0.0523
     35 C           4.0366   -2.9168    1.2280 C.ar    1  UNL1        0.0032
     36 C           1.3818   -1.0527   -1.8740 C.2     1  UNL1        0.3235
     37 O           1.5968   -0.3842   -2.9246 O.2     1  UNL1       -0.2494
     38 O           0.7528   -2.1814   -2.3071 O.3     1  UNL1       -0.4670
     39 C           0.5001   -2.3532   -3.6826 C.3     1  UNL1        0.0817
     40 N          -3.2923    0.1023    2.0606 N.pl3   1  UNL1       -0.3253
     41 C          -3.6620    0.8859    3.2406 C.3     1  UNL1        0.0011
     42 C          -4.0978   -0.6494    1.1703 C.3     1  UNL1        0.0741
     43 C          -5.5398   -0.3639    1.1061 C.3     1  UNL1        0.1870
     44 O          -6.1302   -1.4027    0.3456 O.3     1  UNL1       -0.3754
     45 C          -5.9114    0.9185    0.4306 C.3     1  UNL1        0.1047
     46 O          -7.1738    0.7663   -0.1494 O.3     1  UNL1       -0.3875
     47 C          -4.8902    1.4636   -0.5090 C.3     1  UNL1        0.0341
     48 C          -4.2313    2.7406    0.0433 C.3     1  UNL1       -0.0428
     49 C          -5.2267    3.7056    0.5898 C.3     1  UNL1       -0.0644
     50 C          -5.6763    1.9992   -1.6648 C.2     1  UNL1       -0.0765
     51 C          -6.0099    1.3323   -2.7905 C.2     1  UNL1       -0.0733
     52 C          -5.4842   -0.0815   -2.7696 C.3     1  UNL1        0.0175
     53 C          -6.1572   -0.4946    2.4541 C.2     1  UNL1        0.2467
     54 N          -7.1330   -1.5018    2.7992 N.am    1  UNL1       -0.3268
     55 O          -6.4410   -0.2818    3.6824 O.2     1  UNL1       -0.2727
     56 H          -2.9577    1.1557   -1.2388 H       1  UNL1        0.0481
     57 H          -2.5945   -1.3031   -2.8374 H       1  UNL1        0.0427
     58 H          -4.2535   -2.0819   -2.9557 H       1  UNL1        0.0427
     59 H          -2.5699   -2.4961   -0.7699 H       1  UNL1        0.0287
     60 H          -4.3180   -2.4953   -0.6283 H       1  UNL1        0.0287
     61 H          -0.7352    0.5010    3.2921 H       1  UNL1        0.0673
     62 H           0.9695    1.5426    3.7784 H       1  UNL1        0.0660
     63 H           2.5833    0.8106    4.0368 H       1  UNL1        0.0660
     64 H           1.0707   -0.1660    4.2180 H       1  UNL1        0.0660
     65 H          -0.8170   -0.8806   -1.3345 H       1  UNL1        0.0625
     66 H           2.3777    1.2646    0.3212 H       1  UNL1        0.0286
     67 H           1.6155    1.3423   -1.2110 H       1  UNL1        0.0286
     68 H           3.3441    1.1099   -2.5241 H       1  UNL1        0.0314
     69 H           5.0777   -0.1956   -2.6004 H       1  UNL1        0.0429
     70 H           4.4201   -1.1645   -1.3410 H       1  UNL1        0.0429
     71 H           7.3403    1.3010   -1.7106 H       1  UNL1        0.0455
     72 H           6.9179    1.8832   -0.1095 H       1  UNL1        0.0455
     73 H           5.3109    2.8376   -3.6226 H       1  UNL1        0.2102
     74 H           5.4578    4.4945   -2.2537 H       1  UNL1        0.0291
     75 H           7.1239    3.7647   -2.1784 H       1  UNL1        0.0291
     76 H           5.4558    3.8945    0.3706 H       1  UNL1        0.0231
     77 H           7.2852    3.8710    0.0798 H       1  UNL1        0.0231
     78 H           6.3018    5.3261   -0.2437 H       1  UNL1        0.0231
     79 H           3.4806    3.0662   -1.3539 H       1  UNL1        0.0296
     80 H           4.3578    2.2433    0.0270 H       1  UNL1        0.0296
     81 H           6.4704   -1.3140    0.5081 H       1  UNL1        0.0430
     82 H           6.7112    0.3354    1.0536 H       1  UNL1        0.0430
     83 H           4.1836    0.4589    1.5612 H       1  UNL1        0.0326
     84 H           5.1203   -0.7223    2.3647 H       1  UNL1        0.0326
     85 H           1.3426   -3.3319   -0.3618 H       1  UNL1        0.1656
     86 H           2.2669   -5.7364    0.5499 H       1  UNL1        0.0638
     87 H           4.0320   -6.7859    1.7807 H       1  UNL1        0.0618
     88 H           5.8874   -5.3932    2.7167 H       1  UNL1        0.0618
     89 H           5.8389   -3.0271    2.3471 H       1  UNL1        0.0624
     90 H          -0.3306   -1.6897   -3.9972 H       1  UNL1        0.0661
     91 H           1.3784   -2.0120   -4.3023 H       1  UNL1        0.0661
     92 H           0.3688   -3.4144   -3.9522 H       1  UNL1        0.0661
     93 H          -2.8232    1.5886    3.5220 H       1  UNL1        0.0428
     94 H          -3.7873    0.2492    4.1454 H       1  UNL1        0.0428
     95 H          -4.5137    1.5693    3.0503 H       1  UNL1        0.0428
     96 H          -3.9916   -1.7301    1.4877 H       1  UNL1        0.0543
     97 H          -7.1128   -1.3454    0.4384 H       1  UNL1        0.2110
     98 H          -6.0721    1.6742    1.2306 H       1  UNL1        0.0637
     99 H          -7.9067    0.8193    0.4994 H       1  UNL1        0.2100
    100 H          -3.7221    3.2416   -0.8347 H       1  UNL1        0.0272
    101 H          -3.4293    2.5522    0.7467 H       1  UNL1        0.0272
    102 H          -5.1749    3.7784    1.7177 H       1  UNL1        0.0230
    103 H          -6.2681    3.5142    0.2588 H       1  UNL1        0.0230
    104 H          -4.9707    4.7309    0.2552 H       1  UNL1        0.0230
    105 H          -6.0749    3.0341   -1.7059 H       1  UNL1        0.0576
    106 H          -6.5817    1.7659   -3.5998 H       1  UNL1        0.0582
    107 H          -6.2033   -0.7573   -2.3200 H       1  UNL1        0.0470
    108 H          -5.4349   -0.3556   -3.8643 H       1  UNL1        0.0470
    109 H          -7.6589   -2.4128    2.9253 H       1  UNL1        0.1450
    110 H          -7.3022   -2.5485    2.7179 H       1  UNL1        0.1450
@<TRIPOS>BOND
     1     1     2    1
     2     2     3    1
     3     3     4    1
     4     5     4    1
     5     5     6    1
     6     6     7   ar
     7     7     8   ar
     8     8     9   ar
     9     9    10    1
    10    10    11    1
    11     9    12   ar
    12    12    13   ar
    13    12    14    1
    14    14    15    1
    15    15    16    1
    16    16    17    1
    17    17    18    1
    18    18    19    1
    19    19    20    1
    20    20    21    1
    21    20    22    1
    22    22    23    1
    23    20    24    1
    24    18    25    1
    25    25    26    1
    26    26    27    1
    27    27    28   ar
    28    28    29   ar
    29    29    30   ar
    30    30    31   ar
    31    31    32   ar
    32    32    33   ar
    33    33    34   ar
    34    34    35   ar
    35    14    36    1
    36    36    37    2
    37    36    38    1
    38    38    39    1
    39     7    40    1
    40    40    41    1
    41    40    42    1
    42    42    43    1
    43    43    44    1
    44    43    45    1
    45    45    46    1
    46    45    47    1
    47    47    48    1
    48    48    49    1
    49    47    50    1
    50    50    51    2
    51    51    52    1
    52    43    53    1
    53    53    54   am
    54    53    55    2
    55     5     1    1
    56    42     5    1
    57    47     1    1
    58    52     2    1
    59    13     6   ar
    60    28    14    1
    61    35    30   ar
    62    24    16    1
    63    35    27   ar
    64     1    56    1
    65     3    57    1
    66     3    58    1
    67     4    59    1
    68     4    60    1
    69     8    61    1
    70    11    62    1
    71    11    63    1
    72    11    64    1
    73    13    65    1
    74    15    66    1
    75    15    67    1
    76    16    68    1
    77    17    69    1
    78    17    70    1
    79    19    71    1
    80    19    72    1
    81    21    73    1
    82    22    74    1
    83    22    75    1
    84    23    76    1
    85    23    77    1
    86    23    78    1
    87    24    79    1
    88    24    80    1
    89    25    81    1
    90    25    82    1
    91    26    83    1
    92    26    84    1
    93    29    85    1
    94    31    86    1
    95    32    87    1
    96    33    88    1
    97    34    89    1
    98    39    90    1
    99    39    91    1
   100    39    92    1
   101    41    93    1
   102    41    94    1
   103    41    95    1
   104    42    96    1
   105    44    97    1
   106    45    98    1
   107    46    99    1
   108    48   100    1
   109    48   101    1
   110    49   102    1
   111    49   103    1
   112    49   104    1
   113    50   105    1
   114    51   106    1
   115    52   107    1
   116    52   108    1
   117    54   109    1
   118    54   110    1
