
     RDKit          3D

 50 54  0  0  0  0  0  0  0  0999 V2000
   -3.7281    0.6037   -1.7941 O   0  0  0  0  0  0  0  0  0  0  0  0
   -3.7633    0.1421   -0.6449 C   0  0  0  0  0  0  0  0  0  0  0  0
   -2.5990    0.1976    0.1283 N   0  0  0  0  0  0  0  0  0  0  0  0
   -1.3329    0.7250   -0.2217 C   0  0  0  0  0  0  0  0  0  0  0  0
   -1.0376    1.2896   -1.4291 C   0  0  0  0  0  0  0  0  0  0  0  0
    0.2591    1.7733   -1.6435 C   0  0  0  0  0  0  0  0  0  0  0  0
    1.2568    1.7205   -0.7251 C   0  0  0  0  0  0  0  0  0  0  0  0
    0.9596    1.1481    0.5008 C   0  0  0  0  0  0  0  0  0  0  0  0
    2.0160    1.0733    1.5212 C   0  0  0  0  0  0  0  0  0  0  0  0
    1.7174    1.4235    2.8175 C   0  0  0  0  0  0  0  0  0  0  0  0
    2.6732    1.3680    3.7992 C   0  0  0  0  0  0  0  0  0  0  0  0
    3.9148    0.9645    3.4784 N   0  0  0  0  0  0  0  0  0  0  0  0
    4.2082    0.6218    2.2105 C   0  0  0  0  0  0  0  0  0  0  0  0
    5.3876    0.1861    1.6528 C   0  0  0  0  0  0  0  0  0  0  0  0
    5.1049   -0.0179    0.3007 C   0  0  0  0  0  0  0  0  0  0  0  0
    6.0410   -0.4808   -0.7059 C   0  0  0  0  0  0  0  0  0  0  0  0
    5.6362   -0.6387   -1.9956 C   0  0  0  0  0  0  0  0  0  0  0  0
    6.5337   -1.0847   -2.9711 C   0  0  0  0  0  0  0  0  0  0  0  0
    7.8133   -1.3596   -2.6232 N   0  0  0  0  0  0  0  0  0  0  0  0
    8.2324   -1.2126   -1.3671 C   0  0  0  0  0  0  0  0  0  0  0  0
    7.3521   -0.7732   -0.4009 C   0  0  0  0  0  0  0  0  0  0  0  0
    3.8195    0.2919    0.1133 N   0  0  0  0  0  0  0  0  0  0  0  0
    3.2647    0.6778    1.2474 N   0  0  0  0  0  0  0  0  0  0  0  0
   -0.3015    0.6652    0.7412 C   0  0  0  0  0  0  0  0  0  0  0  0
   -5.0305   -0.4359   -0.1668 C   0  0  0  0  0  0  0  0  0  0  0  0
   -5.2085   -0.9793    1.0790 C   0  0  0  0  0  0  0  0  0  0  0  0
   -6.4353   -1.5162    1.4840 C   0  0  0  0  0  0  0  0  0  0  0  0
   -7.5137   -1.5184    0.6423 C   0  0  0  0  0  0  0  0  0  0  0  0
   -7.3435   -0.9722   -0.6166 C   0  0  0  0  0  0  0  0  0  0  0  0
   -8.5298   -0.9844   -1.5177 C   0  0  0  0  0  0  0  0  0  0  0  0
   -8.6030    0.1602   -2.2788 F   0  0  0  0  0  0  0  0  0  0  0  0
   -8.4820   -2.0724   -2.3503 F   0  0  0  0  0  0  0  0  0  0  0  0
   -9.7015   -1.0490   -0.7571 F   0  0  0  0  0  0  0  0  0  0  0  0
   -6.1332   -0.4419   -1.0178 C   0  0  0  0  0  0  0  0  0  0  0  0
   -2.6931   -0.2154    1.1075 H   0  0  0  0  0  0  0  0  0  0  0  0
   -1.7729    1.3681   -2.2068 H   0  0  0  0  0  0  0  0  0  0  0  0
    0.4446    2.2120   -2.6165 H   0  0  0  0  0  0  0  0  0  0  0  0
    2.2555    2.0969   -0.9003 H   0  0  0  0  0  0  0  0  0  0  0  0
    0.7111    1.7496    3.0738 H   0  0  0  0  0  0  0  0  0  0  0  0
    2.4056    1.6507    4.8118 H   0  0  0  0  0  0  0  0  0  0  0  0
    6.3506    0.0158    2.0910 H   0  0  0  0  0  0  0  0  0  0  0  0
    4.6129   -0.4211   -2.2850 H   0  0  0  0  0  0  0  0  0  0  0  0
    6.2150   -1.2092   -3.9875 H   0  0  0  0  0  0  0  0  0  0  0  0
    9.2469   -1.4317   -1.0969 H   0  0  0  0  0  0  0  0  0  0  0  0
    7.6729   -0.6498    0.6126 H   0  0  0  0  0  0  0  0  0  0  0  0
   -0.5112    0.2167    1.7198 H   0  0  0  0  0  0  0  0  0  0  0  0
   -4.3883   -0.9976    1.7700 H   0  0  0  0  0  0  0  0  0  0  0  0
   -6.5113   -1.9316    2.4833 H   0  0  0  0  0  0  0  0  0  0  0  0
   -8.4566   -1.9330    0.9583 H   0  0  0  0  0  0  0  0  0  0  0  0
   -6.0289   -0.0151   -2.0244 H   0  0  0  0  0  0  0  0  0  0  0  0
  1  2  2  0
  2  3  1  0
  3  4  1  0
  4  5  2  0
  5  6  1  0
  6  7  2  0
  7  8  1  0
  8  9  1  0
  9 10  2  0
 10 11  1  0
 11 12  2  0
 12 13  1  0
 13 14  2  0
 14 15  1  0
 15 16  1  0
 16 17  2  0
 17 18  1  0
 18 19  2  0
 19 20  1  0
 20 21  2  0
 15 22  2  0
 22 23  1  0
  8 24  2  0
  2 25  1  0
 25 26  2  0
 26 27  1  0
 27 28  2  0
 28 29  1  0
 29 30  1  0
 30 31  1  0
 30 32  1  0
 30 33  1  0
 29 34  2  0
 24  4  1  0
 34 25  1  0
 23  9  1  0
 23 13  1  0
 21 16  1  0
  3 35  1  0
  5 36  1  0
  6 37  1  0
  7 38  1  0
 10 39  1  0
 11 40  1  0
 14 41  1  0
 17 42  1  0
 18 43  1  0
 20 44  1  0
 21 45  1  0
 24 46  1  0
 26 47  1  0
 27 48  1  0
 28 49  1  0
 34 50  1  0
M  END
$$$$
