@<TRIPOS>MOLECULE
*****
 50 54 0 0 0
SMALL
GASTEIGER

@<TRIPOS>ATOM
      1 O          -3.7281    0.6037   -1.7941 O.2     1  UNL1       -0.2699
      2 C          -3.7633    0.1421   -0.6449 C.2     1  UNL1        0.2483
      3 N          -2.5990    0.1976    0.1283 N.am    1  UNL1       -0.2815
      4 C          -1.3329    0.7250   -0.2217 C.ar    1  UNL1        0.0343
      5 C          -1.0376    1.2896   -1.4291 C.ar    1  UNL1       -0.0404
      6 C           0.2591    1.7733   -1.6435 C.ar    1  UNL1       -0.0594
      7 C           1.2568    1.7205   -0.7251 C.ar    1  UNL1       -0.0524
      8 C           0.9596    1.1481    0.5008 C.ar    1  UNL1        0.0023
      9 C           2.0160    1.0733    1.5212 C.ar    1  UNL1        0.0763
     10 C           1.7174    1.4235    2.8175 C.ar    1  UNL1       -0.0174
     11 C           2.6732    1.3680    3.7992 C.ar    1  UNL1        0.0320
     12 N           3.9148    0.9645    3.4784 N.ar    1  UNL1       -0.2360
     13 C           4.2082    0.6218    2.2105 C.ar    1  UNL1        0.1566
     14 C           5.3876    0.1861    1.6528 C.ar    1  UNL1        0.0102
     15 C           5.1049   -0.0179    0.3007 C.ar    1  UNL1        0.0954
     16 C           6.0410   -0.4808   -0.7059 C.ar    1  UNL1        0.0050
     17 C           5.6362   -0.6387   -1.9956 C.ar    1  UNL1       -0.0344
     18 C           6.5337   -1.0847   -2.9711 C.ar    1  UNL1        0.0282
     19 N           7.8133   -1.3596   -2.6232 N.ar    1  UNL1       -0.2632
     20 C           8.2324   -1.2126   -1.3671 C.ar    1  UNL1        0.0282
     21 C           7.3521   -0.7732   -0.4009 C.ar    1  UNL1       -0.0344
     22 N           3.8195    0.2919    0.1133 N.ar    1  UNL1       -0.1644
     23 N           3.2647    0.6778    1.2474 N.ar    1  UNL1       -0.2135
     24 C          -0.3015    0.6652    0.7412 C.ar    1  UNL1       -0.0313
     25 C          -5.0305   -0.4359   -0.1668 C.ar    1  UNL1        0.0376
     26 C          -5.2085   -0.9793    1.0790 C.ar    1  UNL1       -0.0496
     27 C          -6.4353   -1.5162    1.4840 C.ar    1  UNL1       -0.0605
     28 C          -7.5137   -1.5184    0.6423 C.ar    1  UNL1       -0.0501
     29 C          -7.3435   -0.9722   -0.6166 C.ar    1  UNL1        0.0555
     30 C          -8.5298   -0.9844   -1.5177 C.3     1  UNL1        0.4174
     31 F          -8.6030    0.1602   -2.2788 F       1  UNL1       -0.1659
     32 F          -8.4820   -2.0724   -2.3503 F       1  UNL1       -0.1659
     33 F          -9.7015   -1.0490   -0.7571 F       1  UNL1       -0.1659
     34 C          -6.1332   -0.4419   -1.0178 C.ar    1  UNL1       -0.0380
     35 H          -2.6931   -0.2154    1.1075 H       1  UNL1        0.1551
     36 H          -1.7729    1.3681   -2.2068 H       1  UNL1        0.0636
     37 H           0.4446    2.2120   -2.6165 H       1  UNL1        0.0618
     38 H           2.2555    2.0969   -0.9003 H       1  UNL1        0.0624
     39 H           0.7111    1.7496    3.0738 H       1  UNL1        0.0654
     40 H           2.4056    1.6507    4.8118 H       1  UNL1        0.0831
     41 H           6.3506    0.0158    2.0910 H       1  UNL1        0.0677
     42 H           4.6129   -0.4211   -2.2850 H       1  UNL1        0.0639
     43 H           6.2150   -1.2092   -3.9875 H       1  UNL1        0.0830
     44 H           9.2469   -1.4317   -1.0969 H       1  UNL1        0.0830
     45 H           7.6729   -0.6498    0.6126 H       1  UNL1        0.0639
     46 H          -0.5112    0.2167    1.7198 H       1  UNL1        0.0643
     47 H          -4.3883   -0.9976    1.7700 H       1  UNL1        0.0625
     48 H          -6.5113   -1.9316    2.4833 H       1  UNL1        0.0618
     49 H          -8.4566   -1.9330    0.9583 H       1  UNL1        0.0623
     50 H          -6.0289   -0.0151   -2.0244 H       1  UNL1        0.0631
@<TRIPOS>BOND
     1     1     2    2
     2     2     3   am
     3     3     4    1
     4     4     5   ar
     5     5     6   ar
     6     6     7   ar
     7     7     8   ar
     8     8     9    1
     9     9    10   ar
    10    10    11   ar
    11    11    12   ar
    12    12    13   ar
    13    13    14   ar
    14    14    15   ar
    15    15    16    1
    16    16    17   ar
    17    17    18   ar
    18    18    19   ar
    19    19    20   ar
    20    20    21   ar
    21    15    22   ar
    22    22    23   ar
    23     8    24   ar
    24     2    25    1
    25    25    26   ar
    26    26    27   ar
    27    27    28   ar
    28    28    29   ar
    29    29    30    1
    30    30    31    1
    31    30    32    1
    32    30    33    1
    33    29    34   ar
    34    24     4   ar
    35    34    25   ar
    36    23     9   ar
    37    23    13   ar
    38    21    16   ar
    39     3    35    1
    40     5    36    1
    41     6    37    1
    42     7    38    1
    43    10    39    1
    44    11    40    1
    45    14    41    1
    46    17    42    1
    47    18    43    1
    48    20    44    1
    49    21    45    1
    50    24    46    1
    51    26    47    1
    52    27    48    1
    53    28    49    1
    54    34    50    1
