
     RDKit          3D

 73 77  0  0  0  0  0  0  0  0999 V2000
  -11.9006   -0.3641    0.5232 C   0  0  0  0  0  0  0  0  0  0  0  0
  -10.5147   -0.3359    0.7170 O   0  0  0  0  0  0  0  0  0  0  0  0
   -9.5554   -0.3069   -0.2779 C   0  0  0  0  0  0  0  0  0  0  0  0
   -9.9425   -0.3058   -1.4681 O   0  0  0  0  0  0  0  0  0  0  0  0
   -8.1401   -0.2792    0.0683 C   0  0  0  0  0  0  0  0  0  0  0  0
   -7.1641   -0.2489   -0.9344 C   0  0  0  0  0  0  0  0  0  0  0  0
   -5.8439   -0.2201   -0.5506 C   0  0  0  0  0  0  0  0  0  0  0  0
   -5.4664   -0.2192    0.7564 C   0  0  0  0  0  0  0  0  0  0  0  0
   -6.4429   -0.2509    1.7201 C   0  0  0  0  0  0  0  0  0  0  0  0
   -5.8775   -0.2660    3.0189 N   0  0  0  0  0  0  0  0  0  0  0  0
   -4.4701   -0.2404    2.8627 C   0  0  0  0  0  0  0  0  0  0  0  0
   -3.6394   -0.2444    3.7786 O   0  0  0  0  0  0  0  0  0  0  0  0
   -4.1991   -0.2085    1.4402 C   0  0  0  0  0  0  0  0  0  0  0  0
   -3.0750   -0.1169    0.7837 C   0  0  0  0  0  0  0  0  0  0  0  0
   -1.8746   -0.1253    1.5439 N   0  0  0  0  0  0  0  0  0  0  0  0
   -0.5268   -0.4958    1.3679 C   0  0  0  0  0  0  0  0  0  0  0  0
    0.0664   -1.6963    1.6300 C   0  0  0  0  0  0  0  0  0  0  0  0
    1.4100   -1.8640    1.3883 C   0  0  0  0  0  0  0  0  0  0  0  0
    2.2155   -0.8725    0.8851 C   0  0  0  0  0  0  0  0  0  0  0  0
    1.6530    0.3545    0.6070 C   0  0  0  0  0  0  0  0  0  0  0  0
    0.2843    0.5129    0.8580 C   0  0  0  0  0  0  0  0  0  0  0  0
    3.6192   -1.1263    0.6631 N   0  0  0  0  0  0  0  0  0  0  0  0
    4.1505   -2.4353    0.9650 C   0  0  0  0  0  0  0  0  0  0  0  0
    4.4689   -0.1258    0.1629 C   0  0  0  0  0  0  0  0  0  0  0  0
    5.6853   -0.3902   -0.0073 O   0  0  0  0  0  0  0  0  0  0  0  0
    4.8281    1.1939   -0.3370 C   0  0  0  0  0  0  0  0  0  0  0  0
    6.1701    1.4068   -0.7040 N   0  0  0  0  0  0  0  0  0  0  0  0
    6.5971    0.7215   -1.8555 C   0  0  0  0  0  0  0  0  0  0  0  0
    7.9957    0.1518   -1.8111 C   0  0  0  0  0  0  0  0  0  0  0  0
    8.9010    0.8433   -0.9577 N   0  0  0  0  0  0  0  0  0  0  0  0
    9.5136    0.0325    0.0510 C   0  0  0  0  0  0  0  0  0  0  0  0
    8.4090    2.1074   -0.4429 C   0  0  0  0  0  0  0  0  0  0  0  0
    7.1130    1.7348    0.2945 C   0  0  0  0  0  0  0  0  0  0  0  0
   -2.7483    0.1144   -0.5994 C   0  0  0  0  0  0  0  0  0  0  0  0
   -3.0271    1.1676   -1.4794 C   0  0  0  0  0  0  0  0  0  0  0  0
   -2.6105    1.1539   -2.7863 C   0  0  0  0  0  0  0  0  0  0  0  0
   -1.8944    0.0979   -3.2969 C   0  0  0  0  0  0  0  0  0  0  0  0
   -1.5796   -0.9732   -2.5006 C   0  0  0  0  0  0  0  0  0  0  0  0
   -2.0156   -0.9348   -1.1733 C   0  0  0  0  0  0  0  0  0  0  0  0
   -7.7616   -0.2800    1.3928 C   0  0  0  0  0  0  0  0  0  0  0  0
  -12.4075    0.3304    1.2363 H   0  0  0  0  0  0  0  0  0  0  0  0
  -12.3420   -1.3732    0.6427 H   0  0  0  0  0  0  0  0  0  0  0  0
  -12.1634   -0.0320   -0.5108 H   0  0  0  0  0  0  0  0  0  0  0  0
   -7.5670   -0.2519   -1.9575 H   0  0  0  0  0  0  0  0  0  0  0  0
   -5.2338   -0.2269   -1.4219 H   0  0  0  0  0  0  0  0  0  0  0  0
   -6.3861   -0.2920    3.9509 H   0  0  0  0  0  0  0  0  0  0  0  0
   -1.7620    0.1976    2.5257 H   0  0  0  0  0  0  0  0  0  0  0  0
   -0.5797   -2.4655    2.0254 H   0  0  0  0  0  0  0  0  0  0  0  0
    1.8910   -2.7966    1.5853 H   0  0  0  0  0  0  0  0  0  0  0  0
    2.2311    1.1620    0.2111 H   0  0  0  0  0  0  0  0  0  0  0  0
   -0.0992    1.4966    0.6213 H   0  0  0  0  0  0  0  0  0  0  0  0
    3.8729   -2.7880    1.9789 H   0  0  0  0  0  0  0  0  0  0  0  0
    5.2635   -2.3512    0.9750 H   0  0  0  0  0  0  0  0  0  0  0  0
    3.8329   -3.2213    0.2338 H   0  0  0  0  0  0  0  0  0  0  0  0
    4.2037    1.3541   -1.2707 H   0  0  0  0  0  0  0  0  0  0  0  0
    4.4400    2.0234    0.3398 H   0  0  0  0  0  0  0  0  0  0  0  0
    5.8633   -0.0001   -2.2419 H   0  0  0  0  0  0  0  0  0  0  0  0
    6.6537    1.5038   -2.6870 H   0  0  0  0  0  0  0  0  0  0  0  0
    7.9174   -0.9015   -1.4760 H   0  0  0  0  0  0  0  0  0  0  0  0
    8.4089    0.0709   -2.8593 H   0  0  0  0  0  0  0  0  0  0  0  0
    9.5479    0.5419    1.0252 H   0  0  0  0  0  0  0  0  0  0  0  0
    8.9462   -0.9231    0.1800 H   0  0  0  0  0  0  0  0  0  0  0  0
   10.5726   -0.2476   -0.2059 H   0  0  0  0  0  0  0  0  0  0  0  0
    8.2162    2.7917   -1.2758 H   0  0  0  0  0  0  0  0  0  0  0  0
    9.1510    2.4791    0.2859 H   0  0  0  0  0  0  0  0  0  0  0  0
    7.3806    0.8806    0.9172 H   0  0  0  0  0  0  0  0  0  0  0  0
    6.7317    2.6031    0.8720 H   0  0  0  0  0  0  0  0  0  0  0  0
   -3.6003    1.9387   -0.9466 H   0  0  0  0  0  0  0  0  0  0  0  0
   -2.9071    2.0311   -3.3212 H   0  0  0  0  0  0  0  0  0  0  0  0
   -1.6047    0.1667   -4.3363 H   0  0  0  0  0  0  0  0  0  0  0  0
   -1.0188   -1.7987   -2.9037 H   0  0  0  0  0  0  0  0  0  0  0  0
   -1.7221   -1.8296   -0.6206 H   0  0  0  0  0  0  0  0  0  0  0  0
   -8.5416   -0.3035    2.1326 H   0  0  0  0  0  0  0  0  0  0  0  0
  1  2  1  0
  2  3  1  0
  3  4  2  0
  3  5  1  0
  5  6  2  0
  6  7  1  0
  7  8  2  0
  8  9  1  0
  9 10  1  0
 10 11  1  0
 11 12  2  0
 11 13  1  0
 13 14  2  0
 14 15  1  0
 15 16  1  0
 16 17  2  0
 17 18  1  0
 18 19  2  0
 19 20  1  0
 20 21  2  0
 19 22  1  0
 22 23  1  0
 22 24  1  0
 24 25  2  0
 24 26  1  0
 26 27  1  0
 27 28  1  0
 28 29  1  0
 29 30  1  0
 30 31  1  0
 30 32  1  0
 32 33  1  0
 14 34  1  0
 34 35  2  0
 35 36  1  0
 36 37  2  0
 37 38  1  0
 38 39  2  0
  9 40  2  0
 40  5  1  0
 13  8  1  0
 21 16  1  0
 33 27  1  0
 39 34  1  0
  1 41  1  0
  1 42  1  0
  1 43  1  0
  6 44  1  0
  7 45  1  0
 10 46  1  0
 15 47  1  0
 17 48  1  0
 18 49  1  0
 20 50  1  0
 21 51  1  0
 23 52  1  0
 23 53  1  0
 23 54  1  0
 26 55  1  0
 26 56  1  0
 28 57  1  0
 28 58  1  0
 29 59  1  0
 29 60  1  0
 31 61  1  0
 31 62  1  0
 31 63  1  0
 32 64  1  0
 32 65  1  0
 33 66  1  0
 33 67  1  0
 35 68  1  0
 36 69  1  0
 37 70  1  0
 38 71  1  0
 39 72  1  0
 40 73  1  0
M  END
$$$$
