@<TRIPOS>MOLECULE
*****
 76 80 0 0 0
SMALL
GASTEIGER

@<TRIPOS>ATOM
      1 C          -4.1939    4.7114   -2.9530 C.3     1  UNL1       -0.0397
      2 C          -4.3673    3.5092   -2.0820 C.ar    1  UNL1       -0.0503
      3 C          -3.7309    2.3304   -2.3886 C.ar    1  UNL1       -0.0568
      4 C          -3.8789    1.1961   -1.5879 C.ar    1  UNL1       -0.0359
      5 C          -4.6716    1.2232   -0.4597 C.ar    1  UNL1        0.0674
      6 N          -4.8463    0.0826    0.3877 N.ar    1  UNL1       -0.2181
      7 N          -5.8320   -0.7959    0.3990 N.ar    1  UNL1       -0.1691
      8 C          -5.6565   -1.7369    1.3397 C.ar    1  UNL1        0.0706
      9 C          -6.5694   -2.8964    1.6449 C.3     1  UNL1        0.0063
     10 C          -6.1124   -4.0589    0.7948 C.3     1  UNL1       -0.0546
     11 C          -6.4766   -3.2573    3.0943 C.3     1  UNL1       -0.0546
     12 C          -7.9591   -2.5173    1.2184 C.3     1  UNL1       -0.0546
     13 C          -4.4689   -1.4271    1.9692 C.ar    1  UNL1        0.0021
     14 C          -3.9761   -0.2914    1.3650 C.ar    1  UNL1        0.1299
     15 N          -2.7754    0.4289    1.6489 N.am    1  UNL1       -0.2538
     16 C          -1.5453    0.1073    0.9820 C.2     1  UNL1        0.3092
     17 O          -1.5728   -0.8345    0.1474 O.2     1  UNL1       -0.2521
     18 N          -0.3352    0.8005    1.2288 N.am    1  UNL1       -0.2686
     19 C           0.8873    0.4819    0.5651 C.ar    1  UNL1        0.0427
     20 C           1.7839   -0.4248    1.0745 C.ar    1  UNL1       -0.0364
     21 C           2.9428   -0.6683    0.3529 C.ar    1  UNL1       -0.0176
     22 C           3.2548   -0.0609   -0.8401 C.ar    1  UNL1        0.1283
     23 O           4.3632   -0.2596   -1.5852 O.3     1  UNL1       -0.4901
     24 C           5.4952   -1.0309   -1.4590 C.3     1  UNL1        0.1023
     25 C           6.3143   -0.6310   -0.2865 C.3     1  UNL1        0.0333
     26 N           7.5152   -1.4201   -0.1184 N.3     1  UNL1       -0.2948
     27 C           8.5039   -1.2196   -1.1399 C.3     1  UNL1        0.0225
     28 C           9.4062   -0.0472   -0.8911 C.3     1  UNL1        0.0604
     29 O          10.0568   -0.2817    0.3303 O.3     1  UNL1       -0.3772
     30 C           9.0563   -0.1597    1.3144 C.3     1  UNL1        0.0604
     31 C           8.0614   -1.2946    1.2174 C.3     1  UNL1        0.0225
     32 C           2.3188    0.8635   -1.3401 C.ar    1  UNL1        0.0256
     33 C           2.5945    1.5057   -2.5535 C.ar    1  UNL1       -0.0505
     34 C           1.6595    2.3995   -3.0099 C.ar    1  UNL1       -0.0611
     35 C           0.4930    2.6803   -2.3373 C.ar    1  UNL1       -0.0611
     36 C           0.2481    2.0359   -1.1491 C.ar    1  UNL1       -0.0521
     37 C           1.1735    1.1114   -0.6383 C.ar    1  UNL1        0.0069
     38 C          -5.3042    2.4130   -0.1642 C.ar    1  UNL1       -0.0359
     39 C          -5.1603    3.5364   -0.9533 C.ar    1  UNL1       -0.0568
     40 H          -4.7348    4.6142   -3.9145 H       1  UNL1        0.0278
     41 H          -3.1271    4.9181   -3.1742 H       1  UNL1        0.0278
     42 H          -4.5637    5.5942   -2.3587 H       1  UNL1        0.0278
     43 H          -3.0996    2.3015   -3.2841 H       1  UNL1        0.0621
     44 H          -3.3725    0.2890   -1.8479 H       1  UNL1        0.0639
     45 H          -5.3687   -4.6832    1.3506 H       1  UNL1        0.0239
     46 H          -5.6977   -3.7214   -0.1841 H       1  UNL1        0.0239
     47 H          -6.9937   -4.7387    0.6240 H       1  UNL1        0.0239
     48 H          -7.1122   -4.1679    3.2442 H       1  UNL1        0.0239
     49 H          -6.8838   -2.4767    3.7531 H       1  UNL1        0.0239
     50 H          -5.4525   -3.5535    3.3277 H       1  UNL1        0.0239
     51 H          -8.4263   -3.3230    0.6085 H       1  UNL1        0.0239
     52 H          -8.5744   -2.2570    2.1009 H       1  UNL1        0.0239
     53 H          -7.9249   -1.6221    0.5677 H       1  UNL1        0.0239
     54 H          -4.0089   -1.9687    2.7811 H       1  UNL1        0.0671
     55 H          -2.7599    1.2084    2.3435 H       1  UNL1        0.1578
     56 H          -0.3059    1.5813    1.9199 H       1  UNL1        0.1564
     57 H           1.5509   -0.9063    2.0081 H       1  UNL1        0.0637
     58 H           3.6008   -1.4023    0.7894 H       1  UNL1        0.0655
     59 H           5.1327   -2.1073   -1.3620 H       1  UNL1        0.0709
     60 H           6.0584   -0.9494   -2.4283 H       1  UNL1        0.0709
     61 H           5.7479   -0.7117    0.6395 H       1  UNL1        0.0460
     62 H           6.5977    0.4394   -0.3966 H       1  UNL1        0.0460
     63 H           9.1674   -2.1343   -1.1157 H       1  UNL1        0.0449
     64 H           8.0519   -1.2074   -2.1281 H       1  UNL1        0.0449
     65 H          10.1809   -0.0522   -1.6846 H       1  UNL1        0.0572
     66 H           8.8896    0.9121   -0.8306 H       1  UNL1        0.0572
     67 H           8.5448    0.8028    1.0914 H       1  UNL1        0.0572
     68 H           9.5387   -0.2031    2.2891 H       1  UNL1        0.0572
     69 H           8.5238   -2.2312    1.5893 H       1  UNL1        0.0449
     70 H           7.2317   -1.0426    1.9177 H       1  UNL1        0.0449
     71 H           3.5129    1.2832   -3.0808 H       1  UNL1        0.0625
     72 H           1.8563    2.9122   -3.9566 H       1  UNL1        0.0618
     73 H          -0.2156    3.3995   -2.7460 H       1  UNL1        0.0618
     74 H          -0.6652    2.2243   -0.5757 H       1  UNL1        0.0624
     75 H          -5.9285    2.4149    0.7346 H       1  UNL1        0.0639
     76 H          -5.6664    4.4613   -0.7030 H       1  UNL1        0.0621
@<TRIPOS>BOND
     1     1     2    1
     2     2     3   ar
     3     3     4   ar
     4     4     5   ar
     5     5     6    1
     6     6     7   ar
     7     7     8   ar
     8     8     9    1
     9     9    10    1
    10     9    11    1
    11     9    12    1
    12     8    13   ar
    13    13    14   ar
    14    14    15    1
    15    15    16   am
    16    16    17    2
    17    16    18   am
    18    18    19    1
    19    19    20   ar
    20    20    21   ar
    21    21    22   ar
    22    22    23    1
    23    23    24    1
    24    24    25    1
    25    25    26    1
    26    26    27    1
    27    27    28    1
    28    28    29    1
    29    29    30    1
    30    30    31    1
    31    22    32   ar
    32    32    33   ar
    33    33    34   ar
    34    34    35   ar
    35    35    36   ar
    36    36    37   ar
    37     5    38   ar
    38    38    39   ar
    39    39     2   ar
    40    14     6   ar
    41    37    19   ar
    42    31    26    1
    43    37    32   ar
    44     1    40    1
    45     1    41    1
    46     1    42    1
    47     3    43    1
    48     4    44    1
    49    10    45    1
    50    10    46    1
    51    10    47    1
    52    11    48    1
    53    11    49    1
    54    11    50    1
    55    12    51    1
    56    12    52    1
    57    12    53    1
    58    13    54    1
    59    15    55    1
    60    18    56    1
    61    20    57    1
    62    21    58    1
    63    24    59    1
    64    24    60    1
    65    25    61    1
    66    25    62    1
    67    27    63    1
    68    27    64    1
    69    28    65    1
    70    28    66    1
    71    30    67    1
    72    30    68    1
    73    31    69    1
    74    31    70    1
    75    33    71    1
    76    34    72    1
    77    35    73    1
    78    36    74    1
    79    38    75    1
    80    39    76    1
