
     RDKit          3D

 71 75  0  0  0  0  0  0  0  0999 V2000
    7.3197   -0.2996   -1.1483 C   0  0  0  0  0  0  0  0  0  0  0  0
    7.5685    0.4022    0.1761 C   0  0  0  0  0  0  0  0  0  0  0  0
    7.6146   -0.5033    1.2941 N   0  0  0  0  0  0  0  0  0  0  0  0
    8.9124   -1.0760    1.6554 C   0  0  0  0  0  0  0  0  0  0  0  0
    6.4799   -0.8528    2.0430 C   0  0  0  0  0  0  0  0  0  0  0  0
    6.5388   -1.6488    3.0288 O   0  0  0  0  0  0  0  0  0  0  0  0
    5.1597   -0.3198    1.7292 C   0  0  0  0  0  0  0  0  0  0  0  0
    4.1388   -1.1573    1.2634 C   0  0  0  0  0  0  0  0  0  0  0  0
    2.8983   -0.6596    0.9541 C   0  0  0  0  0  0  0  0  0  0  0  0
    2.6109    0.7014    1.0934 C   0  0  0  0  0  0  0  0  0  0  0  0
    3.6085    1.5241    1.5457 C   0  0  0  0  0  0  0  0  0  0  0  0
    4.8520    1.0068    1.8557 C   0  0  0  0  0  0  0  0  0  0  0  0
    3.1630    2.9073    1.4892 N   0  0  0  0  0  0  0  0  0  0  0  0
    1.8404    2.8810    0.9662 C   0  0  0  0  0  0  0  0  0  0  0  0
    1.2613    3.9546    0.6206 O   0  0  0  0  0  0  0  0  0  0  0  0
    1.3953    1.5061    0.9357 C   0  0  0  0  0  0  0  0  0  0  0  0
    0.5354    1.1092   -0.2229 C   0  0  0  0  0  0  0  0  0  0  0  0
   -0.6171    0.7791    0.0624 N   0  0  0  0  0  0  0  0  0  0  0  0
   -1.8326    0.3609   -0.2819 C   0  0  0  0  0  0  0  0  0  0  0  0
   -2.8083    1.1860   -0.8452 C   0  0  0  0  0  0  0  0  0  0  0  0
   -4.0475    0.7059   -1.1199 C   0  0  0  0  0  0  0  0  0  0  0  0
   -4.4126   -0.6120   -0.8626 C   0  0  0  0  0  0  0  0  0  0  0  0
   -5.8023   -1.0225   -1.1940 C   0  0  0  0  0  0  0  0  0  0  0  0
   -6.6541   -0.6897   -0.1051 N   0  0  0  0  0  0  0  0  0  0  0  0
   -6.3849   -1.2894    1.1527 C   0  0  0  0  0  0  0  0  0  0  0  0
   -7.5994   -1.6646    1.9516 C   0  0  0  0  0  0  0  0  0  0  0  0
   -8.7129   -0.6741    1.9245 C   0  0  0  0  0  0  0  0  0  0  0  0
   -8.6932    0.1907    0.7125 C   0  0  0  0  0  0  0  0  0  0  0  0
   -8.0423   -0.5942   -0.4274 C   0  0  0  0  0  0  0  0  0  0  0  0
   -3.4739   -1.4442   -0.3131 C   0  0  0  0  0  0  0  0  0  0  0  0
   -2.2174   -0.9612   -0.0328 C   0  0  0  0  0  0  0  0  0  0  0  0
    1.0387    1.1060   -1.5859 C   0  0  0  0  0  0  0  0  0  0  0  0
    2.3177    1.5185   -1.8803 C   0  0  0  0  0  0  0  0  0  0  0  0
    2.8156    1.4874   -3.1742 C   0  0  0  0  0  0  0  0  0  0  0  0
    2.0429    1.0404   -4.2152 C   0  0  0  0  0  0  0  0  0  0  0  0
    0.7398    0.6146   -3.9549 C   0  0  0  0  0  0  0  0  0  0  0  0
    0.2726    0.6617   -2.6304 C   0  0  0  0  0  0  0  0  0  0  0  0
    8.2433   -0.4097   -1.7544 H   0  0  0  0  0  0  0  0  0  0  0  0
    6.6516    0.3654   -1.7636 H   0  0  0  0  0  0  0  0  0  0  0  0
    6.8595   -1.2824   -1.0349 H   0  0  0  0  0  0  0  0  0  0  0  0
    6.8434    1.2251    0.3308 H   0  0  0  0  0  0  0  0  0  0  0  0
    8.5555    0.9390    0.0509 H   0  0  0  0  0  0  0  0  0  0  0  0
    8.9799   -1.0497    2.7574 H   0  0  0  0  0  0  0  0  0  0  0  0
    9.7408   -0.3959    1.3034 H   0  0  0  0  0  0  0  0  0  0  0  0
    9.0549   -2.0703    1.2253 H   0  0  0  0  0  0  0  0  0  0  0  0
    4.3786   -2.1981    1.1571 H   0  0  0  0  0  0  0  0  0  0  0  0
    2.0922   -1.3113    0.5839 H   0  0  0  0  0  0  0  0  0  0  0  0
    5.6158    1.7120    2.2360 H   0  0  0  0  0  0  0  0  0  0  0  0
    3.7360    3.7293    1.7872 H   0  0  0  0  0  0  0  0  0  0  0  0
    0.7816    1.3307    1.8665 H   0  0  0  0  0  0  0  0  0  0  0  0
   -2.4978    2.2074   -1.0401 H   0  0  0  0  0  0  0  0  0  0  0  0
   -4.7589    1.4036   -1.5564 H   0  0  0  0  0  0  0  0  0  0  0  0
   -5.7813   -2.1118   -1.4142 H   0  0  0  0  0  0  0  0  0  0  0  0
   -6.1312   -0.4949   -2.1043 H   0  0  0  0  0  0  0  0  0  0  0  0
   -5.7808   -2.2279    1.0645 H   0  0  0  0  0  0  0  0  0  0  0  0
   -5.7254   -0.5915    1.7307 H   0  0  0  0  0  0  0  0  0  0  0  0
   -7.2738   -1.8185    3.0042 H   0  0  0  0  0  0  0  0  0  0  0  0
   -7.9620   -2.6648    1.5754 H   0  0  0  0  0  0  0  0  0  0  0  0
   -8.7201   -0.0139    2.8314 H   0  0  0  0  0  0  0  0  0  0  0  0
   -9.7127   -1.1975    1.9701 H   0  0  0  0  0  0  0  0  0  0  0  0
   -8.0206    1.0580    0.9134 H   0  0  0  0  0  0  0  0  0  0  0  0
   -9.6959    0.5336    0.3706 H   0  0  0  0  0  0  0  0  0  0  0  0
   -8.1383   -0.0190   -1.3704 H   0  0  0  0  0  0  0  0  0  0  0  0
   -8.5493   -1.5586   -0.4705 H   0  0  0  0  0  0  0  0  0  0  0  0
   -3.7335   -2.4782   -0.1111 H   0  0  0  0  0  0  0  0  0  0  0  0
   -1.4685   -1.6355    0.4042 H   0  0  0  0  0  0  0  0  0  0  0  0
    3.0047    1.8925   -1.1399 H   0  0  0  0  0  0  0  0  0  0  0  0
    3.8227    1.8137   -3.3916 H   0  0  0  0  0  0  0  0  0  0  0  0
    2.4164    1.0079   -5.2240 H   0  0  0  0  0  0  0  0  0  0  0  0
    0.0874    0.2497   -4.7344 H   0  0  0  0  0  0  0  0  0  0  0  0
   -0.7404    0.3025   -2.5134 H   0  0  0  0  0  0  0  0  0  0  0  0
  1  2  1  0
  2  3  1  0
  3  4  1  0
  3  5  1  0
  5  6  2  0
  5  7  1  0
  7  8  2  0
  8  9  1  0
  9 10  2  0
 10 11  1  0
 11 12  2  0
 11 13  1  0
 13 14  1  0
 14 15  2  0
 14 16  1  0
 16 17  1  0
 17 18  2  3
 18 19  1  0
 19 20  2  0
 20 21  1  0
 21 22  2  0
 22 23  1  0
 23 24  1  0
 24 25  1  0
 25 26  1  0
 26 27  1  0
 27 28  1  0
 28 29  1  0
 22 30  1  0
 30 31  2  0
 17 32  1  0
 32 33  2  0
 33 34  1  0
 34 35  2  0
 35 36  1  0
 36 37  2  0
 12  7  1  0
 31 19  1  0
 37 32  1  0
 16 10  1  0
 29 24  1  0
  1 38  1  0
  1 39  1  0
  1 40  1  0
  2 41  1  0
  2 42  1  0
  4 43  1  0
  4 44  1  0
  4 45  1  0
  8 46  1  0
  9 47  1  0
 12 48  1  0
 13 49  1  0
 16 50  1  0
 20 51  1  0
 21 52  1  0
 23 53  1  0
 23 54  1  0
 25 55  1  0
 25 56  1  0
 26 57  1  0
 26 58  1  0
 27 59  1  0
 27 60  1  0
 28 61  1  0
 28 62  1  0
 29 63  1  0
 29 64  1  0
 30 65  1  0
 31 66  1  0
 33 67  1  0
 34 68  1  0
 35 69  1  0
 36 70  1  0
 37 71  1  0
M  END
$$$$
