@<TRIPOS>MOLECULE
*****
 71 75 0 0 0
SMALL
GASTEIGER

@<TRIPOS>ATOM
      1 C           7.3197   -0.2996   -1.1483 C.3     1  UNL1       -0.0493
      2 C           7.5685    0.4022    0.1761 C.3     1  UNL1        0.0118
      3 N           7.6146   -0.5033    1.2941 N.am    1  UNL1       -0.3008
      4 C           8.9124   -1.0760    1.6554 C.3     1  UNL1        0.0034
      5 C           6.4799   -0.8528    2.0430 C.2     1  UNL1        0.2464
      6 O           6.5388   -1.6488    3.0288 O.2     1  UNL1       -0.2700
      7 C           5.1597   -0.3198    1.7292 C.ar    1  UNL1        0.0387
      8 C           4.1388   -1.1573    1.2634 C.ar    1  UNL1       -0.0492
      9 C           2.8983   -0.6596    0.9541 C.ar    1  UNL1       -0.0550
     10 C           2.6109    0.7014    1.0934 C.ar    1  UNL1       -0.0084
     11 C           3.6085    1.5241    1.5457 C.ar    1  UNL1        0.0384
     12 C           4.8520    1.0068    1.8557 C.ar    1  UNL1       -0.0281
     13 N           3.1630    2.9073    1.4892 N.am    1  UNL1       -0.2844
     14 C           1.8404    2.8810    0.9662 C.2     1  UNL1        0.2306
     15 O           1.2613    3.9546    0.6206 O.2     1  UNL1       -0.2744
     16 C           1.3953    1.5061    0.9357 C.3     1  UNL1        0.1051
     17 C           0.5354    1.1092   -0.2229 C.2     1  UNL1        0.0653
     18 N          -0.6171    0.7791    0.0624 N.2     1  UNL1       -0.2505
     19 C          -1.8326    0.3609   -0.2819 C.ar    1  UNL1        0.0642
     20 C          -2.8083    1.1860   -0.8452 C.ar    1  UNL1       -0.0360
     21 C          -4.0475    0.7059   -1.1199 C.ar    1  UNL1       -0.0553
     22 C          -4.4126   -0.6120   -0.8626 C.ar    1  UNL1       -0.0332
     23 C          -5.8023   -1.0225   -1.1940 C.3     1  UNL1        0.0240
     24 N          -6.6541   -0.6897   -0.1051 N.3     1  UNL1       -0.2982
     25 C          -6.3849   -1.2894    1.1527 C.3     1  UNL1       -0.0008
     26 C          -7.5994   -1.6646    1.9516 C.3     1  UNL1       -0.0402
     27 C          -8.7129   -0.6741    1.9245 C.3     1  UNL1       -0.0507
     28 C          -8.6932    0.1907    0.7125 C.3     1  UNL1       -0.0402
     29 C          -8.0423   -0.5942   -0.4274 C.3     1  UNL1       -0.0008
     30 C          -3.4739   -1.4442   -0.3131 C.ar    1  UNL1       -0.0553
     31 C          -2.2174   -0.9612   -0.0328 C.ar    1  UNL1       -0.0360
     32 C           1.0387    1.1060   -1.5859 C.ar    1  UNL1       -0.0027
     33 C           2.3177    1.5185   -1.8803 C.ar    1  UNL1       -0.0528
     34 C           2.8156    1.4874   -3.1742 C.ar    1  UNL1       -0.0611
     35 C           2.0429    1.0404   -4.2152 C.ar    1  UNL1       -0.0617
     36 C           0.7398    0.6146   -3.9549 C.ar    1  UNL1       -0.0611
     37 C           0.2726    0.6617   -2.6304 C.ar    1  UNL1       -0.0528
     38 H           8.2433   -0.4097   -1.7544 H       1  UNL1        0.0245
     39 H           6.6516    0.3654   -1.7636 H       1  UNL1        0.0245
     40 H           6.8595   -1.2824   -1.0349 H       1  UNL1        0.0245
     41 H           6.8434    1.2251    0.3308 H       1  UNL1        0.0462
     42 H           8.5555    0.9390    0.0509 H       1  UNL1        0.0462
     43 H           8.9799   -1.0497    2.7574 H       1  UNL1        0.0429
     44 H           9.7408   -0.3959    1.3034 H       1  UNL1        0.0429
     45 H           9.0549   -2.0703    1.2253 H       1  UNL1        0.0429
     46 H           4.3786   -2.1981    1.1571 H       1  UNL1        0.0625
     47 H           2.0922   -1.3113    0.5839 H       1  UNL1        0.0621
     48 H           5.6158    1.7120    2.2360 H       1  UNL1        0.0644
     49 H           3.7360    3.7293    1.7872 H       1  UNL1        0.1548
     50 H           0.7816    1.3307    1.8665 H       1  UNL1        0.0508
     51 H          -2.4978    2.2074   -1.0401 H       1  UNL1        0.0639
     52 H          -4.7589    1.4036   -1.5564 H       1  UNL1        0.0621
     53 H          -5.7813   -2.1118   -1.4142 H       1  UNL1        0.0476
     54 H          -6.1312   -0.4949   -2.1043 H       1  UNL1        0.0476
     55 H          -5.7808   -2.2279    1.0645 H       1  UNL1        0.0427
     56 H          -5.7254   -0.5915    1.7307 H       1  UNL1        0.0427
     57 H          -7.2738   -1.8185    3.0042 H       1  UNL1        0.0278
     58 H          -7.9620   -2.6648    1.5754 H       1  UNL1        0.0278
     59 H          -8.7201   -0.0139    2.8314 H       1  UNL1        0.0266
     60 H          -9.7127   -1.1975    1.9701 H       1  UNL1        0.0266
     61 H          -8.0206    1.0580    0.9134 H       1  UNL1        0.0278
     62 H          -9.6959    0.5336    0.3706 H       1  UNL1        0.0278
     63 H          -8.1383   -0.0190   -1.3704 H       1  UNL1        0.0427
     64 H          -8.5493   -1.5586   -0.4705 H       1  UNL1        0.0427
     65 H          -3.7335   -2.4782   -0.1111 H       1  UNL1        0.0621
     66 H          -1.4685   -1.6355    0.4042 H       1  UNL1        0.0639
     67 H           3.0047    1.8925   -1.1399 H       1  UNL1        0.0624
     68 H           3.8227    1.8137   -3.3916 H       1  UNL1        0.0618
     69 H           2.4164    1.0079   -5.2240 H       1  UNL1        0.0618
     70 H           0.0874    0.2497   -4.7344 H       1  UNL1        0.0618
     71 H          -0.7404    0.3025   -2.5134 H       1  UNL1        0.0624
@<TRIPOS>BOND
     1     1     2    1
     2     2     3    1
     3     3     4    1
     4     3     5   am
     5     5     6    2
     6     5     7    1
     7     7     8   ar
     8     8     9   ar
     9     9    10   ar
    10    10    11   ar
    11    11    12   ar
    12    11    13    1
    13    13    14   am
    14    14    15    2
    15    14    16    1
    16    16    17    1
    17    17    18    2
    18    18    19    1
    19    19    20   ar
    20    20    21   ar
    21    21    22   ar
    22    22    23    1
    23    23    24    1
    24    24    25    1
    25    25    26    1
    26    26    27    1
    27    27    28    1
    28    28    29    1
    29    22    30   ar
    30    30    31   ar
    31    17    32    1
    32    32    33   ar
    33    33    34   ar
    34    34    35   ar
    35    35    36   ar
    36    36    37   ar
    37    12     7   ar
    38    31    19   ar
    39    37    32   ar
    40    16    10    1
    41    29    24    1
    42     1    38    1
    43     1    39    1
    44     1    40    1
    45     2    41    1
    46     2    42    1
    47     4    43    1
    48     4    44    1
    49     4    45    1
    50     8    46    1
    51     9    47    1
    52    12    48    1
    53    13    49    1
    54    16    50    1
    55    20    51    1
    56    21    52    1
    57    23    53    1
    58    23    54    1
    59    25    55    1
    60    25    56    1
    61    26    57    1
    62    26    58    1
    63    27    59    1
    64    27    60    1
    65    28    61    1
    66    28    62    1
    67    29    63    1
    68    29    64    1
    69    30    65    1
    70    31    66    1
    71    33    67    1
    72    34    68    1
    73    35    69    1
    74    36    70    1
    75    37    71    1
