@<TRIPOS>MOLECULE
*****
 30 32 0 0 0
SMALL
GASTEIGER

@<TRIPOS>ATOM
      1 N           4.0441    5.3678   -2.0222 N.1     1  UNL1       -0.1909
      2 C           3.3338    4.6212   -1.3503 C.1     1  UNL1        0.0992
      3 C           2.5193    3.7958   -0.5802 C.ar    1  UNL1        0.0538
      4 C           2.1465    4.1161    0.7381 C.ar    1  UNL1       -0.0260
      5 C           1.3385    3.3028    1.5000 C.ar    1  UNL1        0.0428
      6 CL          0.9384    3.8182    3.1274 Cl      1  UNL1       -0.0835
      7 C           0.8673    2.1163    0.9562 C.ar    1  UNL1       -0.0341
      8 C           1.2018    1.7613   -0.3200 C.ar    1  UNL1        0.0031
      9 C           0.7146    0.5224   -0.9392 C.ar    1  UNL1        0.0749
     10 C          -0.1182   -0.3597   -0.3031 C.ar    1  UNL1       -0.0081
     11 C          -0.5786   -1.5081   -0.9087 C.ar    1  UNL1        0.0929
     12 C          -1.4623   -2.4578   -0.2583 C.ar    1  UNL1        0.0894
     13 C          -1.8930   -2.2540    1.0313 C.ar    1  UNL1       -0.0315
     14 C          -2.7414   -3.1895    1.5939 C.ar    1  UNL1       -0.0229
     15 C          -3.1380   -4.2916    0.8747 C.ar    1  UNL1        0.1414
     16 F          -3.9811   -5.2097    1.4460 F       1  UNL1       -0.2039
     17 C          -2.6926   -4.4701   -0.4067 C.ar    1  UNL1        0.0635
     18 N          -1.8716   -3.5377   -0.9125 N.ar    1  UNL1       -0.2506
     19 N          -0.1674   -1.7436   -2.1931 N.ar    1  UNL1       -0.2338
     20 C           0.6406   -0.8952   -2.8179 C.ar    1  UNL1        0.1173
     21 N           1.0607    0.1961   -2.2032 N.ar    1  UNL1       -0.2354
     22 C           2.0102    2.5891   -1.0632 C.ar    1  UNL1       -0.0351
     23 H           2.5603    5.0584    1.0866 H       1  UNL1        0.0645
     24 H           0.2326    1.4972    1.5850 H       1  UNL1        0.0639
     25 H          -0.4387   -0.1613    0.7192 H       1  UNL1        0.0661
     26 H          -1.6213   -1.4250    1.6358 H       1  UNL1        0.0640
     27 H          -3.0984   -3.0517    2.6232 H       1  UNL1        0.0647
     28 H          -2.9978   -5.3374   -0.9882 H       1  UNL1        0.0859
     29 H           0.9246   -1.1625   -3.8450 H       1  UNL1        0.1047
     30 H           2.2672    2.2920   -2.0643 H       1  UNL1        0.0637
@<TRIPOS>BOND
     1     1     2    3
     2     2     3    1
     3     3     4   ar
     4     4     5   ar
     5     5     6    1
     6     5     7   ar
     7     7     8   ar
     8     8     9    1
     9     9    10   ar
    10    10    11   ar
    11    11    12    1
    12    12    13   ar
    13    13    14   ar
    14    14    15   ar
    15    15    16    1
    16    15    17   ar
    17    17    18   ar
    18    11    19   ar
    19    19    20   ar
    20    20    21   ar
    21     8    22   ar
    22    22     3   ar
    23    21     9   ar
    24    18    12   ar
    25     4    23    1
    26     7    24    1
    27    10    25    1
    28    13    26    1
    29    14    27    1
    30    17    28    1
    31    20    29    1
    32    22    30    1
