
     RDKit          3D

 30 32  0  0  0  0  0  0  0  0999 V2000
    4.0441    5.3678   -2.0222 N   0  0  0  0  0  0  0  0  0  0  0  0
    3.3338    4.6212   -1.3503 C   0  0  0  0  0  0  0  0  0  0  0  0
    2.5193    3.7958   -0.5802 C   0  0  0  0  0  0  0  0  0  0  0  0
    2.1465    4.1161    0.7381 C   0  0  0  0  0  0  0  0  0  0  0  0
    1.3385    3.3028    1.5000 C   0  0  0  0  0  0  0  0  0  0  0  0
    0.9384    3.8182    3.1274 Cl  0  0  0  0  0  0  0  0  0  0  0  0
    0.8673    2.1163    0.9562 C   0  0  0  0  0  0  0  0  0  0  0  0
    1.2018    1.7613   -0.3200 C   0  0  0  0  0  0  0  0  0  0  0  0
    0.7146    0.5224   -0.9392 C   0  0  0  0  0  0  0  0  0  0  0  0
   -0.1182   -0.3597   -0.3031 C   0  0  0  0  0  0  0  0  0  0  0  0
   -0.5786   -1.5081   -0.9087 C   0  0  0  0  0  0  0  0  0  0  0  0
   -1.4623   -2.4578   -0.2583 C   0  0  0  0  0  0  0  0  0  0  0  0
   -1.8930   -2.2540    1.0313 C   0  0  0  0  0  0  0  0  0  0  0  0
   -2.7414   -3.1895    1.5939 C   0  0  0  0  0  0  0  0  0  0  0  0
   -3.1380   -4.2916    0.8747 C   0  0  0  0  0  0  0  0  0  0  0  0
   -3.9811   -5.2097    1.4460 F   0  0  0  0  0  0  0  0  0  0  0  0
   -2.6926   -4.4701   -0.4067 C   0  0  0  0  0  0  0  0  0  0  0  0
   -1.8716   -3.5377   -0.9125 N   0  0  0  0  0  0  0  0  0  0  0  0
   -0.1674   -1.7436   -2.1931 N   0  0  0  0  0  0  0  0  0  0  0  0
    0.6406   -0.8952   -2.8179 C   0  0  0  0  0  0  0  0  0  0  0  0
    1.0607    0.1961   -2.2032 N   0  0  0  0  0  0  0  0  0  0  0  0
    2.0102    2.5891   -1.0632 C   0  0  0  0  0  0  0  0  0  0  0  0
    2.5603    5.0584    1.0866 H   0  0  0  0  0  0  0  0  0  0  0  0
    0.2326    1.4972    1.5850 H   0  0  0  0  0  0  0  0  0  0  0  0
   -0.4387   -0.1613    0.7192 H   0  0  0  0  0  0  0  0  0  0  0  0
   -1.6213   -1.4250    1.6358 H   0  0  0  0  0  0  0  0  0  0  0  0
   -3.0984   -3.0517    2.6232 H   0  0  0  0  0  0  0  0  0  0  0  0
   -2.9978   -5.3374   -0.9882 H   0  0  0  0  0  0  0  0  0  0  0  0
    0.9246   -1.1625   -3.8450 H   0  0  0  0  0  0  0  0  0  0  0  0
    2.2672    2.2920   -2.0643 H   0  0  0  0  0  0  0  0  0  0  0  0
  1  2  3  0
  2  3  1  0
  3  4  2  0
  4  5  1  0
  5  6  1  0
  5  7  2  0
  7  8  1  0
  8  9  1  0
  9 10  2  0
 10 11  1  0
 11 12  1  0
 12 13  2  0
 13 14  1  0
 14 15  2  0
 15 16  1  0
 15 17  1  0
 17 18  2  0
 11 19  2  0
 19 20  1  0
 20 21  2  0
  8 22  2  0
 22  3  1  0
 21  9  1  0
 18 12  1  0
  4 23  1  0
  7 24  1  0
 10 25  1  0
 13 26  1  0
 14 27  1  0
 17 28  1  0
 20 29  1  0
 22 30  1  0
M  END
$$$$
