@<TRIPOS>MOLECULE
*****
 51 53 0 0 0
SMALL
GASTEIGER

@<TRIPOS>ATOM
      1 C           8.5604    0.7196    0.7489 C.3     1  UNL1        0.0789
      2 O           7.8157   -0.4250    1.0769 O.3     1  UNL1       -0.4936
      3 C           6.4677   -0.4739    0.7306 C.ar    1  UNL1        0.1384
      4 C           5.7525   -1.5975    1.0570 C.ar    1  UNL1        0.0700
      5 N           4.4694   -1.6779    0.7420 N.ar    1  UNL1       -0.2465
      6 C           3.7751   -0.6839    0.0886 C.ar    1  UNL1        0.1288
      7 C           2.3864   -0.9316   -0.1521 C.2     1  UNL1        0.2668
      8 O           1.8149   -1.8152    0.6054 O.2     1  UNL1       -0.2682
      9 N           1.5192   -0.3646   -1.1013 N.am    1  UNL1       -0.2801
     10 C           0.1308   -0.7355   -1.1901 C.ar    1  UNL1        0.0369
     11 C          -0.2097   -1.7815   -2.0154 C.ar    1  UNL1       -0.0023
     12 C          -1.5329   -2.1766   -2.1349 C.ar    1  UNL1        0.1605
     13 F          -1.8844   -3.2071   -2.9454 F       1  UNL1       -0.2024
     14 C          -2.5404   -1.5435   -1.4403 C.ar    1  UNL1        0.1640
     15 F          -3.8484   -1.9541   -1.5754 F       1  UNL1       -0.2021
     16 C          -2.1933   -0.4918   -0.6113 C.ar    1  UNL1        0.0197
     17 C          -3.2935    0.1962    0.1470 C.3     1  UNL1        0.0952
     18 C          -2.6102    1.3366    0.9162 C.3     1  UNL1       -0.0352
     19 C          -3.9002   -0.7001    1.1878 C.3     1  UNL1        0.0223
     20 C          -5.3781   -0.7846    1.2089 C.3     1  UNL1        0.1997
     21 C          -6.0530    0.0770    2.2576 C.3     1  UNL1        0.4266
     22 F          -7.4265   -0.1714    2.0904 F       1  UNL1       -0.1669
     23 F          -5.7257   -0.2720    3.5347 F       1  UNL1       -0.1669
     24 F          -5.9186    1.4310    2.0103 F       1  UNL1       -0.1669
     25 O          -5.9946   -0.5264   -0.0068 O.2     1  UNL1       -0.4534
     26 C          -5.4810    0.4279   -0.8659 C.2     1  UNL1        0.2765
     27 N          -6.3748    1.0048   -1.8043 N.pl3   1  UNL1       -0.3134
     28 N          -4.2478    0.7471   -0.7841 N.2     1  UNL1       -0.2257
     29 C          -0.8724   -0.1004   -0.4944 C.ar    1  UNL1       -0.0321
     30 C           4.4842    0.4187   -0.2276 C.ar    1  UNL1       -0.0165
     31 C           3.8494    1.5744   -0.8825 C.3     1  UNL1       -0.0374
     32 C           5.8351    0.5528    0.0802 C.ar    1  UNL1       -0.0134
     33 H           8.3737    1.0239   -0.2888 H       1  UNL1        0.0660
     34 H           8.2652    1.5378    1.4510 H       1  UNL1        0.0660
     35 H           9.6593    0.4925    0.8626 H       1  UNL1        0.0660
     36 H           6.2312   -2.4140    1.5684 H       1  UNL1        0.0867
     37 H           1.8859    0.3213   -1.7770 H       1  UNL1        0.1552
     38 H           0.5768   -2.2989   -2.5773 H       1  UNL1        0.0666
     39 H          -3.3568    1.9506    1.4735 H       1  UNL1        0.0256
     40 H          -2.0935    2.0185    0.2121 H       1  UNL1        0.0256
     41 H          -1.9034    0.8885    1.6419 H       1  UNL1        0.0256
     42 H          -3.5068   -0.4874    2.2103 H       1  UNL1        0.0330
     43 H          -3.4951   -1.7347    0.9605 H       1  UNL1        0.0330
     44 H          -5.6551   -1.8378    1.4892 H       1  UNL1        0.0826
     45 H          -6.8281    1.9059   -1.6167 H       1  UNL1        0.1466
     46 H          -6.5693    0.5059   -2.6893 H       1  UNL1        0.1466
     47 H          -0.5643    0.7257    0.1524 H       1  UNL1        0.0640
     48 H           2.8729    1.8554   -0.4761 H       1  UNL1        0.0278
     49 H           4.5110    2.4863   -0.6908 H       1  UNL1        0.0278
     50 H           3.8413    1.4591   -1.9732 H       1  UNL1        0.0278
     51 H           6.3797    1.4416   -0.1837 H       1  UNL1        0.0658
@<TRIPOS>BOND
     1     1     2    1
     2     2     3    1
     3     3     4   ar
     4     4     5   ar
     5     5     6   ar
     6     6     7    1
     7     7     8    2
     8     7     9   am
     9     9    10    1
    10    10    11   ar
    11    11    12   ar
    12    12    13    1
    13    12    14   ar
    14    14    15    1
    15    14    16   ar
    16    16    17    1
    17    17    18    1
    18    17    19    1
    19    19    20    1
    20    20    21    1
    21    21    22    1
    22    21    23    1
    23    21    24    1
    24    20    25    1
    25    25    26    1
    26    26    27    1
    27    26    28    2
    28    16    29   ar
    29     6    30   ar
    30    30    31    1
    31    30    32   ar
    32    32     3   ar
    33    29    10   ar
    34    28    17    1
    35     1    33    1
    36     1    34    1
    37     1    35    1
    38     4    36    1
    39     9    37    1
    40    11    38    1
    41    18    39    1
    42    18    40    1
    43    18    41    1
    44    19    42    1
    45    19    43    1
    46    20    44    1
    47    27    45    1
    48    27    46    1
    49    29    47    1
    50    31    48    1
    51    31    49    1
    52    31    50    1
    53    32    51    1
