@<TRIPOS>MOLECULE
*****
 19 20 0 0 0
SMALL
GASTEIGER

@<TRIPOS>ATOM
      1 CL         -4.6482    0.0594    0.0517 Cl      1  UNL1       -0.0835
      2 C          -2.8911   -0.0109    0.0520 C.ar    1  UNL1        0.0410
      3 C          -2.2708   -1.2379   -0.1167 C.ar    1  UNL1       -0.0428
      4 C          -0.8999   -1.2635   -0.1124 C.ar    1  UNL1       -0.0512
      5 C          -0.1851   -0.0956    0.0555 C.ar    1  UNL1       -0.0001
      6 C          -0.8049    1.1451    0.2261 C.ar    1  UNL1       -0.0512
      7 C          -2.1989    1.1673    0.2212 C.ar    1  UNL1       -0.0428
      8 C           1.2727   -0.0668    0.0679 C.ar    1  UNL1        0.0658
      9 C           2.0914   -1.1698   -0.0822 C.ar    1  UNL1        0.0531
     10 N           3.3791   -0.7843   -0.0208 N.ar    1  UNL1       -0.2436
     11 C           3.3914    0.5547    0.1672 C.ar    1  UNL1        0.0938
     12 N           2.1352    0.9765    0.2192 N.ar    1  UNL1       -0.3444
     13 H          -2.8283   -2.1665   -0.2502 H       1  UNL1        0.0632
     14 H          -0.3633   -2.2161   -0.2431 H       1  UNL1        0.0625
     15 H          -0.2845    2.0756    0.3596 H       1  UNL1        0.0625
     16 H          -2.7160    2.1296    0.3533 H       1  UNL1        0.0632
     17 H           1.7899   -2.2184   -0.2311 H       1  UNL1        0.0851
     18 H           4.2641    1.1694    0.2584 H       1  UNL1        0.1027
     19 H           1.7673    1.9520    0.3540 H       1  UNL1        0.1668
@<TRIPOS>BOND
     1     1     2    1
     2     2     3   ar
     3     3     4   ar
     4     4     5   ar
     5     5     6   ar
     6     6     7   ar
     7     5     8    1
     8     8     9   ar
     9     9    10   ar
    10    10    11   ar
    11    11    12   ar
    12     7     2   ar
    13    12     8   ar
    14     3    13    1
    15     4    14    1
    16     6    15    1
    17     7    16    1
    18     9    17    1
    19    11    18    1
    20    12    19    1
