
     RDKit          3D

 67 72  0  0  0  0  0  0  0  0999 V2000
    4.4274    2.2169    1.2990 O   0  0  0  0  0  0  0  0  0  0  0  0
    4.0762    1.0153    0.8622 C   0  0  0  0  0  0  0  0  0  0  0  0
    2.6820    0.8955    0.4702 C   0  0  0  0  0  0  0  0  0  0  0  0
    2.1005   -0.0553   -0.2963 C   0  0  0  0  0  0  0  0  0  0  0  0
    0.7313   -0.1001   -0.6313 C   0  0  0  0  0  0  0  0  0  0  0  0
    0.2936   -1.2190   -1.4203 C   0  0  1  0  0  0  0  0  0  0  0  0
    1.2064   -2.4661   -1.2856 C   0  0  0  0  0  0  0  0  0  0  0  0
    0.3636   -3.4870   -2.0544 C   0  0  0  0  0  0  0  0  0  0  0  0
   -0.9935   -2.8310   -2.2912 C   0  0  0  0  0  0  0  0  0  0  0  0
   -0.9425   -1.8666   -1.1412 N   0  0  0  0  0  0  0  0  0  0  0  0
   -1.9762   -1.8509   -0.2014 C   0  0  0  0  0  0  0  0  0  0  0  0
   -3.2722   -2.0810   -0.6900 C   0  0  0  0  0  0  0  0  0  0  0  0
   -4.3872   -2.1339    0.1020 C   0  0  0  0  0  0  0  0  0  0  0  0
   -5.6302   -2.3529   -0.3768 F   0  0  0  0  0  0  0  0  0  0  0  0
   -4.2333   -1.9515    1.4597 C   0  0  0  0  0  0  0  0  0  0  0  0
   -2.9541   -1.7239    1.9477 C   0  0  0  0  0  0  0  0  0  0  0  0
   -2.7972   -1.5435    3.2931 F   0  0  0  0  0  0  0  0  0  0  0  0
   -1.8313   -1.6686    1.1633 C   0  0  0  0  0  0  0  0  0  0  0  0
   -0.1031    0.8935   -0.1584 C   0  0  0  0  0  0  0  0  0  0  0  0
   -1.3814    0.9062   -0.4483 O   0  0  0  0  0  0  0  0  0  0  0  0
   -2.1550    1.8507   -0.0036 C   0  0  0  0  0  0  0  0  0  0  0  0
   -3.5286    1.8940   -0.2945 N   0  0  0  0  0  0  0  0  0  0  0  0
   -4.0046    2.4250   -1.5453 C   0  0  0  0  0  0  0  0  0  0  0  0
   -5.1622    3.3936   -1.2914 C   0  0  0  0  0  0  0  0  0  0  0  0
   -6.0685    2.9029   -0.3791 O   0  0  0  0  0  0  0  0  0  0  0  0
   -5.5559    2.5907    0.8519 C   0  0  0  0  0  0  0  0  0  0  0  0
   -4.5319    1.4553    0.6539 C   0  0  0  0  0  0  0  0  0  0  0  0
   -1.6850    2.8882    0.7931 C   0  0  0  0  0  0  0  0  0  0  0  0
   -0.3569    2.8949    1.1084 C   0  0  0  0  0  0  0  0  0  0  0  0
    0.1382    3.7829    1.8139 O   0  0  0  0  0  0  0  0  0  0  0  0
    0.4682    1.8703    0.6226 C   0  0  0  0  0  0  0  0  0  0  0  0
    1.8069    1.8909    0.9393 C   0  0  0  0  0  0  0  0  0  0  0  0
    5.1202    0.1191    0.8693 N   0  0  0  0  0  0  0  0  0  0  0  0
    6.4301    0.6440    1.3769 C   0  0  0  0  0  0  0  0  0  0  0  0
    7.4388   -0.4506    1.1866 C   0  0  0  0  0  0  0  0  0  0  0  0
    7.4767   -1.0119   -0.0611 O   0  0  0  0  0  0  0  0  0  0  0  0
    6.2611   -1.2568   -0.6554 C   0  0  0  0  0  0  0  0  0  0  0  0
    5.1865   -1.2319    0.4733 C   0  0  0  0  0  0  0  0  0  0  0  0
    2.7447   -0.8122   -0.7073 H   0  0  0  0  0  0  0  0  0  0  0  0
    0.3633   -0.9991   -2.5341 H   0  0  0  0  0  0  0  0  0  0  0  0
    1.2069   -2.7689   -0.2239 H   0  0  0  0  0  0  0  0  0  0  0  0
    2.1751   -2.3231   -1.7535 H   0  0  0  0  0  0  0  0  0  0  0  0
    0.8482   -3.7516   -3.0071 H   0  0  0  0  0  0  0  0  0  0  0  0
    0.1810   -4.4043   -1.4846 H   0  0  0  0  0  0  0  0  0  0  0  0
   -1.8270   -3.5163   -2.2148 H   0  0  0  0  0  0  0  0  0  0  0  0
   -1.0468   -2.2747   -3.2298 H   0  0  0  0  0  0  0  0  0  0  0  0
   -3.4428   -2.2325   -1.7661 H   0  0  0  0  0  0  0  0  0  0  0  0
   -5.1080   -1.9914    2.1107 H   0  0  0  0  0  0  0  0  0  0  0  0
   -0.8404   -1.4900    1.5346 H   0  0  0  0  0  0  0  0  0  0  0  0
   -4.3708    1.5706   -2.1593 H   0  0  0  0  0  0  0  0  0  0  0  0
   -3.2449    2.9525   -2.1435 H   0  0  0  0  0  0  0  0  0  0  0  0
   -5.6723    3.5430   -2.2625 H   0  0  0  0  0  0  0  0  0  0  0  0
   -4.7501    4.4007   -0.9939 H   0  0  0  0  0  0  0  0  0  0  0  0
   -6.3544    2.1886    1.4783 H   0  0  0  0  0  0  0  0  0  0  0  0
   -5.0914    3.4441    1.3897 H   0  0  0  0  0  0  0  0  0  0  0  0
   -5.1464    0.6250    0.2210 H   0  0  0  0  0  0  0  0  0  0  0  0
   -4.1521    1.1264    1.6147 H   0  0  0  0  0  0  0  0  0  0  0  0
   -2.3851    3.6503    1.1284 H   0  0  0  0  0  0  0  0  0  0  0  0
    2.2053    2.6833    1.5652 H   0  0  0  0  0  0  0  0  0  0  0  0
    6.7176    1.5446    0.8401 H   0  0  0  0  0  0  0  0  0  0  0  0
    6.3368    0.8591    2.4507 H   0  0  0  0  0  0  0  0  0  0  0  0
    7.3390   -1.1604    2.0353 H   0  0  0  0  0  0  0  0  0  0  0  0
    8.4500    0.0426    1.3570 H   0  0  0  0  0  0  0  0  0  0  0  0
    6.0231   -0.3512   -1.2772 H   0  0  0  0  0  0  0  0  0  0  0  0
    6.1892   -2.1494   -1.2685 H   0  0  0  0  0  0  0  0  0  0  0  0
    4.3201   -1.7714    0.1656 H   0  0  0  0  0  0  0  0  0  0  0  0
    5.6752   -1.8816    1.2941 H   0  0  0  0  0  0  0  0  0  0  0  0
  1  2  2  0
  2  3  1  0
  3  4  2  0
  4  5  1  0
  5  6  1  0
  6  7  1  0
  7  8  1  0
  8  9  1  0
  9 10  1  0
 10 11  1  0
 11 12  2  0
 12 13  1  0
 13 14  1  0
 13 15  2  0
 15 16  1  0
 16 17  1  0
 16 18  2  0
  5 19  2  0
 19 20  1  0
 20 21  1  0
 21 22  1  0
 22 23  1  0
 23 24  1  0
 24 25  1  0
 25 26  1  0
 26 27  1  0
 21 28  2  0
 28 29  1  0
 29 30  2  0
 29 31  1  0
 31 32  2  0
  2 33  1  0
 33 34  1  0
 34 35  1  0
 35 36  1  0
 36 37  1  0
 37 38  1  0
 32  3  1  0
 38 33  1  0
 10  6  1  0
 18 11  1  0
 31 19  1  0
 27 22  1  0
  4 39  1  0
  6 40  1  6
  7 41  1  0
  7 42  1  0
  8 43  1  0
  8 44  1  0
  9 45  1  0
  9 46  1  0
 12 47  1  0
 15 48  1  0
 18 49  1  0
 23 50  1  0
 23 51  1  0
 24 52  1  0
 24 53  1  0
 26 54  1  0
 26 55  1  0
 27 56  1  0
 27 57  1  0
 28 58  1  0
 32 59  1  0
 34 60  1  0
 34 61  1  0
 35 62  1  0
 35 63  1  0
 37 64  1  0
 37 65  1  0
 38 66  1  0
 38 67  1  0
M  END
$$$$
