@<TRIPOS>MOLECULE
*****
 67 72 0 0 0
SMALL
GASTEIGER

@<TRIPOS>ATOM
      1 O           4.4274    2.2169    1.2990 O.2     1  UNL1       -0.2700
      2 C           4.0762    1.0153    0.8622 C.2     1  UNL1        0.2468
      3 C           2.6820    0.8955    0.4702 C.ar    1  UNL1        0.0381
      4 C           2.1005   -0.0553   -0.2963 C.ar    1  UNL1       -0.0411
      5 C           0.7313   -0.1001   -0.6313 C.ar    1  UNL1        0.0166
      6 C           0.2936   -1.2190   -1.4203 C.3     1  UNL1        0.0522
      7 C           1.2064   -2.4661   -1.2856 C.3     1  UNL1       -0.0287
      8 C           0.3636   -3.4870   -2.0544 C.3     1  UNL1       -0.0352
      9 C          -0.9935   -2.8310   -2.2912 C.3     1  UNL1        0.0129
     10 N          -0.9425   -1.8666   -1.1412 N.pl3   1  UNL1       -0.3225
     11 C          -1.9762   -1.8509   -0.2014 C.ar    1  UNL1        0.0356
     12 C          -3.2722   -2.0810   -0.6900 C.ar    1  UNL1       -0.0052
     13 C          -4.3872   -2.1339    0.1020 C.ar    1  UNL1        0.1279
     14 F          -5.6302   -2.3529   -0.3768 F       1  UNL1       -0.2053
     15 C          -4.2333   -1.9515    1.4597 C.ar    1  UNL1        0.0089
     16 C          -2.9541   -1.7239    1.9477 C.ar    1  UNL1        0.1279
     17 F          -2.7972   -1.5435    3.2931 F       1  UNL1       -0.2053
     18 C          -1.8313   -1.6686    1.1633 C.ar    1  UNL1       -0.0052
     19 C          -0.1031    0.8935   -0.1584 C.ar    1  UNL1        0.1458
     20 O          -1.3814    0.9062   -0.4483 O.2     1  UNL1       -0.4407
     21 C          -2.1550    1.8507   -0.0036 C.ar    1  UNL1        0.1931
     22 N          -3.5286    1.8940   -0.2945 N.pl3   1  UNL1       -0.2969
     23 C          -4.0046    2.4250   -1.5453 C.3     1  UNL1        0.0383
     24 C          -5.1622    3.3936   -1.2914 C.3     1  UNL1        0.0635
     25 O          -6.0685    2.9029   -0.3791 O.3     1  UNL1       -0.3767
     26 C          -5.5559    2.5907    0.8519 C.3     1  UNL1        0.0635
     27 C          -4.5319    1.4553    0.6539 C.3     1  UNL1        0.0383
     28 C          -1.6850    2.8882    0.7931 C.ar    1  UNL1        0.0434
     29 C          -0.3569    2.8949    1.1084 C.ar    1  UNL1        0.1944
     30 O           0.1382    3.7829    1.8139 O.2     1  UNL1       -0.2870
     31 C           0.4682    1.8703    0.6226 C.ar    1  UNL1        0.0651
     32 C           1.8069    1.8909    0.9393 C.ar    1  UNL1       -0.0352
     33 N           5.1202    0.1191    0.8693 N.am    1  UNL1       -0.2932
     34 C           6.4301    0.6440    1.3769 C.3     1  UNL1        0.0385
     35 C           7.4388   -0.4506    1.1866 C.3     1  UNL1        0.0635
     36 O           7.4767   -1.0119   -0.0611 O.3     1  UNL1       -0.3767
     37 C           6.2611   -1.2568   -0.6554 C.3     1  UNL1        0.0635
     38 C           5.1865   -1.2319    0.4733 C.3     1  UNL1        0.0385
     39 H           2.7447   -0.8122   -0.7073 H       1  UNL1        0.0629
     40 H           0.3633   -0.9991   -2.5341 H       1  UNL1        0.0551
     41 H           1.2069   -2.7689   -0.2239 H       1  UNL1        0.0287
     42 H           2.1751   -2.3231   -1.7535 H       1  UNL1        0.0287
     43 H           0.8482   -3.7516   -3.0071 H       1  UNL1        0.0281
     44 H           0.1810   -4.4043   -1.4846 H       1  UNL1        0.0281
     45 H          -1.8270   -3.5163   -2.2148 H       1  UNL1        0.0464
     46 H          -1.0468   -2.2747   -3.2298 H       1  UNL1        0.0464
     47 H          -3.4428   -2.2325   -1.7661 H       1  UNL1        0.0665
     48 H          -5.1080   -1.9914    2.1107 H       1  UNL1        0.0675
     49 H          -0.8404   -1.4900    1.5346 H       1  UNL1        0.0665
     50 H          -4.3708    1.5706   -2.1593 H       1  UNL1        0.0487
     51 H          -3.2449    2.9525   -2.1435 H       1  UNL1        0.0487
     52 H          -5.6723    3.5430   -2.2625 H       1  UNL1        0.0575
     53 H          -4.7501    4.4007   -0.9939 H       1  UNL1        0.0575
     54 H          -6.3544    2.1886    1.4783 H       1  UNL1        0.0575
     55 H          -5.0914    3.4441    1.3897 H       1  UNL1        0.0575
     56 H          -5.1464    0.6250    0.2210 H       1  UNL1        0.0487
     57 H          -4.1521    1.1264    1.6147 H       1  UNL1        0.0487
     58 H          -2.3851    3.6503    1.1284 H       1  UNL1        0.0707
     59 H           2.2053    2.6833    1.5652 H       1  UNL1        0.0633
     60 H           6.7176    1.5446    0.8401 H       1  UNL1        0.0487
     61 H           6.3368    0.8591    2.4507 H       1  UNL1        0.0487
     62 H           7.3390   -1.1604    2.0353 H       1  UNL1        0.0575
     63 H           8.4500    0.0426    1.3570 H       1  UNL1        0.0575
     64 H           6.0231   -0.3512   -1.2772 H       1  UNL1        0.0575
     65 H           6.1892   -2.1494   -1.2685 H       1  UNL1        0.0575
     66 H           4.3201   -1.7714    0.1656 H       1  UNL1        0.0487
     67 H           5.6752   -1.8816    1.2941 H       1  UNL1        0.0487
@<TRIPOS>BOND
     1     1     2    2
     2     2     3    1
     3     3     4   ar
     4     4     5   ar
     5     5     6    1
     6     6     7    1
     7     7     8    1
     8     8     9    1
     9     9    10    1
    10    10    11    1
    11    11    12   ar
    12    12    13   ar
    13    13    14    1
    14    13    15   ar
    15    15    16   ar
    16    16    17    1
    17    16    18   ar
    18     5    19   ar
    19    19    20   ar
    20    20    21   ar
    21    21    22    1
    22    22    23    1
    23    23    24    1
    24    24    25    1
    25    25    26    1
    26    26    27    1
    27    21    28   ar
    28    28    29   ar
    29    29    30    2
    30    29    31   ar
    31    31    32   ar
    32     2    33   am
    33    33    34    1
    34    34    35    1
    35    35    36    1
    36    36    37    1
    37    37    38    1
    38    32     3   ar
    39    38    33    1
    40    10     6    1
    41    18    11   ar
    42    31    19   ar
    43    27    22    1
    44     4    39    1
    45     6    40    1
    46     7    41    1
    47     7    42    1
    48     8    43    1
    49     8    44    1
    50     9    45    1
    51     9    46    1
    52    12    47    1
    53    15    48    1
    54    18    49    1
    55    23    50    1
    56    23    51    1
    57    24    52    1
    58    24    53    1
    59    26    54    1
    60    26    55    1
    61    27    56    1
    62    27    57    1
    63    28    58    1
    64    32    59    1
    65    34    60    1
    66    34    61    1
    67    35    62    1
    68    35    63    1
    69    37    64    1
    70    37    65    1
    71    38    66    1
    72    38    67    1
