@<TRIPOS>MOLECULE
*****
 61 65 0 0 0
SMALL
GASTEIGER

@<TRIPOS>ATOM
      1 O          -0.3954    1.2990   -2.4058 O.2     1  UNL1       -0.2697
      2 C           0.6442    0.6277   -2.5972 C.2     1  UNL1        0.2523
      3 N           0.9188   -0.1218   -3.7318 N.am    1  UNL1       -0.2483
      4 C           2.1150   -0.8610   -3.8885 C.2     1  UNL1        0.2511
      5 O           2.3576   -1.5366   -4.9131 O.2     1  UNL1       -0.2698
      6 C           3.1011   -0.8323   -2.8120 C.ar    1  UNL1        0.0450
      7 C           4.2690   -1.5495   -2.9579 C.ar    1  UNL1       -0.0485
      8 C           5.2275   -1.5469   -1.9654 C.ar    1  UNL1       -0.0533
      9 C           5.0308   -0.8242   -0.8109 C.ar    1  UNL1       -0.0172
     10 C           6.0690   -0.8616    0.2277 C.ar    1  UNL1       -0.0144
     11 C           7.3925   -1.0319   -0.0896 C.ar    1  UNL1       -0.0538
     12 C           8.3834   -1.0558    0.8967 C.ar    1  UNL1       -0.0577
     13 C           8.0472   -0.9067    2.2158 C.ar    1  UNL1       -0.0201
     14 C           6.7034   -0.7292    2.5636 C.ar    1  UNL1        0.1174
     15 O           6.3434   -0.5752    3.8922 O.3     1  UNL1       -0.5067
     16 C           5.7384   -0.7121    1.5486 C.ar    1  UNL1       -0.0125
     17 C           3.8659   -0.1177   -0.6793 C.ar    1  UNL1       -0.0454
     18 C           2.8587   -0.0839   -1.6503 C.ar    1  UNL1        0.0010
     19 C           1.6547    0.6824   -1.4442 C.2     1  UNL1        0.0587
     20 C           1.2637    1.3662   -0.4835 C.2     1  UNL1        0.0065
     21 N           0.7263    2.1436    0.5142 N.pl3   1  UNL1       -0.3198
     22 C          -0.6465    1.7917    0.9067 C.ar    1  UNL1        0.0309
     23 C          -1.7260    2.4735    0.4348 C.ar    1  UNL1       -0.0403
     24 C          -3.0185    2.0605    0.7321 C.ar    1  UNL1       -0.0556
     25 C          -3.2526    0.9390    1.5190 C.ar    1  UNL1       -0.0332
     26 C          -4.6237    0.4498    1.8011 C.3     1  UNL1        0.0240
     27 N          -5.0027   -0.5148    0.7932 N.3     1  UNL1       -0.2982
     28 C          -5.0024    0.0298   -0.5462 C.3     1  UNL1       -0.0008
     29 C          -6.1143    1.0226   -0.7482 C.3     1  UNL1       -0.0402
     30 C          -7.4650    0.3531   -0.5170 C.3     1  UNL1       -0.0507
     31 C          -7.4512   -0.2450    0.8563 C.3     1  UNL1       -0.0402
     32 C          -6.2771   -1.1439    1.0984 C.3     1  UNL1       -0.0008
     33 C          -2.1410    0.2822    1.9777 C.ar    1  UNL1       -0.0556
     34 C          -0.8398    0.6727    1.6983 C.ar    1  UNL1       -0.0403
     35 H           0.2170   -0.1569   -4.5267 H       1  UNL1        0.1581
     36 H           4.4109   -2.1150   -3.8707 H       1  UNL1        0.0625
     37 H           6.1513   -2.1103   -2.0708 H       1  UNL1        0.0624
     38 H           7.6788   -1.1512   -1.1082 H       1  UNL1        0.0624
     39 H           9.4378   -1.1993    0.6198 H       1  UNL1        0.0619
     40 H           8.7862   -0.9220    2.9939 H       1  UNL1        0.0654
     41 H           6.1520    0.3239    4.2797 H       1  UNL1        0.2921
     42 H           4.7072   -0.5732    1.8469 H       1  UNL1        0.0660
     43 H           3.7442    0.4374    0.2265 H       1  UNL1        0.0630
     44 H           2.3443    1.0768    0.2861 H       1  UNL1        0.0789
     45 H           1.1527    2.9329    0.9981 H       1  UNL1        0.1516
     46 H          -1.5599    3.3585   -0.1867 H       1  UNL1        0.0636
     47 H          -3.8586    2.6070    0.3604 H       1  UNL1        0.0621
     48 H          -4.6961    0.0424    2.8246 H       1  UNL1        0.0476
     49 H          -5.3297    1.2971    1.7427 H       1  UNL1        0.0476
     50 H          -4.0407    0.4963   -0.7506 H       1  UNL1        0.0427
     51 H          -5.1145   -0.7996   -1.2957 H       1  UNL1        0.0427
     52 H          -6.0605    1.8527   -0.0394 H       1  UNL1        0.0278
     53 H          -6.0814    1.3754   -1.7810 H       1  UNL1        0.0278
     54 H          -8.2311    1.1491   -0.5809 H       1  UNL1        0.0266
     55 H          -7.6750   -0.3963   -1.3091 H       1  UNL1        0.0266
     56 H          -8.3625   -0.9087    0.9104 H       1  UNL1        0.0278
     57 H          -7.5812    0.5272    1.6270 H       1  UNL1        0.0278
     58 H          -6.2597   -1.4231    2.1687 H       1  UNL1        0.0427
     59 H          -6.4228   -2.0695    0.5196 H       1  UNL1        0.0427
     60 H          -2.2953   -0.6075    2.6065 H       1  UNL1        0.0621
     61 H           0.0321    0.1333    2.0731 H       1  UNL1        0.0636
@<TRIPOS>BOND
     1     1     2    2
     2     2     3   am
     3     3     4   am
     4     4     5    2
     5     4     6    1
     6     6     7   ar
     7     7     8   ar
     8     8     9   ar
     9     9    10    1
    10    10    11   ar
    11    11    12   ar
    12    12    13   ar
    13    13    14   ar
    14    14    15    1
    15    14    16   ar
    16     9    17   ar
    17    17    18   ar
    18    18    19    1
    19    19    20    2
    20    20    21    1
    21    21    22    1
    22    22    23   ar
    23    23    24   ar
    24    24    25   ar
    25    25    26    1
    26    26    27    1
    27    27    28    1
    28    28    29    1
    29    29    30    1
    30    30    31    1
    31    31    32    1
    32    25    33   ar
    33    33    34   ar
    34    19     2    1
    35    34    22   ar
    36    18     6   ar
    37    32    27    1
    38    16    10   ar
    39     3    35    1
    40     7    36    1
    41     8    37    1
    42    11    38    1
    43    12    39    1
    44    13    40    1
    45    15    41    1
    46    16    42    1
    47    17    43    1
    48    20    44    1
    49    21    45    1
    50    23    46    1
    51    24    47    1
    52    26    48    1
    53    26    49    1
    54    28    50    1
    55    28    51    1
    56    29    52    1
    57    29    53    1
    58    30    54    1
    59    30    55    1
    60    31    56    1
    61    31    57    1
    62    32    58    1
    63    32    59    1
    64    33    60    1
    65    34    61    1
