
     RDKit          3D

 61 65  0  0  0  0  0  0  0  0999 V2000
   -0.3954    1.2990   -2.4058 O   0  0  0  0  0  0  0  0  0  0  0  0
    0.6442    0.6277   -2.5972 C   0  0  0  0  0  0  0  0  0  0  0  0
    0.9188   -0.1218   -3.7318 N   0  0  0  0  0  0  0  0  0  0  0  0
    2.1150   -0.8610   -3.8885 C   0  0  0  0  0  0  0  0  0  0  0  0
    2.3576   -1.5366   -4.9131 O   0  0  0  0  0  0  0  0  0  0  0  0
    3.1011   -0.8323   -2.8120 C   0  0  0  0  0  0  0  0  0  0  0  0
    4.2690   -1.5495   -2.9579 C   0  0  0  0  0  0  0  0  0  0  0  0
    5.2275   -1.5469   -1.9654 C   0  0  0  0  0  0  0  0  0  0  0  0
    5.0308   -0.8242   -0.8109 C   0  0  0  0  0  0  0  0  0  0  0  0
    6.0690   -0.8616    0.2277 C   0  0  0  0  0  0  0  0  0  0  0  0
    7.3925   -1.0319   -0.0896 C   0  0  0  0  0  0  0  0  0  0  0  0
    8.3834   -1.0558    0.8967 C   0  0  0  0  0  0  0  0  0  0  0  0
    8.0472   -0.9067    2.2158 C   0  0  0  0  0  0  0  0  0  0  0  0
    6.7034   -0.7292    2.5636 C   0  0  0  0  0  0  0  0  0  0  0  0
    6.3434   -0.5752    3.8922 O   0  0  0  0  0  0  0  0  0  0  0  0
    5.7384   -0.7121    1.5486 C   0  0  0  0  0  0  0  0  0  0  0  0
    3.8659   -0.1177   -0.6793 C   0  0  0  0  0  0  0  0  0  0  0  0
    2.8587   -0.0839   -1.6503 C   0  0  0  0  0  0  0  0  0  0  0  0
    1.6547    0.6824   -1.4442 C   0  0  0  0  0  0  0  0  0  0  0  0
    1.2637    1.3662   -0.4835 C   0  0  0  0  0  0  0  0  0  0  0  0
    0.7263    2.1436    0.5142 N   0  0  0  0  0  0  0  0  0  0  0  0
   -0.6465    1.7917    0.9067 C   0  0  0  0  0  0  0  0  0  0  0  0
   -1.7260    2.4735    0.4348 C   0  0  0  0  0  0  0  0  0  0  0  0
   -3.0185    2.0605    0.7321 C   0  0  0  0  0  0  0  0  0  0  0  0
   -3.2526    0.9390    1.5190 C   0  0  0  0  0  0  0  0  0  0  0  0
   -4.6237    0.4498    1.8011 C   0  0  0  0  0  0  0  0  0  0  0  0
   -5.0027   -0.5148    0.7932 N   0  0  0  0  0  0  0  0  0  0  0  0
   -5.0024    0.0298   -0.5462 C   0  0  0  0  0  0  0  0  0  0  0  0
   -6.1143    1.0226   -0.7482 C   0  0  0  0  0  0  0  0  0  0  0  0
   -7.4650    0.3531   -0.5170 C   0  0  0  0  0  0  0  0  0  0  0  0
   -7.4512   -0.2450    0.8563 C   0  0  0  0  0  0  0  0  0  0  0  0
   -6.2771   -1.1439    1.0984 C   0  0  0  0  0  0  0  0  0  0  0  0
   -2.1410    0.2822    1.9777 C   0  0  0  0  0  0  0  0  0  0  0  0
   -0.8398    0.6727    1.6983 C   0  0  0  0  0  0  0  0  0  0  0  0
    0.2170   -0.1569   -4.5267 H   0  0  0  0  0  0  0  0  0  0  0  0
    4.4109   -2.1150   -3.8707 H   0  0  0  0  0  0  0  0  0  0  0  0
    6.1513   -2.1103   -2.0708 H   0  0  0  0  0  0  0  0  0  0  0  0
    7.6788   -1.1512   -1.1082 H   0  0  0  0  0  0  0  0  0  0  0  0
    9.4378   -1.1993    0.6198 H   0  0  0  0  0  0  0  0  0  0  0  0
    8.7862   -0.9220    2.9939 H   0  0  0  0  0  0  0  0  0  0  0  0
    6.1520    0.3239    4.2797 H   0  0  0  0  0  0  0  0  0  0  0  0
    4.7072   -0.5732    1.8469 H   0  0  0  0  0  0  0  0  0  0  0  0
    3.7442    0.4374    0.2265 H   0  0  0  0  0  0  0  0  0  0  0  0
    2.3443    1.0768    0.2861 H   0  0  0  0  0  0  0  0  0  0  0  0
    1.1527    2.9329    0.9981 H   0  0  0  0  0  0  0  0  0  0  0  0
   -1.5599    3.3585   -0.1867 H   0  0  0  0  0  0  0  0  0  0  0  0
   -3.8586    2.6070    0.3604 H   0  0  0  0  0  0  0  0  0  0  0  0
   -4.6961    0.0424    2.8246 H   0  0  0  0  0  0  0  0  0  0  0  0
   -5.3297    1.2971    1.7427 H   0  0  0  0  0  0  0  0  0  0  0  0
   -4.0407    0.4963   -0.7506 H   0  0  0  0  0  0  0  0  0  0  0  0
   -5.1145   -0.7996   -1.2957 H   0  0  0  0  0  0  0  0  0  0  0  0
   -6.0605    1.8527   -0.0394 H   0  0  0  0  0  0  0  0  0  0  0  0
   -6.0814    1.3754   -1.7810 H   0  0  0  0  0  0  0  0  0  0  0  0
   -8.2311    1.1491   -0.5809 H   0  0  0  0  0  0  0  0  0  0  0  0
   -7.6750   -0.3963   -1.3091 H   0  0  0  0  0  0  0  0  0  0  0  0
   -8.3625   -0.9087    0.9104 H   0  0  0  0  0  0  0  0  0  0  0  0
   -7.5812    0.5272    1.6270 H   0  0  0  0  0  0  0  0  0  0  0  0
   -6.2597   -1.4231    2.1687 H   0  0  0  0  0  0  0  0  0  0  0  0
   -6.4228   -2.0695    0.5196 H   0  0  0  0  0  0  0  0  0  0  0  0
   -2.2953   -0.6075    2.6065 H   0  0  0  0  0  0  0  0  0  0  0  0
    0.0321    0.1333    2.0731 H   0  0  0  0  0  0  0  0  0  0  0  0
  1  2  2  0
  2  3  1  0
  3  4  1  0
  4  5  2  0
  4  6  1  0
  6  7  2  0
  7  8  1  0
  8  9  2  0
  9 10  1  0
 10 11  2  0
 11 12  1  0
 12 13  2  0
 13 14  1  0
 14 15  1  0
 14 16  2  0
  9 17  1  0
 17 18  2  0
 18 19  1  0
 19 20  2  3
 20 21  1  0
 21 22  1  0
 22 23  2  0
 23 24  1  0
 24 25  2  0
 25 26  1  0
 26 27  1  0
 27 28  1  0
 28 29  1  0
 29 30  1  0
 30 31  1  0
 31 32  1  0
 25 33  1  0
 33 34  2  0
 19  2  1  0
 34 22  1  0
 18  6  1  0
 32 27  1  0
 16 10  1  0
  3 35  1  0
  7 36  1  0
  8 37  1  0
 11 38  1  0
 12 39  1  0
 13 40  1  0
 15 41  1  0
 16 42  1  0
 17 43  1  0
 20 44  1  0
 21 45  1  0
 23 46  1  0
 24 47  1  0
 26 48  1  0
 26 49  1  0
 28 50  1  0
 28 51  1  0
 29 52  1  0
 29 53  1  0
 30 54  1  0
 30 55  1  0
 31 56  1  0
 31 57  1  0
 32 58  1  0
 32 59  1  0
 33 60  1  0
 34 61  1  0
M  END
$$$$
