
     RDKit          3D

 87 87  0  0  0  0  0  0  0  0999 V2000
   -5.8089    3.7583    1.5183 C   0  0  1  0  0  0  0  0  0  0  0  0
   -5.3686    5.0740    1.8795 N   0  0  0  0  0  0  0  0  0  0  0  0
   -5.2909    2.6519    2.3741 C   0  0  0  0  0  0  0  0  0  0  0  0
   -3.8063    2.4975    2.4311 C   0  0  0  0  0  0  0  0  0  0  0  0
   -3.2322    2.2464    1.0582 C   0  0  0  0  0  0  0  0  0  0  0  0
   -3.3955    3.3851    0.2844 O   0  0  0  0  0  0  0  0  0  0  0  0
   -2.6643    1.4952    0.2464 N   0  0  0  0  0  0  0  0  0  0  0  0
   -2.1584    0.1973    0.2055 C   0  0  1  0  0  0  0  0  0  0  0  0
   -0.6989    0.1317    0.7062 C   0  0  0  0  0  0  0  0  0  0  0  0
    0.2195    1.2163   -0.3502 S   0  0  0  0  0  0  0  0  0  0  0  0
   -0.3249    2.5966   -0.2930 O   0  0  0  0  0  0  0  0  0  0  0  0
    0.1296    0.6520   -1.7543 O   0  0  0  0  0  0  0  0  0  0  0  0
    1.9508    1.2769    0.0483 C   0  0  0  0  0  0  0  0  0  0  0  0
    2.5385   -0.0868   -0.1650 C   0  0  0  0  0  0  0  0  0  0  0  0
    3.8469   -0.2200    0.1143 O   0  0  0  0  0  0  0  0  0  0  0  0
    4.9719    0.1564   -1.0606 P   0  0  0  0  0  0  0  0  0  0  0  0
    4.4789    1.1978   -2.0226 O   0  0  0  0  0  0  0  0  0  0  0  0
    6.3483    0.7945   -0.2108 N   0  0  0  0  0  0  0  0  0  0  0  0
    6.1830    2.0318    0.4369 C   0  0  0  0  0  0  0  0  0  0  0  0
    5.5467    1.8716    1.8084 C   0  0  0  0  0  0  0  0  0  0  0  0
    5.3754    3.4792    2.5991 Cl  0  0  0  0  0  0  0  0  0  0  0  0
    7.2558   -0.1508    0.2996 C   0  0  0  0  0  0  0  0  0  0  0  0
    8.7105    0.1546    0.2103 C   0  0  0  0  0  0  0  0  0  0  0  0
    9.1876    1.6246    1.0776 Cl  0  0  0  0  0  0  0  0  0  0  0  0
    5.5183   -1.2861   -1.9091 N   0  0  0  0  0  0  0  0  0  0  0  0
    5.9929   -1.0665   -3.2198 C   0  0  0  0  0  0  0  0  0  0  0  0
    7.2312   -0.2818   -3.4348 C   0  0  0  0  0  0  0  0  0  0  0  0
    7.1045    1.3536   -2.8369 Cl  0  0  0  0  0  0  0  0  0  0  0  0
    4.3545   -2.1938   -1.9617 C   0  0  0  0  0  0  0  0  0  0  0  0
    4.6959   -3.5860   -2.3822 C   0  0  0  0  0  0  0  0  0  0  0  0
    3.1580   -4.5423   -2.3218 Cl  0  0  0  0  0  0  0  0  0  0  0  0
   -2.9704   -0.8041    0.9653 C   0  0  0  0  0  0  0  0  0  0  0  0
   -3.1415   -0.9682    2.3301 O   0  0  0  0  0  0  0  0  0  0  0  0
   -3.7454   -1.7961    0.7200 N   0  0  0  0  0  0  0  0  0  0  0  0
   -4.0899   -2.2792   -0.6109 C   0  0  1  0  0  0  0  0  0  0  0  0
   -3.1225   -3.2873   -1.1030 C   0  0  0  0  0  0  0  0  0  0  0  0
   -2.1743   -4.2241   -1.4549 O   0  0  0  0  0  0  0  0  0  0  0  0
   -3.3387   -3.5853   -2.3291 O   0  0  0  0  0  0  0  0  0  0  0  0
   -5.4070   -2.9739   -0.4299 C   0  0  0  0  0  0  0  0  0  0  0  0
   -5.8224   -4.1668   -0.9481 C   0  0  0  0  0  0  0  0  0  0  0  0
   -7.0601   -4.6972   -0.6810 C   0  0  0  0  0  0  0  0  0  0  0  0
   -7.9737   -4.0382    0.1447 C   0  0  0  0  0  0  0  0  0  0  0  0
   -7.5922   -2.8228    0.6926 C   0  0  0  0  0  0  0  0  0  0  0  0
   -6.3320   -2.3198    0.3982 C   0  0  0  0  0  0  0  0  0  0  0  0
   -7.3145    3.7480    1.7342 C   0  0  0  0  0  0  0  0  0  0  0  0
   -8.7038    3.5887    1.8895 O   0  0  0  0  0  0  0  0  0  0  0  0
   -7.3446    4.9452    2.0898 O   0  0  0  0  0  0  0  0  0  0  0  0
   -5.6964    3.6090    0.4268 H   0  0  0  0  0  0  0  0  0  0  0  0
   -5.0514    5.1597    2.8523 H   0  0  0  0  0  0  0  0  0  0  0  0
   -4.8292    5.5764    1.1632 H   0  0  0  0  0  0  0  0  0  0  0  0
   -5.7396    2.7962    3.3860 H   0  0  0  0  0  0  0  0  0  0  0  0
   -5.7174    1.6894    1.9666 H   0  0  0  0  0  0  0  0  0  0  0  0
   -3.3839    3.4777    2.8118 H   0  0  0  0  0  0  0  0  0  0  0  0
   -3.5724    1.6835    3.1299 H   0  0  0  0  0  0  0  0  0  0  0  0
   -3.5903    3.4552   -0.6997 H   0  0  0  0  0  0  0  0  0  0  0  0
   -2.0931   -0.1747   -0.8353 H   0  0  0  0  0  0  0  0  0  0  0  0
   -0.3246   -0.8834    0.7662 H   0  0  0  0  0  0  0  0  0  0  0  0
   -0.6688    0.5441    1.7522 H   0  0  0  0  0  0  0  0  0  0  0  0
    2.3704    2.0261   -0.6205 H   0  0  0  0  0  0  0  0  0  0  0  0
    2.1080    1.5447    1.1253 H   0  0  0  0  0  0  0  0  0  0  0  0
    1.9453   -0.8003    0.4800 H   0  0  0  0  0  0  0  0  0  0  0  0
    2.3292   -0.3976   -1.2053 H   0  0  0  0  0  0  0  0  0  0  0  0
    5.3950    2.5982   -0.1608 H   0  0  0  0  0  0  0  0  0  0  0  0
    7.0315    2.7252    0.4661 H   0  0  0  0  0  0  0  0  0  0  0  0
    6.2479    1.2914    2.4389 H   0  0  0  0  0  0  0  0  0  0  0  0
    4.5840    1.3278    1.7716 H   0  0  0  0  0  0  0  0  0  0  0  0
    7.0244   -0.3307    1.3750 H   0  0  0  0  0  0  0  0  0  0  0  0
    7.0618   -1.1258   -0.2253 H   0  0  0  0  0  0  0  0  0  0  0  0
    9.1173    0.2439   -0.8220 H   0  0  0  0  0  0  0  0  0  0  0  0
    9.2890   -0.7059    0.6533 H   0  0  0  0  0  0  0  0  0  0  0  0
    6.0969   -2.0720   -3.7418 H   0  0  0  0  0  0  0  0  0  0  0  0
    5.1289   -0.5972   -3.7983 H   0  0  0  0  0  0  0  0  0  0  0  0
    8.1610   -0.8269   -3.1475 H   0  0  0  0  0  0  0  0  0  0  0  0
    7.3461   -0.1949   -4.5680 H   0  0  0  0  0  0  0  0  0  0  0  0
    3.8817   -2.2094   -0.9616 H   0  0  0  0  0  0  0  0  0  0  0  0
    3.6046   -1.7597   -2.6705 H   0  0  0  0  0  0  0  0  0  0  0  0
    5.4381   -4.0235   -1.7065 H   0  0  0  0  0  0  0  0  0  0  0  0
    5.0072   -3.5777   -3.4537 H   0  0  0  0  0  0  0  0  0  0  0  0
   -3.9258   -0.6581    2.8788 H   0  0  0  0  0  0  0  0  0  0  0  0
   -4.2720   -1.4829   -1.3315 H   0  0  0  0  0  0  0  0  0  0  0  0
   -1.1943   -3.9978   -1.2048 H   0  0  0  0  0  0  0  0  0  0  0  0
   -5.1558   -4.7050   -1.5880 H   0  0  0  0  0  0  0  0  0  0  0  0
   -7.4035   -5.6219   -1.0732 H   0  0  0  0  0  0  0  0  0  0  0  0
   -8.9651   -4.3233    0.4422 H   0  0  0  0  0  0  0  0  0  0  0  0
   -8.2037   -2.2148    1.3464 H   0  0  0  0  0  0  0  0  0  0  0  0
   -6.0217   -1.3541    0.8315 H   0  0  0  0  0  0  0  0  0  0  0  0
   -9.2762    3.5408    1.0546 H   0  0  0  0  0  0  0  0  0  0  0  0
  1  2  1  0
  1  3  1  0
  3  4  1  0
  4  5  1  0
  5  6  1  0
  5  7  2  3
  7  8  1  0
  8  9  1  0
  9 10  1  0
 10 11  2  0
 10 12  2  0
 10 13  1  0
 13 14  1  0
 14 15  1  0
 15 16  1  0
 16 17  2  0
 16 18  1  0
 18 19  1  0
 19 20  1  0
 20 21  1  0
 18 22  1  0
 22 23  1  0
 23 24  1  0
 16 25  1  0
 25 26  1  0
 26 27  1  0
 27 28  1  0
 25 29  1  0
 29 30  1  0
 30 31  1  0
  8 32  1  0
 32 33  1  0
 32 34  2  3
 34 35  1  0
 35 36  1  0
 36 37  1  0
 36 38  2  0
 35 39  1  0
 39 40  2  0
 40 41  1  0
 41 42  2  0
 42 43  1  0
 43 44  2  0
  1 45  1  0
 45 46  1  0
 45 47  2  0
 44 39  1  0
  1 48  1  6
  2 49  1  0
  2 50  1  0
  3 51  1  0
  3 52  1  0
  4 53  1  0
  4 54  1  0
  6 55  1  0
  8 56  1  6
  9 57  1  0
  9 58  1  0
 13 59  1  0
 13 60  1  0
 14 61  1  0
 14 62  1  0
 19 63  1  0
 19 64  1  0
 20 65  1  0
 20 66  1  0
 22 67  1  0
 22 68  1  0
 23 69  1  0
 23 70  1  0
 26 71  1  0
 26 72  1  0
 27 73  1  0
 27 74  1  0
 29 75  1  0
 29 76  1  0
 30 77  1  0
 30 78  1  0
 33 79  1  0
 35 80  1  6
 37 81  1  0
 40 82  1  0
 41 83  1  0
 42 84  1  0
 43 85  1  0
 44 86  1  0
 46 87  1  0
M  END
$$$$
