@<TRIPOS>MOLECULE
*****
 87 87 0 0 0
SMALL
GASTEIGER

@<TRIPOS>ATOM
      1 C          -5.8089    3.7583    1.5183 C.3     1  UNK1        0.1037
      2 N          -5.3686    5.0740    1.8795 N.3     1  UNK1       -0.3184
      3 C          -5.2909    2.6519    2.3741 C.3     1  UNK1       -0.0190
      4 C          -3.8063    2.4975    2.4311 C.3     1  UNK1        0.0249
      5 C          -3.2322    2.2464    1.0582 C.2     1  UNK1        0.1833
      6 O          -3.3955    3.3851    0.2844 O.2     1  UNK1       -0.4956
      7 N          -2.6643    1.4952    0.2464 N.2     1  UNK1       -0.2403
      8 C          -2.1584    0.1973    0.2055 C.3     1  UNK1        0.1480
      9 C          -0.6989    0.1317    0.7062 C.3     1  UNK1        0.0968
     10 S           0.2195    1.2163   -0.3502 S.O2    1  UNK1       -0.0264
     11 O          -0.3249    2.5966   -0.2930 O.2     1  UNK1       -0.1742
     12 O           0.1296    0.6520   -1.7543 O.2     1  UNK1       -0.1742
     13 C           1.9508    1.2769    0.0483 C.3     1  UNK1        0.0896
     14 C           2.5385   -0.0868   -0.1650 C.3     1  UNK1        0.0765
     15 O           3.8469   -0.2200    0.1143 O.3     1  UNK1       -0.3036
     16 P           4.9719    0.1564   -1.0606 P.3     1  UNK1        0.3485
     17 O           4.4789    1.1978   -2.0226 O.2     1  UNK1       -0.2540
     18 N           6.3483    0.7945   -0.2108 N.3     1  UNK1       -0.2166
     19 C           6.1830    2.0318    0.4369 C.3     1  UNK1        0.0219
     20 C           5.5467    1.8716    1.8084 C.3     1  UNK1        0.0358
     21 CL          5.3754    3.4792    2.5991 Cl      1  UNK1       -0.1241
     22 C           7.2558   -0.1508    0.2996 C.3     1  UNK1        0.0219
     23 C           8.7105    0.1546    0.2103 C.3     1  UNK1        0.0358
     24 CL          9.1876    1.6246    1.0776 Cl      1  UNK1       -0.1241
     25 N           5.5183   -1.2861   -1.9091 N.3     1  UNK1       -0.2166
     26 C           5.9929   -1.0665   -3.2198 C.3     1  UNK1        0.0219
     27 C           7.2312   -0.2818   -3.4348 C.3     1  UNK1        0.0358
     28 CL          7.1045    1.3536   -2.8369 Cl      1  UNK1       -0.1241
     29 C           4.3545   -2.1938   -1.9617 C.3     1  UNK1        0.0219
     30 C           4.6959   -3.5860   -2.3822 C.3     1  UNK1        0.0358
     31 CL          3.1580   -4.5423   -2.3218 Cl      1  UNK1       -0.1241
     32 C          -2.9704   -0.8041    0.9653 C.2     1  UNK1        0.2106
     33 O          -3.1415   -0.9682    2.3301 O.2     1  UNK1       -0.4941
     34 N          -3.7454   -1.7961    0.7200 N.2     2  UNK2       -0.2333
     35 C          -4.0899   -2.2792   -0.6109 C.3     2  UNK2        0.1753
     36 C          -3.1225   -3.2873   -1.1030 C.2     2  UNK2        0.3341
     37 O          -2.1743   -4.2241   -1.4549 O.3     2  UNK2       -0.4789
     38 O          -3.3387   -3.5853   -2.3291 O.2     2  UNK2       -0.2482
     39 C          -5.4070   -2.9739   -0.4299 C.ar    2  UNK2       -0.0123
     40 C          -5.8224   -4.1668   -0.9481 C.ar    2  UNK2       -0.0560
     41 C          -7.0601   -4.6972   -0.6810 C.ar    2  UNK2       -0.0614
     42 C          -7.9737   -4.0382    0.1447 C.ar    2  UNK2       -0.0617
     43 C          -7.5922   -2.8228    0.6926 C.ar    2  UNK2       -0.0614
     44 C          -6.3320   -2.3198    0.3982 C.ar    2  UNK2       -0.0560
     45 C          -7.3145    3.7480    1.7342 C.2     1  UNK1        0.3217
     46 O          -8.7038    3.5887    1.8895 O.3     1  UNK1       -0.4795
     47 O          -7.3446    4.9452    2.0898 O.2     1  UNK1       -0.2493
     48 H          -5.6964    3.6090    0.4268 H       1  UNK1        0.0574
     49 H          -5.0514    5.1597    2.8523 H       1  UNK1        0.1190
     50 H          -4.8292    5.5764    1.1632 H       1  UNK1        0.1190
     51 H          -5.7396    2.7962    3.3860 H       1  UNK1        0.0290
     52 H          -5.7174    1.6894    1.9666 H       1  UNK1        0.0290
     53 H          -3.3839    3.4777    2.8118 H       1  UNK1        0.0360
     54 H          -3.5724    1.6835    3.1299 H       1  UNK1        0.0360
     55 H          -3.5903    3.4552   -0.6997 H       1  UNK1        0.2934
     56 H          -2.0931   -0.1747   -0.8353 H       1  UNK1        0.0659
     57 H          -0.3246   -0.8834    0.7662 H       1  UNK1        0.0526
     58 H          -0.6688    0.5441    1.7522 H       1  UNK1        0.0526
     59 H           2.3704    2.0261   -0.6205 H       1  UNK1        0.0523
     60 H           2.1080    1.5447    1.1253 H       1  UNK1        0.0523
     61 H           1.9453   -0.8003    0.4800 H       1  UNK1        0.0581
     62 H           2.3292   -0.3976   -1.2053 H       1  UNK1        0.0581
     63 H           5.3950    2.5982   -0.1608 H       1  UNK1        0.0443
     64 H           7.0315    2.7252    0.4661 H       1  UNK1        0.0443
     65 H           6.2479    1.2914    2.4389 H       1  UNK1        0.0442
     66 H           4.5840    1.3278    1.7716 H       1  UNK1        0.0442
     67 H           7.0244   -0.3307    1.3750 H       1  UNK1        0.0443
     68 H           7.0618   -1.1258   -0.2253 H       1  UNK1        0.0443
     69 H           9.1173    0.2439   -0.8220 H       1  UNK1        0.0442
     70 H           9.2890   -0.7059    0.6533 H       1  UNK1        0.0442
     71 H           6.0969   -2.0720   -3.7418 H       1  UNK1        0.0443
     72 H           5.1289   -0.5972   -3.7983 H       1  UNK1        0.0443
     73 H           8.1610   -0.8269   -3.1475 H       1  UNK1        0.0442
     74 H           7.3461   -0.1949   -4.5680 H       1  UNK1        0.0442
     75 H           3.8817   -2.2094   -0.9616 H       1  UNK1        0.0443
     76 H           3.6046   -1.7597   -2.6705 H       1  UNK1        0.0443
     77 H           5.4381   -4.0235   -1.7065 H       1  UNK1        0.0442
     78 H           5.0072   -3.5777   -3.4537 H       1  UNK1        0.0442
     79 H          -3.9258   -0.6581    2.8788 H       1  UNK1        0.2935
     80 H          -4.2720   -1.4829   -1.3315 H       2  UNK2        0.0713
     81 H          -1.1943   -3.9978   -1.2048 H       2  UNK2        0.2951
     82 H          -5.1558   -4.7050   -1.5880 H       2  UNK2        0.0621
     83 H          -7.4035   -5.6219   -1.0732 H       2  UNK2        0.0618
     84 H          -8.9651   -4.3233    0.4422 H       2  UNK2        0.0618
     85 H          -8.2037   -2.2148    1.3464 H       2  UNK2        0.0618
     86 H          -6.0217   -1.3541    0.8315 H       2  UNK2        0.0621
     87 H          -9.2762    3.5408    1.0546 H       1  UNK1        0.2951
@<TRIPOS>BOND
     1     1     2    1
     2     1     3    1
     3     3     4    1
     4     4     5    1
     5     5     6    1
     6     5     7    2
     7     7     8    1
     8     8     9    1
     9     9    10    1
    10    10    11    2
    11    10    12    2
    12    10    13    1
    13    13    14    1
    14    14    15    1
    15    15    16    1
    16    16    17    2
    17    16    18    1
    18    18    19    1
    19    19    20    1
    20    20    21    1
    21    18    22    1
    22    22    23    1
    23    23    24    1
    24    16    25    1
    25    25    26    1
    26    26    27    1
    27    27    28    1
    28    25    29    1
    29    29    30    1
    30    30    31    1
    31     8    32    1
    32    32    33    1
    33    32    34    2
    34    34    35    1
    35    35    36    1
    36    36    37    1
    37    36    38    2
    38    35    39    1
    39    39    40   ar
    40    40    41   ar
    41    41    42   ar
    42    42    43   ar
    43    43    44   ar
    44     1    45    1
    45    45    46    1
    46    45    47    2
    47    44    39   ar
    48     1    48    1
    49     2    49    1
    50     2    50    1
    51     3    51    1
    52     3    52    1
    53     4    53    1
    54     4    54    1
    55     6    55    1
    56     8    56    1
    57     9    57    1
    58     9    58    1
    59    13    59    1
    60    13    60    1
    61    14    61    1
    62    14    62    1
    63    19    63    1
    64    19    64    1
    65    20    65    1
    66    20    66    1
    67    22    67    1
    68    22    68    1
    69    23    69    1
    70    23    70    1
    71    26    71    1
    72    26    72    1
    73    27    73    1
    74    27    74    1
    75    29    75    1
    76    29    76    1
    77    30    77    1
    78    30    78    1
    79    33    79    1
    80    35    80    1
    81    37    81    1
    82    40    82    1
    83    41    83    1
    84    42    84    1
    85    43    85    1
    86    44    86    1
    87    46    87    1
