@<TRIPOS>MOLECULE
*****
 39 42 0 0 0
SMALL
GASTEIGER

@<TRIPOS>ATOM
      1 C          -3.9369   -1.5536    0.3415 C.3     1  UNL1       -0.0126
      2 N          -2.8655   -0.9392   -0.4215 N.3     1  UNL1       -0.3018
      3 C          -2.8977    0.4688   -0.2375 C.3     1  UNL1        0.0145
      4 C          -1.7820    0.8628    0.7076 C.3     1  UNL1        0.0269
      5 N          -0.5560    0.5460   -0.0397 N.pl3   1  UNL1       -0.3054
      6 C          -0.4824   -0.7959   -0.5868 C.3     1  UNL1        0.0630
      7 C          -1.6234   -1.5931   -0.0696 C.3     1  UNL1        0.0214
      8 C           0.8409   -1.3084   -0.2455 C.ar    1  UNL1       -0.0223
      9 C           0.8260   -2.5390    0.3663 C.ar    1  UNL1       -0.0565
     10 C           1.9821   -3.1798    0.7606 C.ar    1  UNL1       -0.0614
     11 C           3.1960   -2.5845    0.5432 C.ar    1  UNL1       -0.0615
     12 C           3.1931   -1.3380   -0.0776 C.ar    1  UNL1       -0.0579
     13 C           2.0363   -0.6646   -0.4882 C.ar    1  UNL1       -0.0380
     14 C           2.3843    0.6424   -1.1164 C.3     1  UNL1        0.0012
     15 C           1.5580    1.7256   -0.5008 C.ar    1  UNL1       -0.0031
     16 C           0.2743    1.7002   -0.0261 C.ar    1  UNL1        0.1253
     17 N          -0.3379    2.7737    0.5063 N.ar    1  UNL1       -0.2400
     18 C           0.2862    3.9474    0.6028 C.ar    1  UNL1        0.0297
     19 C           1.5882    4.0350    0.1387 C.ar    1  UNL1       -0.0432
     20 C           2.2306    2.9389   -0.4114 C.ar    1  UNL1       -0.0536
     21 H          -3.6774   -2.6090    0.5705 H       1  UNL1        0.0391
     22 H          -4.0664   -0.9592    1.2848 H       1  UNL1        0.0391
     23 H          -4.8898   -1.5377   -0.2293 H       1  UNL1        0.0391
     24 H          -3.8981    0.7829    0.1114 H       1  UNL1        0.0442
     25 H          -2.7596    0.9515   -1.2225 H       1  UNL1        0.0442
     26 H          -1.8425    1.9116    1.0062 H       1  UNL1        0.0477
     27 H          -1.8016    0.2251    1.6082 H       1  UNL1        0.0477
     28 H          -0.5460   -0.8073   -1.7071 H       1  UNL1        0.0563
     29 H          -1.7027   -2.5824   -0.6084 H       1  UNL1        0.0448
     30 H          -1.5991   -1.7155    1.0129 H       1  UNL1        0.0448
     31 H          -0.0997   -3.0544    0.5626 H       1  UNL1        0.0621
     32 H           1.9371   -4.1608    1.2461 H       1  UNL1        0.0618
     33 H           4.1156   -3.0406    0.8302 H       1  UNL1        0.0618
     34 H           4.1733   -0.8832   -0.2402 H       1  UNL1        0.0620
     35 H           3.4277    0.8855   -0.8693 H       1  UNL1        0.0363
     36 H           2.1696    0.6627   -2.2030 H       1  UNL1        0.0363
     37 H          -0.2254    4.8029    1.0360 H       1  UNL1        0.0830
     38 H           2.1240    4.9645    0.1995 H       1  UNL1        0.0633
     39 H           3.2466    3.0187   -0.7703 H       1  UNL1        0.0622
@<TRIPOS>BOND
     1     1     2    1
     2     2     3    1
     3     3     4    1
     4     4     5    1
     5     5     6    1
     6     6     7    1
     7     6     8    1
     8     8     9   ar
     9     9    10   ar
    10    10    11   ar
    11    11    12   ar
    12    12    13   ar
    13    13    14    1
    14    14    15    1
    15    15    16   ar
    16    16    17   ar
    17    17    18   ar
    18    18    19   ar
    19    19    20   ar
    20     7     2    1
    21    13     8   ar
    22    20    15   ar
    23    16     5    1
    24     1    21    1
    25     1    22    1
    26     1    23    1
    27     3    24    1
    28     3    25    1
    29     4    26    1
    30     4    27    1
    31     6    28    1
    32     7    29    1
    33     7    30    1
    34     9    31    1
    35    10    32    1
    36    11    33    1
    37    12    34    1
    38    14    35    1
    39    14    36    1
    40    18    37    1
    41    19    38    1
    42    20    39    1
