@<TRIPOS>MOLECULE
*****
 33 33 0 0 0
SMALL
GASTEIGER

@<TRIPOS>ATOM
      1 C          -5.1303    0.5803   -0.5482 C.3     1  UNL1       -0.0652
      2 C          -4.1631    1.3602    0.3133 C.3     1  UNL1       -0.0543
      3 C          -2.9020    0.5227    0.4833 C.3     1  UNL1       -0.0345
      4 C          -2.3493    0.2924   -0.9068 C.3     1  UNL1        0.0350
      5 N          -1.1467   -0.4944   -0.8726 N.ar    1  UNL1       -0.2598
      6 S          -1.0996   -2.1963   -0.9589 S.2     1  UNL1        0.0546
      7 C           0.7140   -2.3368   -0.8523 C.ar    1  UNL1        0.3107
      8 O           1.3795   -3.4263   -0.8677 O.2     1  UNL1       -0.2578
      9 N           1.0630   -1.0381   -0.7623 N.ar    1  UNL1       -0.2536
     10 C           2.5158   -0.7080   -0.6541 C.3     1  UNL1        0.0315
     11 C           2.8098   -0.6983    0.8169 C.3     1  UNL1       -0.0349
     12 C           4.2651   -0.3742    1.0930 C.3     1  UNL1       -0.0543
     13 C           4.6405    0.9875    0.5478 C.3     1  UNL1       -0.0652
     14 C           0.1370   -0.1290   -0.7727 C.ar    1  UNL1        0.3386
     15 O           0.3733    1.1477   -0.6908 O.2     1  UNL1       -0.2457
     16 H          -5.0842   -0.4920   -0.3433 H       1  UNL1        0.0230
     17 H          -6.1789    0.9332   -0.4340 H       1  UNL1        0.0230
     18 H          -4.8642    0.7758   -1.6229 H       1  UNL1        0.0230
     19 H          -4.6403    1.5721    1.3019 H       1  UNL1        0.0263
     20 H          -3.8953    2.3064   -0.2099 H       1  UNL1        0.0263
     21 H          -2.2008    1.0789    1.1240 H       1  UNL1        0.0283
     22 H          -3.2156   -0.4351    0.9592 H       1  UNL1        0.0283
     23 H          -3.1076   -0.2789   -1.4792 H       1  UNL1        0.0499
     24 H          -2.1170    1.2619   -1.3565 H       1  UNL1        0.0499
     25 H           2.6519    0.2971   -1.0507 H       1  UNL1        0.0494
     26 H           3.1118   -1.4587   -1.1677 H       1  UNL1        0.0494
     27 H           2.2077    0.0956    1.2924 H       1  UNL1        0.0282
     28 H           2.5845   -1.6682    1.2852 H       1  UNL1        0.0282
     29 H           4.9429   -1.1117    0.6021 H       1  UNL1        0.0263
     30 H           4.4722   -0.3973    2.1730 H       1  UNL1        0.0263
     31 H           4.8059    0.9394   -0.5427 H       1  UNL1        0.0230
     32 H           5.5630    1.3496    1.0488 H       1  UNL1        0.0230
     33 H           3.8571    1.7426    0.7321 H       1  UNL1        0.0230
@<TRIPOS>BOND
     1     1     2    1
     2     2     3    1
     3     3     4    1
     4     4     5    1
     5     5     6   ar
     6     6     7   ar
     7     7     8    2
     8     7     9   ar
     9     9    10    1
    10    10    11    1
    11    11    12    1
    12    12    13    1
    13     9    14   ar
    14    14    15    2
    15    14     5   ar
    16     1    16    1
    17     1    17    1
    18     1    18    1
    19     2    19    1
    20     2    20    1
    21     3    21    1
    22     3    22    1
    23     4    23    1
    24     4    24    1
    25    10    25    1
    26    10    26    1
    27    11    27    1
    28    11    28    1
    29    12    29    1
    30    12    30    1
    31    13    31    1
    32    13    32    1
    33    13    33    1
