@<TRIPOS>MOLECULE
*****
 43 46 0 0 0
SMALL
GASTEIGER

@<TRIPOS>ATOM
      1 C          -4.1219   -0.2848    1.0734 C.3     1  UNL1       -0.0402
      2 C          -3.1257    0.7309    0.5713 C.3     1  UNL1        0.0575
      3 C          -2.9157    1.8047    1.6167 C.3     1  UNL1       -0.0402
      4 C          -3.7257    1.4057   -0.6431 C.3     1  UNL1       -0.0402
      5 N          -1.8593    0.1041    0.2327 N.ar    1  UNL1       -0.2403
      6 N          -0.6788    0.2291    0.7752 N.ar    1  UNL1       -0.1681
      7 C           0.2449   -0.5477    0.1392 C.ar    1  UNL1        0.1059
      8 C           1.6500   -0.6873    0.4273 C.ar    1  UNL1        0.0106
      9 C           2.2259   -1.8989    0.7411 C.ar    1  UNL1       -0.0519
     10 C           3.5699   -2.0250    1.0332 C.ar    1  UNL1       -0.0605
     11 C           4.3460   -0.8803    1.0037 C.ar    1  UNL1       -0.0540
     12 C           3.8082    0.3500    0.6949 C.ar    1  UNL1       -0.0173
     13 C           4.6129    1.4682    0.6747 C.ar    1  UNL1       -0.0540
     14 C           4.0839    2.7083    0.3650 C.ar    1  UNL1       -0.0612
     15 C           2.7427    2.8200    0.0756 C.ar    1  UNL1       -0.0611
     16 C           1.9557    1.6822    0.1026 C.ar    1  UNL1       -0.0534
     17 C           2.4595    0.4466    0.4066 C.ar    1  UNL1       -0.0086
     18 C          -0.4326   -1.1829   -0.8563 C.ar    1  UNL1        0.0859
     19 C          -0.1130   -2.0855   -1.8548 C.ar    1  UNL1        0.1308
     20 N           1.2471   -2.4995   -1.9264 N.pl3   1  UNL1       -0.3425
     21 N          -1.0370   -2.5546   -2.7365 N.ar    1  UNL1       -0.2204
     22 C          -2.3099   -2.1409   -2.6546 C.ar    1  UNL1        0.1204
     23 N          -2.6438   -1.2634   -1.6927 N.ar    1  UNL1       -0.2161
     24 C          -1.7609   -0.7753   -0.8015 C.ar    1  UNL1        0.1643
     25 H          -5.1438   -0.1156    0.6709 H       1  UNL1        0.0253
     26 H          -3.7683   -1.3074    0.7824 H       1  UNL1        0.0253
     27 H          -4.1801   -0.3022    2.1778 H       1  UNL1        0.0253
     28 H          -3.5832    2.6714    1.4095 H       1  UNL1        0.0253
     29 H          -1.8734    2.1899    1.4978 H       1  UNL1        0.0253
     30 H          -3.1157    1.4049    2.6221 H       1  UNL1        0.0253
     31 H          -4.8119    1.1766   -0.7554 H       1  UNL1        0.0253
     32 H          -3.5650    2.5052   -0.6051 H       1  UNL1        0.0253
     33 H          -3.2187    1.0385   -1.5557 H       1  UNL1        0.0253
     34 H           1.6350   -2.8224    0.7814 H       1  UNL1        0.0624
     35 H           3.9694   -2.9966    1.2720 H       1  UNL1        0.0618
     36 H           5.4022   -0.9996    1.2365 H       1  UNL1        0.0624
     37 H           5.6788    1.3965    0.9018 H       1  UNL1        0.0624
     38 H           4.7049    3.5893    0.3458 H       1  UNL1        0.0618
     39 H           2.3056    3.7835   -0.1713 H       1  UNL1        0.0618
     40 H           0.8908    1.7463   -0.1252 H       1  UNL1        0.0624
     41 H           2.0276   -1.8997   -2.2696 H       1  UNL1        0.1437
     42 H           1.4871   -3.4654   -1.6164 H       1  UNL1        0.1437
     43 H          -3.0638   -2.5172   -3.3667 H       1  UNL1        0.1048
@<TRIPOS>BOND
     1     1     2    1
     2     2     3    1
     3     2     4    1
     4     2     5    1
     5     5     6   ar
     6     6     7   ar
     7     7     8    1
     8     8     9   ar
     9     9    10   ar
    10    10    11   ar
    11    11    12   ar
    12    12    13   ar
    13    13    14   ar
    14    14    15   ar
    15    15    16   ar
    16    16    17   ar
    17     7    18   ar
    18    18    19   ar
    19    19    20    1
    20    19    21   ar
    21    21    22   ar
    22    22    23   ar
    23    23    24   ar
    24    24     5   ar
    25    17     8   ar
    26    24    18   ar
    27    17    12   ar
    28     1    25    1
    29     1    26    1
    30     1    27    1
    31     3    28    1
    32     3    29    1
    33     3    30    1
    34     4    31    1
    35     4    32    1
    36     4    33    1
    37     9    34    1
    38    10    35    1
    39    11    36    1
    40    13    37    1
    41    14    38    1
    42    15    39    1
    43    16    40    1
    44    20    41    1
    45    20    42    1
    46    22    43    1
