
     RDKit          3D

 43 46  0  0  0  0  0  0  0  0999 V2000
   -4.1219   -0.2848    1.0734 C   0  0  0  0  0  0  0  0  0  0  0  0
   -3.1257    0.7309    0.5713 C   0  0  0  0  0  0  0  0  0  0  0  0
   -2.9157    1.8047    1.6167 C   0  0  0  0  0  0  0  0  0  0  0  0
   -3.7257    1.4057   -0.6431 C   0  0  0  0  0  0  0  0  0  0  0  0
   -1.8593    0.1041    0.2327 N   0  0  0  0  0  0  0  0  0  0  0  0
   -0.6788    0.2291    0.7752 N   0  0  0  0  0  0  0  0  0  0  0  0
    0.2449   -0.5477    0.1392 C   0  0  0  0  0  0  0  0  0  0  0  0
    1.6500   -0.6873    0.4273 C   0  0  0  0  0  0  0  0  0  0  0  0
    2.2259   -1.8989    0.7411 C   0  0  0  0  0  0  0  0  0  0  0  0
    3.5699   -2.0250    1.0332 C   0  0  0  0  0  0  0  0  0  0  0  0
    4.3460   -0.8803    1.0037 C   0  0  0  0  0  0  0  0  0  0  0  0
    3.8082    0.3500    0.6949 C   0  0  0  0  0  0  0  0  0  0  0  0
    4.6129    1.4682    0.6747 C   0  0  0  0  0  0  0  0  0  0  0  0
    4.0839    2.7083    0.3650 C   0  0  0  0  0  0  0  0  0  0  0  0
    2.7427    2.8200    0.0756 C   0  0  0  0  0  0  0  0  0  0  0  0
    1.9557    1.6822    0.1026 C   0  0  0  0  0  0  0  0  0  0  0  0
    2.4595    0.4466    0.4066 C   0  0  0  0  0  0  0  0  0  0  0  0
   -0.4326   -1.1829   -0.8563 C   0  0  0  0  0  0  0  0  0  0  0  0
   -0.1130   -2.0855   -1.8548 C   0  0  0  0  0  0  0  0  0  0  0  0
    1.2471   -2.4995   -1.9264 N   0  0  0  0  0  0  0  0  0  0  0  0
   -1.0370   -2.5546   -2.7365 N   0  0  0  0  0  0  0  0  0  0  0  0
   -2.3099   -2.1409   -2.6546 C   0  0  0  0  0  0  0  0  0  0  0  0
   -2.6438   -1.2634   -1.6927 N   0  0  0  0  0  0  0  0  0  0  0  0
   -1.7609   -0.7753   -0.8015 C   0  0  0  0  0  0  0  0  0  0  0  0
   -5.1438   -0.1156    0.6709 H   0  0  0  0  0  0  0  0  0  0  0  0
   -3.7683   -1.3074    0.7824 H   0  0  0  0  0  0  0  0  0  0  0  0
   -4.1801   -0.3022    2.1778 H   0  0  0  0  0  0  0  0  0  0  0  0
   -3.5832    2.6714    1.4095 H   0  0  0  0  0  0  0  0  0  0  0  0
   -1.8734    2.1899    1.4978 H   0  0  0  0  0  0  0  0  0  0  0  0
   -3.1157    1.4049    2.6221 H   0  0  0  0  0  0  0  0  0  0  0  0
   -4.8119    1.1766   -0.7554 H   0  0  0  0  0  0  0  0  0  0  0  0
   -3.5650    2.5052   -0.6051 H   0  0  0  0  0  0  0  0  0  0  0  0
   -3.2187    1.0385   -1.5557 H   0  0  0  0  0  0  0  0  0  0  0  0
    1.6350   -2.8224    0.7814 H   0  0  0  0  0  0  0  0  0  0  0  0
    3.9694   -2.9966    1.2720 H   0  0  0  0  0  0  0  0  0  0  0  0
    5.4022   -0.9996    1.2365 H   0  0  0  0  0  0  0  0  0  0  0  0
    5.6788    1.3965    0.9018 H   0  0  0  0  0  0  0  0  0  0  0  0
    4.7049    3.5893    0.3458 H   0  0  0  0  0  0  0  0  0  0  0  0
    2.3056    3.7835   -0.1713 H   0  0  0  0  0  0  0  0  0  0  0  0
    0.8908    1.7463   -0.1252 H   0  0  0  0  0  0  0  0  0  0  0  0
    2.0276   -1.8997   -2.2696 H   0  0  0  0  0  0  0  0  0  0  0  0
    1.4871   -3.4654   -1.6164 H   0  0  0  0  0  0  0  0  0  0  0  0
   -3.0638   -2.5172   -3.3667 H   0  0  0  0  0  0  0  0  0  0  0  0
  1  2  1  0
  2  3  1  0
  2  4  1  0
  2  5  1  0
  5  6  1  0
  6  7  2  0
  7  8  1  0
  8  9  2  0
  9 10  1  0
 10 11  2  0
 11 12  1  0
 12 13  2  0
 13 14  1  0
 14 15  2  0
 15 16  1  0
 16 17  2  0
  7 18  1  0
 18 19  2  0
 19 20  1  0
 19 21  1  0
 21 22  2  0
 22 23  1  0
 23 24  2  0
 24  5  1  0
 17  8  1  0
 24 18  1  0
 17 12  1  0
  1 25  1  0
  1 26  1  0
  1 27  1  0
  3 28  1  0
  3 29  1  0
  3 30  1  0
  4 31  1  0
  4 32  1  0
  4 33  1  0
  9 34  1  0
 10 35  1  0
 11 36  1  0
 13 37  1  0
 14 38  1  0
 15 39  1  0
 16 40  1  0
 20 41  1  0
 20 42  1  0
 22 43  1  0
M  END
$$$$
