@<TRIPOS>MOLECULE
*****
 23 23 0 0 0
SMALL
GASTEIGER

@<TRIPOS>ATOM
      1 N          -1.5640   -0.5700    1.1843 N.3     1  PHE1       -0.3181
      2 CA         -1.5744    0.4213    0.1273 C.3     1  PHE1        0.1072
      3 CB         -0.7028    0.0133   -1.0370 C.3     1  PHE1       -0.0020
      4 CG          0.7110   -0.1718   -0.6391 C.ar    1  PHE1       -0.0454
      5 CD1         1.2439   -1.3776   -0.1992 C.ar    1  PHE1       -0.0585
      6 CE1         2.5780   -1.5053    0.1644 C.ar    1  PHE1       -0.0615
      7 CZ          3.4146   -0.3912    0.0876 C.ar    1  PHE1       -0.0617
      8 CE2         2.9254    0.8223   -0.3435 C.ar    1  PHE1       -0.0615
      9 CD2         1.6086    0.8770   -0.6842 C.ar    1  PHE1       -0.0585
     10 C          -2.9687    0.5801   -0.3642 C.2     1  PHE1        0.3220
     11 O          -3.1481    1.5159   -1.4012 O.3     1  PHE1       -0.4795
     12 OXT        -4.0906    0.0496   -0.0595 O.2     1  PHE1       -0.2492
     13 H1         -1.6574   -1.5387    0.7837 H       1  PHE1        0.1190
     14 H2         -2.4552   -0.4417    1.7468 H       1  PHE1        0.1190
     15 HA         -1.2553    1.3923    0.5351 H       1  PHE1        0.0577
     16 HB1        -1.1136   -0.8672   -1.5489 H       1  PHE1        0.0334
     17 HB2        -0.7369    0.8512   -1.7639 H       1  PHE1        0.0334
     18 HD1         0.5709   -2.2406   -0.1459 H       1  PHE1        0.0620
     19 HE1         2.9732   -2.4531    0.5044 H       1  PHE1        0.0618
     20 HZ          4.4485   -0.5348    0.3807 H       1  PHE1        0.0618
     21 HE2         3.5789    1.6901   -0.4028 H       1  PHE1        0.0618
     22 HD2         1.2149    1.8269   -1.0243 H       1  PHE1        0.0620
     23 H          -4.0008    2.0519   -1.5153 H       1  PHE1        0.2951
@<TRIPOS>BOND
     1     1     2    1
     2     2     3    1
     3     3     4    1
     4     4     5   ar
     5     5     6   ar
     6     6     7   ar
     7     7     8   ar
     8     8     9   ar
     9     2    10    1
    10    10    11    1
    11    10    12    2
    12     9     4   ar
    13     1    13    1
    14     1    14    1
    15     2    15    1
    16     3    16    1
    17     3    17    1
    18     5    18    1
    19     6    19    1
    20     7    20    1
    21     8    21    1
    22     9    22    1
    23    11    23    1
