
     RDKit          3D

 23 23  0  0  0  0  0  0  0  0999 V2000
   -1.5640   -0.5700    1.1843 N   0  0  0  0  0  0  0  0  0  0  0  0
   -1.5744    0.4213    0.1273 C   0  0  1  0  0  0  0  0  0  0  0  0
   -0.7028    0.0133   -1.0370 C   0  0  0  0  0  0  0  0  0  0  0  0
    0.7110   -0.1718   -0.6391 C   0  0  0  0  0  0  0  0  0  0  0  0
    1.2439   -1.3776   -0.1992 C   0  0  0  0  0  0  0  0  0  0  0  0
    2.5780   -1.5053    0.1644 C   0  0  0  0  0  0  0  0  0  0  0  0
    3.4146   -0.3912    0.0876 C   0  0  0  0  0  0  0  0  0  0  0  0
    2.9254    0.8223   -0.3435 C   0  0  0  0  0  0  0  0  0  0  0  0
    1.6086    0.8770   -0.6842 C   0  0  0  0  0  0  0  0  0  0  0  0
   -2.9687    0.5801   -0.3642 C   0  0  0  0  0  0  0  0  0  0  0  0
   -3.1481    1.5159   -1.4012 O   0  0  0  0  0  0  0  0  0  0  0  0
   -4.0906    0.0496   -0.0595 O   0  0  0  0  0  0  0  0  0  0  0  0
   -1.6574   -1.5387    0.7837 H   0  0  0  0  0  0  0  0  0  0  0  0
   -2.4552   -0.4417    1.7468 H   0  0  0  0  0  0  0  0  0  0  0  0
   -1.2553    1.3923    0.5351 H   0  0  0  0  0  0  0  0  0  0  0  0
   -1.1136   -0.8672   -1.5489 H   0  0  0  0  0  0  0  0  0  0  0  0
   -0.7369    0.8512   -1.7639 H   0  0  0  0  0  0  0  0  0  0  0  0
    0.5709   -2.2406   -0.1459 H   0  0  0  0  0  0  0  0  0  0  0  0
    2.9732   -2.4531    0.5044 H   0  0  0  0  0  0  0  0  0  0  0  0
    4.4485   -0.5348    0.3807 H   0  0  0  0  0  0  0  0  0  0  0  0
    3.5789    1.6901   -0.4028 H   0  0  0  0  0  0  0  0  0  0  0  0
    1.2149    1.8269   -1.0243 H   0  0  0  0  0  0  0  0  0  0  0  0
   -4.0008    2.0519   -1.5153 H   0  0  0  0  0  0  0  0  0  0  0  0
  1  2  1  0
  2  3  1  0
  3  4  1  0
  4  5  2  0
  5  6  1  0
  6  7  2  0
  7  8  1  0
  8  9  2  0
  2 10  1  0
 10 11  1  0
 10 12  2  0
  9  4  1  0
  1 13  1  0
  1 14  1  0
  2 15  1  1
  3 16  1  0
  3 17  1  0
  5 18  1  0
  6 19  1  0
  7 20  1  0
  8 21  1  0
  9 22  1  0
 11 23  1  0
M  END
$$$$
