@<TRIPOS>MOLECULE
*****
 52 56 0 0 0
SMALL
GASTEIGER

@<TRIPOS>ATOM
      1 C          -5.6364    4.0568   -0.9184 C.3     1  UNL1        0.0147
      2 C          -5.1853    2.6600   -1.1521 C.ar    1  UNL1        0.2243
      3 N          -5.1181    1.6418   -0.2781 N.ar    1  UNL1       -0.1950
      4 C          -4.6490    0.5451   -0.9204 C.ar    1  UNL1        0.1856
      5 C          -4.4317   -0.7778   -0.3040 C.3     1  UNL1        0.0623
      6 N          -3.1011   -0.8911    0.2272 N.3     1  UNL1       -0.2921
      7 C          -2.9189   -2.1854    0.8192 C.3     1  UNL1        0.0151
      8 C          -1.8789   -2.8953   -0.0705 C.3     1  UNL1        0.0251
      9 N          -0.6450   -2.2169    0.2000 N.pl3   1  UNL1       -0.3246
     10 C           0.4661   -2.7034    0.8416 C.ar    1  UNL1        0.0792
     11 C           0.6078   -3.9226    1.4663 C.ar    1  UNL1        0.0822
     12 CL         -0.7548   -5.0102    1.6057 Cl      1  UNL1       -0.0800
     13 C           1.8254   -4.3175    2.0385 C.ar    1  UNL1        0.0501
     14 N           2.8861   -3.5305    2.0004 N.ar    1  UNL1       -0.2343
     15 C           2.7730   -2.3340    1.3968 C.ar    1  UNL1        0.1600
     16 N           3.6834   -1.3345    1.2057 N.ar    1  UNL1       -0.3226
     17 C           3.1412   -0.3048    0.5419 C.ar    1  UNL1        0.1437
     18 C           3.7301    0.9584    0.1231 C.ar    1  UNL1        0.0576
     19 C           3.0952    1.9714   -0.5616 C.ar    1  UNL1        0.0361
     20 N           3.9764    2.9888   -0.7708 N.ar    1  UNL1       -0.2735
     21 C           3.7315    4.2355   -1.4444 C.3     1  UNL1        0.0302
     22 N           5.1282    2.6377   -0.2400 N.ar    1  UNL1       -0.1760
     23 C           5.0131    1.3942    0.3187 C.ar    1  UNL1        0.0706
     24 C           6.1161    0.7059    0.9954 C.3     1  UNL1       -0.0199
     25 N           1.8447   -0.6810    0.3132 N.ar    1  UNL1       -0.2241
     26 C           1.6160   -1.8917    0.8206 C.ar    1  UNL1        0.1307
     27 C          -0.6782   -0.8121   -0.2584 C.3     1  UNL1        0.0251
     28 C          -2.0837   -0.4537   -0.6678 C.3     1  UNL1        0.0151
     29 N          -4.4429    0.9448   -2.1915 N.ar    1  UNL1       -0.0600
     30 O          -4.7673    2.1899   -2.2933 O.2     1  UNL1       -0.3383
     31 H          -4.7950    4.7799   -1.0930 H       1  UNL1        0.0325
     32 H          -5.9343    4.1718    0.1497 H       1  UNL1        0.0325
     33 H          -6.4866    4.2643   -1.6037 H       1  UNL1        0.0325
     34 H          -5.1654   -0.8854    0.5398 H       1  UNL1        0.0508
     35 H          -4.6627   -1.5761   -1.0457 H       1  UNL1        0.0508
     36 H          -3.8576   -2.7438    0.8039 H       1  UNL1        0.0442
     37 H          -2.5254   -2.0585    1.8421 H       1  UNL1        0.0442
     38 H          -1.9644   -3.9476    0.1011 H       1  UNL1        0.0476
     39 H          -2.2089   -2.6420   -1.1390 H       1  UNL1        0.0476
     40 H           1.8721   -5.2758    2.5079 H       1  UNL1        0.0846
     41 H           4.6652   -1.3907    1.5423 H       1  UNL1        0.1688
     42 H           2.0749    2.0343   -0.9130 H       1  UNL1        0.0833
     43 H           2.7872    4.2296   -2.0255 H       1  UNL1        0.0473
     44 H           3.6619    5.0971   -0.7249 H       1  UNL1        0.0473
     45 H           4.5856    4.5124   -2.1252 H       1  UNL1        0.0473
     46 H           7.0560    1.3354    0.9670 H       1  UNL1        0.0293
     47 H           5.9449    0.5460    2.0783 H       1  UNL1        0.0293
     48 H           6.4468   -0.2331    0.4646 H       1  UNL1        0.0293
     49 H          -0.0235   -0.7465   -1.1329 H       1  UNL1        0.0476
     50 H          -0.3742   -0.1078    0.5185 H       1  UNL1        0.0476
     51 H          -2.3163   -0.7099   -1.7137 H       1  UNL1        0.0442
     52 H          -2.1233    0.6787   -0.6446 H       1  UNL1        0.0442
@<TRIPOS>BOND
     1     1     2    1
     2     2     3   ar
     3     3     4   ar
     4     4     5    1
     5     5     6    1
     6     6     7    1
     7     7     8    1
     8     8     9    1
     9     9    10    1
    10    10    11   ar
    11    11    12    1
    12    11    13   ar
    13    13    14   ar
    14    14    15   ar
    15    15    16   ar
    16    16    17   ar
    17    17    18    1
    18    18    19   ar
    19    19    20   ar
    20    20    21    1
    21    20    22   ar
    22    22    23   ar
    23    23    24    1
    24    17    25   ar
    25    25    26   ar
    26     9    27    1
    27    27    28    1
    28     4    29   ar
    29    29    30   ar
    30    30     2   ar
    31    28     6    1
    32    26    10   ar
    33    26    15   ar
    34    23    18   ar
    35     1    31    1
    36     1    32    1
    37     1    33    1
    38     5    34    1
    39     5    35    1
    40     7    36    1
    41     7    37    1
    42     8    38    1
    43     8    39    1
    44    13    40    1
    45    16    41    1
    46    19    42    1
    47    21    43    1
    48    21    44    1
    49    21    45    1
    50    24    46    1
    51    24    47    1
    52    24    48    1
    53    27    49    1
    54    27    50    1
    55    28    51    1
    56    28    52    1
