
     RDKit          3D

 52 56  0  0  0  0  0  0  0  0999 V2000
   -5.6364    4.0568   -0.9184 C   0  0  0  0  0  0  0  0  0  0  0  0
   -5.1853    2.6600   -1.1521 C   0  0  0  0  0  0  0  0  0  0  0  0
   -5.1181    1.6418   -0.2781 N   0  0  0  0  0  0  0  0  0  0  0  0
   -4.6490    0.5451   -0.9204 C   0  0  0  0  0  0  0  0  0  0  0  0
   -4.4317   -0.7778   -0.3040 C   0  0  0  0  0  0  0  0  0  0  0  0
   -3.1011   -0.8911    0.2272 N   0  0  0  0  0  0  0  0  0  0  0  0
   -2.9189   -2.1854    0.8192 C   0  0  0  0  0  0  0  0  0  0  0  0
   -1.8789   -2.8953   -0.0705 C   0  0  0  0  0  0  0  0  0  0  0  0
   -0.6450   -2.2169    0.2000 N   0  0  0  0  0  0  0  0  0  0  0  0
    0.4661   -2.7034    0.8416 C   0  0  0  0  0  0  0  0  0  0  0  0
    0.6078   -3.9226    1.4663 C   0  0  0  0  0  0  0  0  0  0  0  0
   -0.7548   -5.0102    1.6057 Cl  0  0  0  0  0  0  0  0  0  0  0  0
    1.8254   -4.3175    2.0385 C   0  0  0  0  0  0  0  0  0  0  0  0
    2.8861   -3.5305    2.0004 N   0  0  0  0  0  0  0  0  0  0  0  0
    2.7730   -2.3340    1.3968 C   0  0  0  0  0  0  0  0  0  0  0  0
    3.6834   -1.3345    1.2057 N   0  0  0  0  0  0  0  0  0  0  0  0
    3.1412   -0.3048    0.5419 C   0  0  0  0  0  0  0  0  0  0  0  0
    3.7301    0.9584    0.1231 C   0  0  0  0  0  0  0  0  0  0  0  0
    3.0952    1.9714   -0.5616 C   0  0  0  0  0  0  0  0  0  0  0  0
    3.9764    2.9888   -0.7708 N   0  0  0  0  0  0  0  0  0  0  0  0
    3.7315    4.2355   -1.4444 C   0  0  0  0  0  0  0  0  0  0  0  0
    5.1282    2.6377   -0.2400 N   0  0  0  0  0  0  0  0  0  0  0  0
    5.0131    1.3942    0.3187 C   0  0  0  0  0  0  0  0  0  0  0  0
    6.1161    0.7059    0.9954 C   0  0  0  0  0  0  0  0  0  0  0  0
    1.8447   -0.6810    0.3132 N   0  0  0  0  0  0  0  0  0  0  0  0
    1.6160   -1.8917    0.8206 C   0  0  0  0  0  0  0  0  0  0  0  0
   -0.6782   -0.8121   -0.2584 C   0  0  0  0  0  0  0  0  0  0  0  0
   -2.0837   -0.4537   -0.6678 C   0  0  0  0  0  0  0  0  0  0  0  0
   -4.4429    0.9448   -2.1915 N   0  0  0  0  0  0  0  0  0  0  0  0
   -4.7673    2.1899   -2.2933 O   0  0  0  0  0  0  0  0  0  0  0  0
   -4.7950    4.7799   -1.0930 H   0  0  0  0  0  0  0  0  0  0  0  0
   -5.9343    4.1718    0.1497 H   0  0  0  0  0  0  0  0  0  0  0  0
   -6.4866    4.2643   -1.6037 H   0  0  0  0  0  0  0  0  0  0  0  0
   -5.1654   -0.8854    0.5398 H   0  0  0  0  0  0  0  0  0  0  0  0
   -4.6627   -1.5761   -1.0457 H   0  0  0  0  0  0  0  0  0  0  0  0
   -3.8576   -2.7438    0.8039 H   0  0  0  0  0  0  0  0  0  0  0  0
   -2.5254   -2.0585    1.8421 H   0  0  0  0  0  0  0  0  0  0  0  0
   -1.9644   -3.9476    0.1011 H   0  0  0  0  0  0  0  0  0  0  0  0
   -2.2089   -2.6420   -1.1390 H   0  0  0  0  0  0  0  0  0  0  0  0
    1.8721   -5.2758    2.5079 H   0  0  0  0  0  0  0  0  0  0  0  0
    4.6652   -1.3907    1.5423 H   0  0  0  0  0  0  0  0  0  0  0  0
    2.0749    2.0343   -0.9130 H   0  0  0  0  0  0  0  0  0  0  0  0
    2.7872    4.2296   -2.0255 H   0  0  0  0  0  0  0  0  0  0  0  0
    3.6619    5.0971   -0.7249 H   0  0  0  0  0  0  0  0  0  0  0  0
    4.5856    4.5124   -2.1252 H   0  0  0  0  0  0  0  0  0  0  0  0
    7.0560    1.3354    0.9670 H   0  0  0  0  0  0  0  0  0  0  0  0
    5.9449    0.5460    2.0783 H   0  0  0  0  0  0  0  0  0  0  0  0
    6.4468   -0.2331    0.4646 H   0  0  0  0  0  0  0  0  0  0  0  0
   -0.0235   -0.7465   -1.1329 H   0  0  0  0  0  0  0  0  0  0  0  0
   -0.3742   -0.1078    0.5185 H   0  0  0  0  0  0  0  0  0  0  0  0
   -2.3163   -0.7099   -1.7137 H   0  0  0  0  0  0  0  0  0  0  0  0
   -2.1233    0.6787   -0.6446 H   0  0  0  0  0  0  0  0  0  0  0  0
  1  2  1  0
  2  3  2  0
  3  4  1  0
  4  5  1  0
  5  6  1  0
  6  7  1  0
  7  8  1  0
  8  9  1  0
  9 10  1  0
 10 11  2  0
 11 12  1  0
 11 13  1  0
 13 14  2  0
 14 15  1  0
 15 16  1  0
 16 17  1  0
 17 18  1  0
 18 19  2  0
 19 20  1  0
 20 21  1  0
 20 22  1  0
 22 23  2  0
 23 24  1  0
 17 25  2  0
 25 26  1  0
  9 27  1  0
 27 28  1  0
  4 29  2  0
 29 30  1  0
 30  2  1  0
 28  6  1  0
 26 10  1  0
 26 15  2  0
 23 18  1  0
  1 31  1  0
  1 32  1  0
  1 33  1  0
  5 34  1  0
  5 35  1  0
  7 36  1  0
  7 37  1  0
  8 38  1  0
  8 39  1  0
 13 40  1  0
 16 41  1  0
 19 42  1  0
 21 43  1  0
 21 44  1  0
 21 45  1  0
 24 46  1  0
 24 47  1  0
 24 48  1  0
 27 49  1  0
 27 50  1  0
 28 51  1  0
 28 52  1  0
M  END
$$$$
