
     RDKit          3D

 59 63  0  0  0  0  0  0  0  0999 V2000
   -8.3790    1.9403   -1.5103 C   0  0  0  0  0  0  0  0  0  0  0  0
   -8.2224    0.9456   -0.0540 S   0  0  0  0  0  6  0  0  0  0  0  0
   -8.9155   -0.3682   -0.2893 O   0  0  0  0  0  0  0  0  0  0  0  0
   -8.8910    1.6601    1.0903 O   0  0  0  0  0  0  0  0  0  0  0  0
   -6.5286    0.6817    0.2507 C   0  0  0  0  0  0  0  0  0  0  0  0
   -5.8217    1.5632    1.0394 C   0  0  0  0  0  0  0  0  0  0  0  0
   -4.4615    1.3168    1.2626 C   0  0  0  0  0  0  0  0  0  0  0  0
   -3.8750    0.2080    0.6910 C   0  0  0  0  0  0  0  0  0  0  0  0
   -4.5650   -0.6693   -0.0898 C   0  0  0  0  0  0  0  0  0  0  0  0
   -5.9174   -0.4167   -0.3070 C   0  0  0  0  0  0  0  0  0  0  0  0
   -3.9207   -1.8587   -0.6979 C   0  0  0  0  0  0  0  0  0  0  0  0
   -2.8455   -2.3367    0.2422 C   0  0  0  0  0  0  0  0  0  0  0  0
   -1.8699   -1.2012    0.4895 C   0  0  0  0  0  0  0  0  0  0  0  0
   -1.1073   -0.9019   -0.7456 C   0  0  0  0  0  0  0  0  0  0  0  0
    0.3795   -0.8491   -0.6201 C   0  0  0  0  0  0  0  0  0  0  0  0
    0.8870   -0.5569    0.6802 N   0  0  0  0  0  0  0  0  0  0  0  0
    2.2732   -0.3993    0.8747 C   0  0  0  0  0  0  0  0  0  0  0  0
    2.7252   -0.1407    2.0158 O   0  0  0  0  0  0  0  0  0  0  0  0
    3.1967   -0.5255   -0.1990 N   0  0  0  0  0  0  0  0  0  0  0  0
    4.5962   -0.3547    0.0579 C   0  0  1  0  0  0  0  0  0  0  0  0
    5.4611   -1.4052   -0.6707 C   0  0  0  0  0  0  0  0  0  0  0  0
    5.5330    0.0267   -1.0330 C   0  0  2  0  0  0  0  0  0  0  0  0
    6.7331    0.7933   -0.5947 C   0  0  0  0  0  0  0  0  0  0  0  0
    7.2604    1.8224   -1.3448 C   0  0  0  0  0  0  0  0  0  0  0  0
    8.3706    2.5373   -0.9492 C   0  0  0  0  0  0  0  0  0  0  0  0
    9.0078    2.2412    0.2380 C   0  0  0  0  0  0  0  0  0  0  0  0
    8.4874    1.2145    0.9931 C   0  0  0  0  0  0  0  0  0  0  0  0
    7.3778    0.5002    0.5980 C   0  0  0  0  0  0  0  0  0  0  0  0
   -0.0116   -0.4173    1.8199 C   0  0  0  0  0  0  0  0  0  0  0  0
   -0.9823   -1.5995    1.6769 C   0  0  0  0  0  0  0  0  0  0  0  0
   -2.5343   -0.0220    0.9198 O   0  0  0  0  0  0  0  0  0  0  0  0
   -7.8729    2.9103   -1.3308 H   0  0  0  0  0  0  0  0  0  0  0  0
   -9.4602    2.0857   -1.7385 H   0  0  0  0  0  0  0  0  0  0  0  0
   -7.8353    1.4352   -2.3421 H   0  0  0  0  0  0  0  0  0  0  0  0
   -6.3028    2.4295    1.4793 H   0  0  0  0  0  0  0  0  0  0  0  0
   -3.9384    2.0197    1.8799 H   0  0  0  0  0  0  0  0  0  0  0  0
   -6.4613   -1.1135   -0.9260 H   0  0  0  0  0  0  0  0  0  0  0  0
   -4.6525   -2.6926   -0.8405 H   0  0  0  0  0  0  0  0  0  0  0  0
   -3.4658   -1.5842   -1.6731 H   0  0  0  0  0  0  0  0  0  0  0  0
   -2.2642   -3.1496   -0.2387 H   0  0  0  0  0  0  0  0  0  0  0  0
   -3.2937   -2.6335    1.2141 H   0  0  0  0  0  0  0  0  0  0  0  0
   -1.4317    0.0875   -1.1383 H   0  0  0  0  0  0  0  0  0  0  0  0
   -1.4214   -1.6172   -1.5676 H   0  0  0  0  0  0  0  0  0  0  0  0
    0.8188   -0.0751   -1.3155 H   0  0  0  0  0  0  0  0  0  0  0  0
    0.7881   -1.8237   -0.9752 H   0  0  0  0  0  0  0  0  0  0  0  0
    2.8187   -0.7444   -1.1666 H   0  0  0  0  0  0  0  0  0  0  0  0
    4.8776   -0.1293    1.0959 H   0  0  0  0  0  0  0  0  0  0  0  0
    6.2522   -1.8906   -0.0644 H   0  0  0  0  0  0  0  0  0  0  0  0
    4.9883   -2.0673   -1.3962 H   0  0  0  0  0  0  0  0  0  0  0  0
    5.1244    0.3670   -2.0085 H   0  0  0  0  0  0  0  0  0  0  0  0
    6.7853    2.0794   -2.2800 H   0  0  0  0  0  0  0  0  0  0  0  0
    8.7825    3.3520   -1.5479 H   0  0  0  0  0  0  0  0  0  0  0  0
    9.8923    2.8069    0.5575 H   0  0  0  0  0  0  0  0  0  0  0  0
    8.9618    0.9576    1.9276 H   0  0  0  0  0  0  0  0  0  0  0  0
    6.9603   -0.3192    1.1977 H   0  0  0  0  0  0  0  0  0  0  0  0
   -0.6102    0.5041    1.6559 H   0  0  0  0  0  0  0  0  0  0  0  0
    0.5296   -0.4461    2.7605 H   0  0  0  0  0  0  0  0  0  0  0  0
   -1.6388   -1.6984    2.5463 H   0  0  0  0  0  0  0  0  0  0  0  0
   -0.3706   -2.4788    1.4577 H   0  0  0  0  0  0  0  0  0  0  0  0
  1  2  1  0
  2  3  2  0
  2  4  2  0
  2  5  1  0
  5  6  2  0
  6  7  1  0
  7  8  2  0
  8  9  1  0
  9 10  2  0
  9 11  1  0
 11 12  1  0
 12 13  1  0
 13 14  1  0
 14 15  1  0
 15 16  1  0
 16 17  1  0
 17 18  2  0
 17 19  1  0
 19 20  1  0
 20 21  1  0
 21 22  1  0
 22 23  1  0
 23 24  2  0
 24 25  1  0
 25 26  2  0
 26 27  1  0
 27 28  2  0
 16 29  1  0
 29 30  1  0
 13 31  1  0
 10  5  1  0
 30 13  1  0
 31  8  1  0
 22 20  1  0
 28 23  1  0
  1 32  1  0
  1 33  1  0
  1 34  1  0
  6 35  1  0
  7 36  1  0
 10 37  1  0
 11 38  1  0
 11 39  1  0
 12 40  1  0
 12 41  1  0
 14 42  1  0
 14 43  1  0
 15 44  1  0
 15 45  1  0
 19 46  1  0
 20 47  1  1
 21 48  1  0
 21 49  1  0
 22 50  1  6
 24 51  1  0
 25 52  1  0
 26 53  1  0
 27 54  1  0
 28 55  1  0
 29 56  1  0
 29 57  1  0
 30 58  1  0
 30 59  1  0
M  END
$$$$
