@<TRIPOS>MOLECULE
*****
 59 63 0 0 0
SMALL
GASTEIGER

@<TRIPOS>ATOM
      1 C          -8.3790    1.9403   -1.5103 C.3     1  UNL1        0.0596
      2 S          -8.2224    0.9456   -0.0540 S.O2    1  UNL1       -0.0059
      3 O          -8.9155   -0.3682   -0.2893 O.2     1  UNL1       -0.1696
      4 O          -8.8910    1.6601    1.0903 O.2     1  UNL1       -0.1696
      5 C          -6.5286    0.6817    0.2507 C.ar    1  UNL1        0.0883
      6 C          -5.8217    1.5632    1.0394 C.ar    1  UNL1       -0.0334
      7 C          -4.4615    1.3168    1.2626 C.ar    1  UNL1       -0.0178
      8 C          -3.8750    0.2080    0.6910 C.ar    1  UNL1        0.1246
      9 C          -4.5650   -0.6693   -0.0898 C.ar    1  UNL1       -0.0038
     10 C          -5.9174   -0.4167   -0.3070 C.ar    1  UNL1       -0.0302
     11 C          -3.9207   -1.8587   -0.6979 C.3     1  UNL1       -0.0206
     12 C          -2.8455   -2.3367    0.2422 C.3     1  UNL1       -0.0087
     13 C          -1.8699   -1.2012    0.4895 C.3     1  UNL1        0.1138
     14 C          -1.1073   -0.9019   -0.7456 C.3     1  UNL1        0.0030
     15 C           0.3795   -0.8491   -0.6201 C.3     1  UNL1        0.0197
     16 N           0.8870   -0.5569    0.6802 N.am    1  UNL1       -0.2854
     17 C           2.2732   -0.3993    0.8747 C.2     1  UNL1        0.3024
     18 O           2.7252   -0.1407    2.0158 O.2     1  UNL1       -0.2526
     19 N           3.1967   -0.5255   -0.1990 N.am    1  UNL1       -0.2958
     20 C           4.5962   -0.3547    0.0579 C.3     1  UNL1        0.0320
     21 C           5.4611   -1.4052   -0.6707 C.3     1  UNL1       -0.0254
     22 C           5.5330    0.0267   -1.0330 C.3     1  UNL1        0.0043
     23 C           6.7331    0.7933   -0.5947 C.ar    1  UNL1       -0.0425
     24 C           7.2604    1.8224   -1.3448 C.ar    1  UNL1       -0.0582
     25 C           8.3706    2.5373   -0.9492 C.ar    1  UNL1       -0.0615
     26 C           9.0078    2.2412    0.2380 C.ar    1  UNL1       -0.0617
     27 C           8.4874    1.2145    0.9931 C.ar    1  UNL1       -0.0615
     28 C           7.3778    0.5002    0.5980 C.ar    1  UNL1       -0.0582
     29 C          -0.0116   -0.4173    1.8199 C.3     1  UNL1        0.0197
     30 C          -0.9823   -1.5995    1.6769 C.3     1  UNL1        0.0030
     31 O          -2.5343   -0.0220    0.9198 O.3     1  UNL1       -0.4853
     32 H          -7.8729    2.9103   -1.3308 H       1  UNL1        0.0468
     33 H          -9.4602    2.0857   -1.7385 H       1  UNL1        0.0468
     34 H          -7.8353    1.4352   -2.3421 H       1  UNL1        0.0468
     35 H          -6.3028    2.4295    1.4793 H       1  UNL1        0.0638
     36 H          -3.9384    2.0197    1.8799 H       1  UNL1        0.0655
     37 H          -6.4613   -1.1135   -0.9260 H       1  UNL1        0.0640
     38 H          -4.6525   -2.6926   -0.8405 H       1  UNL1        0.0316
     39 H          -3.4658   -1.5842   -1.6731 H       1  UNL1        0.0316
     40 H          -2.2642   -3.1496   -0.2387 H       1  UNL1        0.0307
     41 H          -3.2937   -2.6335    1.2141 H       1  UNL1        0.0307
     42 H          -1.4317    0.0875   -1.1383 H       1  UNL1        0.0319
     43 H          -1.4214   -1.6172   -1.5676 H       1  UNL1        0.0319
     44 H           0.8188   -0.0751   -1.3155 H       1  UNL1        0.0466
     45 H           0.7881   -1.8237   -0.9752 H       1  UNL1        0.0466
     46 H           2.8187   -0.7444   -1.1666 H       1  UNL1        0.1505
     47 H           4.8776   -0.1293    1.0959 H       1  UNL1        0.0505
     48 H           6.2522   -1.8906   -0.0644 H       1  UNL1        0.0290
     49 H           4.9883   -2.0673   -1.3962 H       1  UNL1        0.0290
     50 H           5.1244    0.3670   -2.0085 H       1  UNL1        0.0367
     51 H           6.7853    2.0794   -2.2800 H       1  UNL1        0.0620
     52 H           8.7825    3.3520   -1.5479 H       1  UNL1        0.0618
     53 H           9.8923    2.8069    0.5575 H       1  UNL1        0.0618
     54 H           8.9618    0.9576    1.9276 H       1  UNL1        0.0618
     55 H           6.9603   -0.3192    1.1977 H       1  UNL1        0.0620
     56 H          -0.6102    0.5041    1.6559 H       1  UNL1        0.0466
     57 H           0.5296   -0.4461    2.7605 H       1  UNL1        0.0466
     58 H          -1.6388   -1.6984    2.5463 H       1  UNL1        0.0319
     59 H          -0.3706   -2.4788    1.4577 H       1  UNL1        0.0319
@<TRIPOS>BOND
     1     1     2    1
     2     2     3    2
     3     2     4    2
     4     2     5    1
     5     5     6   ar
     6     6     7   ar
     7     7     8   ar
     8     8     9   ar
     9     9    10   ar
    10     9    11    1
    11    11    12    1
    12    12    13    1
    13    13    14    1
    14    14    15    1
    15    15    16    1
    16    16    17   am
    17    17    18    2
    18    17    19   am
    19    19    20    1
    20    20    21    1
    21    21    22    1
    22    22    23    1
    23    23    24   ar
    24    24    25   ar
    25    25    26   ar
    26    26    27   ar
    27    27    28   ar
    28    16    29    1
    29    29    30    1
    30    13    31    1
    31    10     5   ar
    32    30    13    1
    33    31     8    1
    34    22    20    1
    35    28    23   ar
    36     1    32    1
    37     1    33    1
    38     1    34    1
    39     6    35    1
    40     7    36    1
    41    10    37    1
    42    11    38    1
    43    11    39    1
    44    12    40    1
    45    12    41    1
    46    14    42    1
    47    14    43    1
    48    15    44    1
    49    15    45    1
    50    19    46    1
    51    20    47    1
    52    21    48    1
    53    21    49    1
    54    22    50    1
    55    24    51    1
    56    25    52    1
    57    26    53    1
    58    27    54    1
    59    28    55    1
    60    29    56    1
    61    29    57    1
    62    30    58    1
    63    30    59    1
