
     RDKit          3D

 35 36  0  0  0  0  0  0  0  0999 V2000
   -5.1191   -0.5838    1.9634 C   0  0  0  0  0  0  0  0  0  0  0  0
   -4.1648    0.0232    0.9829 C   0  0  0  0  0  0  0  0  0  0  0  0
   -2.8564   -0.3627    0.9642 C   0  0  0  0  0  0  0  0  0  0  0  0
   -1.8962    0.1004    0.1383 N   0  0  0  0  0  0  0  0  0  0  0  0
   -0.5482   -0.3976    0.2283 C   0  0  1  0  0  0  0  0  0  0  0  0
   -0.2416   -1.4191   -0.8472 C   0  0  0  0  0  0  0  0  0  0  0  0
    1.2828   -1.3314   -0.9078 C   0  0  0  0  0  0  0  0  0  0  0  0
    1.5760   -0.2854    0.1148 C   0  0  1  0  0  0  0  0  0  0  0  0
    2.8417    0.4982   -0.1314 C   0  0  0  0  0  0  0  0  0  0  0  0
    3.9884   -0.2902   -0.0571 O   0  0  0  0  0  0  0  0  0  0  0  0
    5.3137    0.7150   -0.3516 P   0  0  0  0  0  0  0  0  0  0  0  0
    6.7030   -0.1896   -0.6875 O   0  0  0  0  0  0  0  0  0  0  0  0
    5.6156    1.6798    1.0094 O   0  0  0  0  0  0  0  0  0  0  0  0
    5.0123    1.5907   -1.5455 O   0  0  0  0  0  0  0  0  0  0  0  0
    0.4352    0.5469    0.0308 O   0  0  0  0  0  0  0  0  0  0  0  0
   -2.2995    1.0357   -0.7443 C   0  0  0  0  0  0  0  0  0  0  0  0
   -1.4512    1.5040   -1.5383 O   0  0  0  0  0  0  0  0  0  0  0  0
   -3.5778    1.4611   -0.7787 N   0  0  0  0  0  0  0  0  0  0  0  0
   -4.5270    0.9939    0.0480 C   0  0  0  0  0  0  0  0  0  0  0  0
   -5.7302    1.3683    0.0439 O   0  0  0  0  0  0  0  0  0  0  0  0
   -6.1547   -0.5057    1.5789 H   0  0  0  0  0  0  0  0  0  0  0  0
   -4.9842   -0.1689    2.9643 H   0  0  0  0  0  0  0  0  0  0  0  0
   -4.8767   -1.6689    2.0081 H   0  0  0  0  0  0  0  0  0  0  0  0
   -2.5574   -1.1135    1.6810 H   0  0  0  0  0  0  0  0  0  0  0  0
   -0.4080   -0.8645    1.2144 H   0  0  0  0  0  0  0  0  0  0  0  0
   -0.6696   -1.0879   -1.7990 H   0  0  0  0  0  0  0  0  0  0  0  0
   -0.5889   -2.3929   -0.5012 H   0  0  0  0  0  0  0  0  0  0  0  0
    1.6278   -1.0135   -1.9117 H   0  0  0  0  0  0  0  0  0  0  0  0
    1.7117   -2.3188   -0.7038 H   0  0  0  0  0  0  0  0  0  0  0  0
    1.5361   -0.7118    1.1278 H   0  0  0  0  0  0  0  0  0  0  0  0
    2.8074    1.0786   -1.0527 H   0  0  0  0  0  0  0  0  0  0  0  0
    2.9146    1.2111    0.7364 H   0  0  0  0  0  0  0  0  0  0  0  0
    6.5918   -1.1473   -0.4565 H   0  0  0  0  0  0  0  0  0  0  0  0
    6.5899    1.8555    1.0881 H   0  0  0  0  0  0  0  0  0  0  0  0
   -3.8964    2.1907   -1.4659 H   0  0  0  0  0  0  0  0  0  0  0  0
  1  2  1  0
  2  3  2  0
  3  4  1  0
  4  5  1  0
  5  6  1  0
  6  7  1  0
  7  8  1  0
  8  9  1  0
  9 10  1  0
 10 11  1  0
 11 12  1  0
 11 13  1  0
 11 14  2  0
  8 15  1  0
  4 16  1  0
 16 17  2  0
 16 18  1  0
 18 19  1  0
 19 20  2  0
 19  2  1  0
 15  5  1  0
  1 21  1  0
  1 22  1  0
  1 23  1  0
  3 24  1  0
  5 25  1  1
  6 26  1  0
  6 27  1  0
  7 28  1  0
  7 29  1  0
  8 30  1  1
  9 31  1  0
  9 32  1  0
 12 33  1  0
 13 34  1  0
 18 35  1  0
M  END
$$$$
