
     RDKit          3D

 70 76  0  0  0  0  0  0  0  0999 V2000
    1.2335   -0.5334   -3.1792 O   0  0  0  0  0  0  0  0  0  0  0  0
    0.9635   -0.7858   -1.9507 C   0  0  0  0  0  0  0  0  0  0  0  0
    1.9723   -1.2959   -1.1059 N   0  0  0  0  0  0  0  0  0  0  0  0
    3.3480   -1.5576   -1.5813 C   0  0  1  0  0  0  0  0  0  0  0  0
    4.2484   -0.6202   -0.8072 C   0  0  0  0  0  0  0  0  0  0  0  0
    5.6724   -0.7115   -1.1474 C   0  0  0  0  0  0  0  0  0  0  0  0
    6.3194   -1.2287   -2.2280 C   0  0  0  0  0  0  0  0  0  0  0  0
    7.6463   -1.0504   -2.0446 N   0  0  0  0  0  0  0  0  0  0  0  0
    7.8656   -0.4333   -0.8783 C   0  0  0  0  0  0  0  0  0  0  0  0
    9.0023   -0.0027   -0.2007 C   0  0  0  0  0  0  0  0  0  0  0  0
    8.9227    0.6411    1.0370 C   0  0  0  0  0  0  0  0  0  0  0  0
    7.6929    0.8619    1.6123 C   0  0  0  0  0  0  0  0  0  0  0  0
    7.5225    1.5441    2.8997 C   0  0  0  0  0  0  0  0  0  0  0  0
    8.4851    2.0596    3.6796 N   0  0  0  0  0  0  0  0  0  0  0  0
    7.9283    2.5905    4.7316 N   0  0  0  0  0  0  0  0  0  0  0  0
    6.6285    2.4155    4.6268 N   0  0  0  0  0  0  0  0  0  0  0  0
    6.3573    1.7772    3.5129 N   0  0  0  0  0  0  0  0  0  0  0  0
    6.5880    0.4324    0.9346 C   0  0  0  0  0  0  0  0  0  0  0  0
    6.6568   -0.2112   -0.3010 C   0  0  0  0  0  0  0  0  0  0  0  0
    3.6141   -2.9635   -1.2078 C   0  0  0  0  0  0  0  0  0  0  0  0
    2.7597   -3.6918   -0.6117 O   0  0  0  0  0  0  0  0  0  0  0  0
    4.8192   -3.5903   -1.4820 O   0  0  0  0  0  0  0  0  0  0  0  0
   -0.4038   -0.5117   -1.5296 C   0  0  0  0  0  0  0  0  0  0  0  0
   -1.3128    0.0713   -2.3804 C   0  0  0  0  0  0  0  0  0  0  0  0
   -2.6075    0.3358   -2.0024 C   0  0  0  0  0  0  0  0  0  0  0  0
   -3.0478    0.0144   -0.7170 C   0  0  0  0  0  0  0  0  0  0  0  0
   -2.1317   -0.5662    0.1197 C   0  0  0  0  0  0  0  0  0  0  0  0
   -0.8213   -0.8349   -0.2601 C   0  0  0  0  0  0  0  0  0  0  0  0
   -2.7878   -0.7804    1.2825 N   0  0  0  0  0  0  0  0  0  0  0  0
   -4.0511   -0.3413    1.1415 C   0  0  0  0  0  0  0  0  0  0  0  0
   -5.0423   -0.4168    2.1929 C   0  0  0  0  0  0  0  0  0  0  0  0
   -6.1276   -1.2960    2.2405 C   0  0  0  0  0  0  0  0  0  0  0  0
   -6.8221   -1.0438    3.4050 C   0  0  0  0  0  0  0  0  0  0  0  0
   -6.1914   -0.0608    4.0348 O   0  0  0  0  0  0  0  0  0  0  0  0
   -5.1572    0.3193    3.3525 C   0  0  0  0  0  0  0  0  0  0  0  0
   -4.2367    0.1571   -0.0913 N   0  0  0  0  0  0  0  0  0  0  0  0
   -5.3963    0.7379   -0.6882 C   0  0  0  0  0  0  0  0  0  0  0  0
   -6.3353   -0.2072   -1.3597 C   0  0  0  0  0  0  0  0  0  0  0  0
   -7.7052    0.4625   -1.3758 C   0  0  0  0  0  0  0  0  0  0  0  0
   -7.6044    1.9465   -1.6214 C   0  0  0  0  0  0  0  0  0  0  0  0
   -6.8701    2.6821   -0.5298 C   0  0  0  0  0  0  0  0  0  0  0  0
   -6.1452    1.6437    0.2998 C   0  0  0  0  0  0  0  0  0  0  0  0
    1.7594   -1.5009   -0.1079 H   0  0  0  0  0  0  0  0  0  0  0  0
    3.3850   -1.3962   -2.6541 H   0  0  0  0  0  0  0  0  0  0  0  0
    3.9192    0.4318   -0.9873 H   0  0  0  0  0  0  0  0  0  0  0  0
    4.1578   -0.8833    0.2895 H   0  0  0  0  0  0  0  0  0  0  0  0
    5.8372   -1.6971   -3.0937 H   0  0  0  0  0  0  0  0  0  0  0  0
    8.4178   -1.3430   -2.7061 H   0  0  0  0  0  0  0  0  0  0  0  0
    9.9610   -0.1771   -0.6514 H   0  0  0  0  0  0  0  0  0  0  0  0
    9.7946    0.9770    1.5667 H   0  0  0  0  0  0  0  0  0  0  0  0
    5.3857    1.5229    3.2108 H   0  0  0  0  0  0  0  0  0  0  0  0
    5.6064    0.6102    1.3981 H   0  0  0  0  0  0  0  0  0  0  0  0
    5.2392   -4.2161   -0.8204 H   0  0  0  0  0  0  0  0  0  0  0  0
   -1.0133    0.3397   -3.3978 H   0  0  0  0  0  0  0  0  0  0  0  0
   -3.3282    0.7986   -2.6775 H   0  0  0  0  0  0  0  0  0  0  0  0
   -0.1517   -1.3014    0.4712 H   0  0  0  0  0  0  0  0  0  0  0  0
   -6.3869   -2.0457    1.5017 H   0  0  0  0  0  0  0  0  0  0  0  0
   -7.7125   -1.5015    3.8108 H   0  0  0  0  0  0  0  0  0  0  0  0
   -4.4745    1.1054    3.6474 H   0  0  0  0  0  0  0  0  0  0  0  0
   -5.0549    1.4516   -1.4973 H   0  0  0  0  0  0  0  0  0  0  0  0
   -6.0782   -0.3877   -2.4445 H   0  0  0  0  0  0  0  0  0  0  0  0
   -6.4153   -1.1985   -0.9018 H   0  0  0  0  0  0  0  0  0  0  0  0
   -8.2858    0.2273   -0.4535 H   0  0  0  0  0  0  0  0  0  0  0  0
   -8.2776    0.0303   -2.2203 H   0  0  0  0  0  0  0  0  0  0  0  0
   -8.6280    2.3429   -1.6952 H   0  0  0  0  0  0  0  0  0  0  0  0
   -7.1300    2.0733   -2.6259 H   0  0  0  0  0  0  0  0  0  0  0  0
   -7.5331    3.2895    0.1190 H   0  0  0  0  0  0  0  0  0  0  0  0
   -6.0857    3.3057   -1.0268 H   0  0  0  0  0  0  0  0  0  0  0  0
   -6.9263    1.1033    0.8540 H   0  0  0  0  0  0  0  0  0  0  0  0
   -5.4310    2.0815    1.0207 H   0  0  0  0  0  0  0  0  0  0  0  0
  1  2  2  0
  2  3  1  0
  3  4  1  0
  4  5  1  0
  5  6  1  0
  6  7  2  0
  7  8  1  0
  8  9  1  0
  9 10  2  0
 10 11  1  0
 11 12  2  0
 12 13  1  0
 13 14  2  0
 14 15  1  0
 15 16  2  0
 16 17  1  0
 12 18  1  0
 18 19  2  0
  4 20  1  0
 20 21  2  0
 20 22  1  0
  2 23  1  0
 23 24  2  0
 24 25  1  0
 25 26  2  0
 26 27  1  0
 27 28  2  0
 27 29  1  0
 29 30  2  0
 30 31  1  0
 31 32  1  0
 32 33  2  0
 33 34  1  0
 34 35  1  0
 30 36  1  0
 36 37  1  0
 37 38  1  0
 38 39  1  0
 39 40  1  0
 40 41  1  0
 41 42  1  0
 19  6  1  0
 28 23  1  0
 35 31  2  0
 42 37  1  0
 19  9  1  0
 36 26  1  0
 17 13  1  0
  3 43  1  0
  4 44  1  6
  5 45  1  0
  5 46  1  0
  7 47  1  0
  8 48  1  0
 10 49  1  0
 11 50  1  0
 17 51  1  0
 18 52  1  0
 22 53  1  0
 24 54  1  0
 25 55  1  0
 28 56  1  0
 32 57  1  0
 33 58  1  0
 35 59  1  0
 37 60  1  0
 38 61  1  0
 38 62  1  0
 39 63  1  0
 39 64  1  0
 40 65  1  0
 40 66  1  0
 41 67  1  0
 41 68  1  0
 42 69  1  0
 42 70  1  0
M  END
$$$$
