@<TRIPOS>MOLECULE
*****
 70 76 0 0 0
SMALL
GASTEIGER

@<TRIPOS>ATOM
      1 O           1.2335   -0.5334   -3.1792 O.2     1  UNL1       -0.2702
      2 C           0.9635   -0.7858   -1.9507 C.2     1  UNL1        0.2448
      3 N           1.9723   -1.2959   -1.1059 N.am    1  UNL1       -0.2981
      4 CA          3.3480   -1.5576   -1.5813 C.3     1  UNL1        0.1245
      5 C           4.2484   -0.6202   -0.8072 C.3     1  UNL1        0.0032
      6 C           5.6724   -0.7115   -1.1474 C.ar    1  UNL1       -0.0201
      7 C           6.3194   -1.2287   -2.2280 C.ar    1  UNL1        0.0060
      8 N           7.6463   -1.0504   -2.0446 N.ar    1  UNL1       -0.3604
      9 C           7.8656   -0.4333   -0.8783 C.ar    1  UNL1        0.0468
     10 C           9.0023   -0.0027   -0.2007 C.ar    1  UNL1       -0.0371
     11 C           8.9227    0.6411    1.0370 C.ar    1  UNL1       -0.0490
     12 C           7.6929    0.8619    1.6123 C.ar    1  UNL1        0.0212
     13 C           7.5225    1.5441    2.8997 C.ar    1  UNL1        0.1794
     14 N           8.4851    2.0596    3.6796 N.ar    1  UNL1       -0.1084
     15 N           7.9283    2.5905    4.7316 N.ar    1  UNL1       -0.0229
     16 N           6.6285    2.4155    4.6268 N.ar    1  UNL1       -0.0464
     17 N           6.3573    1.7772    3.5129 N.ar    1  UNL1       -0.2388
     18 C           6.5880    0.4324    0.9346 C.ar    1  UNL1       -0.0416
     19 C           6.6568   -0.2112   -0.3010 C.ar    1  UNL1        0.0036
     20 C           3.6141   -2.9635   -1.2078 C.2     1  UNL1        0.3256
     21 O           2.7597   -3.6918   -0.6117 O.2     1  UNL1       -0.2489
     22 OXT         4.8192   -3.5903   -1.4820 O.3     1  UNL1       -0.4793
     23 C          -0.4038   -0.5117   -1.5296 C.ar    1  UNL1        0.0388
     24 C          -1.3128    0.0713   -2.3804 C.ar    1  UNL1       -0.0476
     25 C          -2.6075    0.3358   -2.0024 C.ar    1  UNL1       -0.0353
     26 C          -3.0478    0.0144   -0.7170 C.ar    1  UNL1        0.0694
     27 C          -2.1317   -0.5662    0.1197 C.ar    1  UNL1        0.0904
     28 C          -0.8213   -0.8349   -0.2601 C.ar    1  UNL1       -0.0221
     29 N          -2.7878   -0.7804    1.2825 N.ar    1  UNL1       -0.2274
     30 C          -4.0511   -0.3413    1.1415 C.ar    1  UNL1        0.1451
     31 C          -5.0423   -0.4168    2.1929 C.ar    1  UNL1        0.0551
     32 C          -6.1276   -1.2960    2.2405 C.ar    1  UNL1       -0.0132
     33 C          -6.8221   -1.0438    3.4050 C.ar    1  UNL1        0.0924
     34 O          -6.1914   -0.0608    4.0348 O.2     1  UNL1       -0.4703
     35 C          -5.1572    0.3193    3.3525 C.ar    1  UNL1        0.1023
     36 N          -4.2367    0.1571   -0.0913 N.ar    1  UNL1       -0.3204
     37 C          -5.3963    0.7379   -0.6882 C.3     1  UNL1        0.0365
     38 C          -6.3353   -0.2072   -1.3597 C.3     1  UNL1       -0.0320
     39 C          -7.7052    0.4625   -1.3758 C.3     1  UNL1       -0.0512
     40 C          -7.6044    1.9465   -1.6214 C.3     1  UNL1       -0.0529
     41 C          -6.8701    2.6821   -0.5298 C.3     1  UNL1       -0.0512
     42 C          -6.1452    1.6437    0.2998 C.3     1  UNL1       -0.0320
     43 H           1.7594   -1.5009   -0.1079 H       1  UNL1        0.1498
     44 HA          3.3850   -1.3962   -2.6541 H       1  UNL1        0.0618
     45 H           3.9192    0.4318   -0.9873 H       1  UNL1        0.0337
     46 H           4.1578   -0.8833    0.2895 H       1  UNL1        0.0337
     47 H           5.8372   -1.6971   -3.0937 H       1  UNL1        0.0810
     48 H           8.4178   -1.3430   -2.7061 H       1  UNL1        0.1653
     49 H           9.9610   -0.1771   -0.6514 H       1  UNL1        0.0638
     50 H           9.7946    0.9770    1.5667 H       1  UNL1        0.0625
     51 H           5.3857    1.5229    3.2108 H       1  UNL1        0.1923
     52 H           5.6064    0.6102    1.3981 H       1  UNL1        0.0631
     53 HXT         5.2392   -4.2161   -0.8204 H       1  UNL1        0.2951
     54 H          -1.0133    0.3397   -3.3978 H       1  UNL1        0.0626
     55 H          -3.3282    0.7986   -2.6775 H       1  UNL1        0.0639
     56 H          -0.1517   -1.3014    0.4712 H       1  UNL1        0.0647
     57 H          -6.3869   -2.0457    1.5017 H       1  UNL1        0.0656
     58 H          -7.7125   -1.5015    3.8108 H       1  UNL1        0.1029
     59 H          -4.4745    1.1054    3.6474 H       1  UNL1        0.1036
     60 H          -5.0549    1.4516   -1.4973 H       1  UNL1        0.0528
     61 H          -6.0782   -0.3877   -2.4445 H       1  UNL1        0.0285
     62 H          -6.4153   -1.1985   -0.9018 H       1  UNL1        0.0285
     63 H          -8.2858    0.2273   -0.4535 H       1  UNL1        0.0266
     64 H          -8.2776    0.0303   -2.2203 H       1  UNL1        0.0266
     65 H          -8.6280    2.3429   -1.6952 H       1  UNL1        0.0265
     66 H          -7.1300    2.0733   -2.6259 H       1  UNL1        0.0265
     67 H          -7.5331    3.2895    0.1190 H       1  UNL1        0.0266
     68 H          -6.0857    3.3057   -1.0268 H       1  UNL1        0.0266
     69 H          -6.9263    1.1033    0.8540 H       1  UNL1        0.0285
     70 H          -5.4310    2.0815    1.0207 H       1  UNL1        0.0285
@<TRIPOS>BOND
     1     1     2    2
     2     2     3   am
     3     3     4    1
     4     4     5    1
     5     5     6    1
     6     6     7   ar
     7     7     8   ar
     8     8     9   ar
     9     9    10   ar
    10    10    11   ar
    11    11    12   ar
    12    12    13    1
    13    13    14   ar
    14    14    15   ar
    15    15    16   ar
    16    16    17   ar
    17    12    18   ar
    18    18    19   ar
    19     4    20    1
    20    20    21    2
    21    20    22    1
    22     2    23    1
    23    23    24   ar
    24    24    25   ar
    25    25    26   ar
    26    26    27   ar
    27    27    28   ar
    28    27    29   ar
    29    29    30   ar
    30    30    31    1
    31    31    32   ar
    32    32    33   ar
    33    33    34   ar
    34    34    35   ar
    35    30    36   ar
    36    36    37    1
    37    37    38    1
    38    38    39    1
    39    39    40    1
    40    40    41    1
    41    41    42    1
    42    19     6   ar
    43    28    23   ar
    44    35    31   ar
    45    42    37    1
    46    19     9   ar
    47    36    26   ar
    48    17    13   ar
    49     3    43    1
    50     4    44    1
    51     5    45    1
    52     5    46    1
    53     7    47    1
    54     8    48    1
    55    10    49    1
    56    11    50    1
    57    17    51    1
    58    18    52    1
    59    22    53    1
    60    24    54    1
    61    25    55    1
    62    28    56    1
    63    32    57    1
    64    33    58    1
    65    35    59    1
    66    37    60    1
    67    38    61    1
    68    38    62    1
    69    39    63    1
    70    39    64    1
    71    40    65    1
    72    40    66    1
    73    41    67    1
    74    41    68    1
    75    42    69    1
    76    42    70    1
