@<TRIPOS>MOLECULE
*****
 26 27 0 0 0
SMALL
GASTEIGER

@<TRIPOS>ATOM
      1 C          -1.9981    1.1170    0.7736 C.3     1  UNL1       -0.0379
      2 C          -0.9900    0.2063    0.1481 C.3     1  UNL1        0.1130
      3 C          -1.4760   -0.4594   -1.1042 C.3     1  UNL1       -0.0379
      4 C           0.3677    0.8026    0.0125 C.3     1  UNL1        0.1488
      5 C           0.4823    1.7390   -1.1307 C.2     1  UNL1        0.3277
      6 O           1.3724    1.5214   -1.9881 O.2     1  UNL1       -0.2488
      7 O          -0.3264    2.8389   -1.3178 O.3     1  UNL1       -0.4793
      8 N           1.3274   -0.2081   -0.0808 N.am    1  UNL1       -0.2633
      9 C           2.5477   -0.8710   -0.3164 C.2     1  UNL1        0.2211
     10 O           3.4158   -0.7971   -1.1959 O.2     1  UNL1       -0.2754
     11 C           2.2208   -1.6081    0.9403 C.3     1  UNL1        0.0629
     12 C           0.8802   -1.5554    0.3310 C.3     1  UNL1        0.1535
     13 S          -0.5331   -1.1264    1.2936 S.O2    1  UNL1       -0.0042
     14 O          -0.1675   -0.5654    2.6128 O.2     1  UNL1       -0.1720
     15 O          -1.5762   -2.1754    1.3346 O.2     1  UNL1       -0.1720
     16 H          -2.1412    0.8271    1.8281 H       1  UNL1        0.0251
     17 H          -2.9694    0.9635    0.2592 H       1  UNL1        0.0251
     18 H          -1.7458    2.1973    0.6605 H       1  UNL1        0.0251
     19 H          -0.6843   -1.1171   -1.4803 H       1  UNL1        0.0251
     20 H          -1.7776    0.2692   -1.8662 H       1  UNL1        0.0251
     21 H          -2.3652   -1.0796   -0.8657 H       1  UNL1        0.0251
     22 H           0.4801    1.4582    0.9402 H       1  UNL1        0.0639
     23 H          -0.2103    3.4207   -2.1224 H       1  UNL1        0.2951
     24 H           2.4129   -0.9471    1.7996 H       1  UNL1        0.0393
     25 H           2.7200   -2.5927    1.0164 H       1  UNL1        0.0393
     26 H           0.7337   -2.2585   -0.4820 H       1  UNL1        0.0750
@<TRIPOS>BOND
     1     1     2    1
     2     2     3    1
     3     2     4    1
     4     4     5    1
     5     5     6    2
     6     5     7    1
     7     4     8    1
     8     8     9   am
     9     9    10    2
    10     9    11    1
    11    11    12    1
    12    12    13    1
    13    13    14    2
    14    13    15    2
    15    13     2    1
    16    12     8    1
    17     1    16    1
    18     1    17    1
    19     1    18    1
    20     3    19    1
    21     3    20    1
    22     3    21    1
    23     4    22    1
    24     7    23    1
    25    11    24    1
    26    11    25    1
    27    12    26    1
