
     RDKit          3D

 26 27  0  0  0  0  0  0  0  0999 V2000
   -1.9981    1.1170    0.7736 C   0  0  0  0  0  0  0  0  0  0  0  0
   -0.9900    0.2063    0.1481 C   0  0  0  0  0  0  0  0  0  0  0  0
   -1.4760   -0.4594   -1.1042 C   0  0  0  0  0  0  0  0  0  0  0  0
    0.3677    0.8026    0.0125 C   0  0  2  0  0  0  0  0  0  0  0  0
    0.4823    1.7390   -1.1307 C   0  0  0  0  0  0  0  0  0  0  0  0
    1.3724    1.5214   -1.9881 O   0  0  0  0  0  0  0  0  0  0  0  0
   -0.3264    2.8389   -1.3178 O   0  0  0  0  0  0  0  0  0  0  0  0
    1.3274   -0.2081   -0.0808 N   0  0  0  0  0  0  0  0  0  0  0  0
    2.5477   -0.8710   -0.3164 C   0  0  0  0  0  0  0  0  0  0  0  0
    3.4158   -0.7971   -1.1959 O   0  0  0  0  0  0  0  0  0  0  0  0
    2.2208   -1.6081    0.9403 C   0  0  0  0  0  0  0  0  0  0  0  0
    0.8802   -1.5554    0.3310 C   0  0  1  0  0  0  0  0  0  0  0  0
   -0.5331   -1.1264    1.2936 S   0  0  0  0  0  6  0  0  0  0  0  0
   -0.1675   -0.5654    2.6128 O   0  0  0  0  0  0  0  0  0  0  0  0
   -1.5762   -2.1754    1.3346 O   0  0  0  0  0  0  0  0  0  0  0  0
   -2.1412    0.8271    1.8281 H   0  0  0  0  0  0  0  0  0  0  0  0
   -2.9694    0.9635    0.2592 H   0  0  0  0  0  0  0  0  0  0  0  0
   -1.7458    2.1973    0.6605 H   0  0  0  0  0  0  0  0  0  0  0  0
   -0.6843   -1.1171   -1.4803 H   0  0  0  0  0  0  0  0  0  0  0  0
   -1.7776    0.2692   -1.8662 H   0  0  0  0  0  0  0  0  0  0  0  0
   -2.3652   -1.0796   -0.8657 H   0  0  0  0  0  0  0  0  0  0  0  0
    0.4801    1.4582    0.9402 H   0  0  0  0  0  0  0  0  0  0  0  0
   -0.2103    3.4207   -2.1224 H   0  0  0  0  0  0  0  0  0  0  0  0
    2.4129   -0.9471    1.7996 H   0  0  0  0  0  0  0  0  0  0  0  0
    2.7200   -2.5927    1.0164 H   0  0  0  0  0  0  0  0  0  0  0  0
    0.7337   -2.2585   -0.4820 H   0  0  0  0  0  0  0  0  0  0  0  0
  1  2  1  0
  2  3  1  0
  2  4  1  0
  4  5  1  0
  5  6  2  0
  5  7  1  0
  4  8  1  0
  8  9  1  0
  9 10  2  0
  9 11  1  0
 11 12  1  0
 12 13  1  0
 13 14  2  0
 13 15  2  0
 13  2  1  0
 12  8  1  0
  1 16  1  0
  1 17  1  0
  1 18  1  0
  3 19  1  0
  3 20  1  0
  3 21  1  0
  4 22  1  1
  7 23  1  0
 11 24  1  0
 11 25  1  0
 12 26  1  6
M  END
$$$$
