@<TRIPOS>MOLECULE
*****
 50 52 0 0 0
SMALL
GASTEIGER

@<TRIPOS>ATOM
      1 C          -5.8427   -2.4118    1.2156 C.3     1  UNL1        0.0790
      2 O          -5.6185   -1.0362    1.0459 O.3     1  UNL1       -0.4914
      3 C          -4.3250   -0.5879    0.7715 C.ar    1  UNL1        0.1618
      4 C          -4.0465    0.7517    0.5954 C.ar    1  UNL1        0.1618
      5 O          -5.1180    1.6276    0.7051 O.3     1  UNL1       -0.4914
      6 C          -4.8965    3.0174    0.5347 C.3     1  UNL1        0.0790
      7 C          -2.7698    1.1979    0.3242 C.ar    1  UNL1       -0.0114
      8 C          -1.7420    0.2804    0.2262 C.ar    1  UNL1       -0.0230
      9 C          -0.3238    0.6678   -0.0651 C.3     1  UNL1        0.0427
     10 C           0.0361    0.4015   -1.5042 C.3     1  UNL1        0.0259
     11 C           1.3805   -0.2320   -1.6304 C.2     1  UNL1        0.1394
     12 O           1.6230   -0.6663   -2.7470 O.2     1  UNL1       -0.2970
     13 C           2.4324   -0.3792   -0.5384 C.3     1  UNL1        0.0305
     14 C           3.7075    0.2564   -0.9888 C.3     1  UNL1       -0.0400
     15 C           4.8758    0.1874   -0.0872 C.3     1  UNL1       -0.0460
     16 C           4.7982    0.8119    1.2556 C.3     1  UNL1       -0.0626
     17 C           6.0928    0.7221   -0.8479 C.3     1  UNL1       -0.0626
     18 C           1.9142    0.2919    0.7078 C.3     1  UNL1        0.0090
     19 N           0.4912   -0.0286    0.8716 N.3     1  UNL1       -0.2940
     20 C           0.2289   -1.4017    1.0893 C.3     1  UNL1        0.0035
     21 C          -0.8961   -1.9992    0.2891 C.3     1  UNL1       -0.0144
     22 C          -2.0527   -1.0542    0.4077 C.ar    1  UNL1       -0.0378
     23 C          -3.3181   -1.5347    0.6800 C.ar    1  UNL1       -0.0128
     24 H          -5.3196   -2.8433    2.0759 H       1  UNL1        0.0660
     25 H          -5.5028   -2.9551    0.3032 H       1  UNL1        0.0660
     26 H          -6.9384   -2.5376    1.3504 H       1  UNL1        0.0660
     27 H          -4.5104    3.1400   -0.4977 H       1  UNL1        0.0660
     28 H          -4.1291    3.3142    1.2618 H       1  UNL1        0.0660
     29 H          -5.8809    3.5176    0.7005 H       1  UNL1        0.0660
     30 H          -2.5549    2.2491    0.1867 H       1  UNL1        0.0659
     31 H          -0.2233    1.7584    0.1170 H       1  UNL1        0.0516
     32 H           0.0689    1.3369   -2.1013 H       1  UNL1        0.0360
     33 H          -0.7491   -0.2360   -1.9883 H       1  UNL1        0.0360
     34 H           2.5943   -1.4444   -0.3039 H       1  UNL1        0.0390
     35 H           3.5478    1.3622   -1.2192 H       1  UNL1        0.0275
     36 H           3.9641   -0.1571   -2.0140 H       1  UNL1        0.0275
     37 H           5.1212   -0.8996    0.0933 H       1  UNL1        0.0296
     38 H           5.8451    1.2411    1.4515 H       1  UNL1        0.0232
     39 H           4.6595    0.0703    2.1020 H       1  UNL1        0.0232
     40 H           4.1022    1.6452    1.3322 H       1  UNL1        0.0232
     41 H           5.8412    1.6734   -1.3228 H       1  UNL1        0.0232
     42 H           6.3974   -0.0326   -1.6152 H       1  UNL1        0.0232
     43 H           6.8953    0.8711   -0.1262 H       1  UNL1        0.0232
     44 H           1.9372    1.3872    0.5526 H       1  UNL1        0.0433
     45 H           2.4031    0.0220    1.6298 H       1  UNL1        0.0433
     46 H           1.1421   -2.0192    1.0077 H       1  UNL1        0.0430
     47 H          -0.0835   -1.5113    2.1696 H       1  UNL1        0.0430
     48 H          -0.6511   -2.2796   -0.7320 H       1  UNL1        0.0326
     49 H          -1.1690   -2.9681    0.8000 H       1  UNL1        0.0326
     50 H          -3.4386   -2.5869    0.8007 H       1  UNL1        0.0658
@<TRIPOS>BOND
     1     1     2    1
     2     2     3    1
     3     3     4   ar
     4     4     5    1
     5     5     6    1
     6     4     7   ar
     7     7     8   ar
     8     8     9    1
     9     9    10    1
    10    10    11    1
    11    11    12    2
    12    11    13    1
    13    13    14    1
    14    14    15    1
    15    15    16    1
    16    15    17    1
    17    13    18    1
    18    18    19    1
    19    19    20    1
    20    20    21    1
    21    21    22    1
    22    22    23   ar
    23    23     3   ar
    24    22     8   ar
    25    19     9    1
    26     1    24    1
    27     1    25    1
    28     1    26    1
    29     6    27    1
    30     6    28    1
    31     6    29    1
    32     7    30    1
    33     9    31    1
    34    10    32    1
    35    10    33    1
    36    13    34    1
    37    14    35    1
    38    14    36    1
    39    15    37    1
    40    16    38    1
    41    16    39    1
    42    16    40    1
    43    17    41    1
    44    17    42    1
    45    17    43    1
    46    18    44    1
    47    18    45    1
    48    20    46    1
    49    20    47    1
    50    21    48    1
    51    21    49    1
    52    23    50    1
