
     RDKit          3D

 50 52  0  0  0  0  0  0  0  0999 V2000
   -5.8427   -2.4118    1.2156 C   0  0  0  0  0  0  0  0  0  0  0  0
   -5.6185   -1.0362    1.0459 O   0  0  0  0  0  0  0  0  0  0  0  0
   -4.3250   -0.5879    0.7715 C   0  0  0  0  0  0  0  0  0  0  0  0
   -4.0465    0.7517    0.5954 C   0  0  0  0  0  0  0  0  0  0  0  0
   -5.1180    1.6276    0.7051 O   0  0  0  0  0  0  0  0  0  0  0  0
   -4.8965    3.0174    0.5347 C   0  0  0  0  0  0  0  0  0  0  0  0
   -2.7698    1.1979    0.3242 C   0  0  0  0  0  0  0  0  0  0  0  0
   -1.7420    0.2804    0.2262 C   0  0  0  0  0  0  0  0  0  0  0  0
   -0.3238    0.6678   -0.0651 C   0  0  0  0  0  0  0  0  0  0  0  0
    0.0361    0.4015   -1.5042 C   0  0  0  0  0  0  0  0  0  0  0  0
    1.3805   -0.2320   -1.6304 C   0  0  0  0  0  0  0  0  0  0  0  0
    1.6230   -0.6663   -2.7470 O   0  0  0  0  0  0  0  0  0  0  0  0
    2.4324   -0.3792   -0.5384 C   0  0  0  0  0  0  0  0  0  0  0  0
    3.7075    0.2564   -0.9888 C   0  0  0  0  0  0  0  0  0  0  0  0
    4.8758    0.1874   -0.0872 C   0  0  0  0  0  0  0  0  0  0  0  0
    4.7982    0.8119    1.2556 C   0  0  0  0  0  0  0  0  0  0  0  0
    6.0928    0.7221   -0.8479 C   0  0  0  0  0  0  0  0  0  0  0  0
    1.9142    0.2919    0.7078 C   0  0  0  0  0  0  0  0  0  0  0  0
    0.4912   -0.0286    0.8716 N   0  0  0  0  0  0  0  0  0  0  0  0
    0.2289   -1.4017    1.0893 C   0  0  0  0  0  0  0  0  0  0  0  0
   -0.8961   -1.9992    0.2891 C   0  0  0  0  0  0  0  0  0  0  0  0
   -2.0527   -1.0542    0.4077 C   0  0  0  0  0  0  0  0  0  0  0  0
   -3.3181   -1.5347    0.6800 C   0  0  0  0  0  0  0  0  0  0  0  0
   -5.3196   -2.8433    2.0759 H   0  0  0  0  0  0  0  0  0  0  0  0
   -5.5028   -2.9551    0.3032 H   0  0  0  0  0  0  0  0  0  0  0  0
   -6.9384   -2.5376    1.3504 H   0  0  0  0  0  0  0  0  0  0  0  0
   -4.5104    3.1400   -0.4977 H   0  0  0  0  0  0  0  0  0  0  0  0
   -4.1291    3.3142    1.2618 H   0  0  0  0  0  0  0  0  0  0  0  0
   -5.8809    3.5176    0.7005 H   0  0  0  0  0  0  0  0  0  0  0  0
   -2.5549    2.2491    0.1867 H   0  0  0  0  0  0  0  0  0  0  0  0
   -0.2233    1.7584    0.1170 H   0  0  0  0  0  0  0  0  0  0  0  0
    0.0689    1.3369   -2.1013 H   0  0  0  0  0  0  0  0  0  0  0  0
   -0.7491   -0.2360   -1.9883 H   0  0  0  0  0  0  0  0  0  0  0  0
    2.5943   -1.4444   -0.3039 H   0  0  0  0  0  0  0  0  0  0  0  0
    3.5478    1.3622   -1.2192 H   0  0  0  0  0  0  0  0  0  0  0  0
    3.9641   -0.1571   -2.0140 H   0  0  0  0  0  0  0  0  0  0  0  0
    5.1212   -0.8996    0.0933 H   0  0  0  0  0  0  0  0  0  0  0  0
    5.8451    1.2411    1.4515 H   0  0  0  0  0  0  0  0  0  0  0  0
    4.6595    0.0703    2.1020 H   0  0  0  0  0  0  0  0  0  0  0  0
    4.1022    1.6452    1.3322 H   0  0  0  0  0  0  0  0  0  0  0  0
    5.8412    1.6734   -1.3228 H   0  0  0  0  0  0  0  0  0  0  0  0
    6.3974   -0.0326   -1.6152 H   0  0  0  0  0  0  0  0  0  0  0  0
    6.8953    0.8711   -0.1262 H   0  0  0  0  0  0  0  0  0  0  0  0
    1.9372    1.3872    0.5526 H   0  0  0  0  0  0  0  0  0  0  0  0
    2.4031    0.0220    1.6298 H   0  0  0  0  0  0  0  0  0  0  0  0
    1.1421   -2.0192    1.0077 H   0  0  0  0  0  0  0  0  0  0  0  0
   -0.0835   -1.5113    2.1696 H   0  0  0  0  0  0  0  0  0  0  0  0
   -0.6511   -2.2796   -0.7320 H   0  0  0  0  0  0  0  0  0  0  0  0
   -1.1690   -2.9681    0.8000 H   0  0  0  0  0  0  0  0  0  0  0  0
   -3.4386   -2.5869    0.8007 H   0  0  0  0  0  0  0  0  0  0  0  0
  1  2  1  0
  2  3  1  0
  3  4  2  0
  4  5  1  0
  5  6  1  0
  4  7  1  0
  7  8  2  0
  8  9  1  0
  9 10  1  0
 10 11  1  0
 11 12  2  0
 11 13  1  0
 13 14  1  0
 14 15  1  0
 15 16  1  0
 15 17  1  0
 13 18  1  0
 18 19  1  0
 19 20  1  0
 20 21  1  0
 21 22  1  0
 22 23  2  0
 23  3  1  0
 22  8  1  0
 19  9  1  0
  1 24  1  0
  1 25  1  0
  1 26  1  0
  6 27  1  0
  6 28  1  0
  6 29  1  0
  7 30  1  0
  9 31  1  0
 10 32  1  0
 10 33  1  0
 13 34  1  0
 14 35  1  0
 14 36  1  0
 15 37  1  0
 16 38  1  0
 16 39  1  0
 16 40  1  0
 17 41  1  0
 17 42  1  0
 17 43  1  0
 18 44  1  0
 18 45  1  0
 20 46  1  0
 20 47  1  0
 21 48  1  0
 21 49  1  0
 23 50  1  0
M  END
$$$$
