
     RDKit          3D

 48 52  0  0  0  0  0  0  0  0999 V2000
    4.5756    2.0902    1.2641 N   0  0  0  0  0  0  0  0  0  0  0  0
    5.5102    1.6688    0.7084 C   0  0  0  0  0  0  0  0  0  0  0  0
    6.6712    1.1726    0.0275 C   0  0  0  0  0  0  0  0  0  0  0  0
    7.8899    1.7403    0.0251 C   0  0  0  0  0  0  0  0  0  0  0  0
    8.9114    1.2085   -0.7179 C   0  0  0  0  0  0  0  0  0  0  0  0
   10.1367    1.7682   -0.7371 F   0  0  0  0  0  0  0  0  0  0  0  0
    8.6759    0.0783   -1.4697 C   0  0  0  0  0  0  0  0  0  0  0  0
    7.4243   -0.5294   -1.4819 C   0  0  0  0  0  0  0  0  0  0  0  0
    6.4446    0.0113   -0.7435 C   0  0  0  0  0  0  0  0  0  0  0  0
    5.1396   -0.6244   -0.6127 C   0  0  0  0  0  0  0  0  0  0  0  0
    4.8518   -1.0736    0.6929 C   0  0  0  0  0  0  0  0  0  0  0  0
    3.6075   -1.5577    0.9261 C   0  0  0  0  0  0  0  0  0  0  0  0
    2.6278   -1.6137   -0.0861 C   0  0  0  0  0  0  0  0  0  0  0  0
    1.2963   -2.0901    0.3856 C   0  0  0  0  0  0  0  0  0  0  0  0
    0.5099   -0.5862    1.0489 S   0  0  0  0  0  0  0  0  0  0  0  0
   -0.9302   -0.0531    0.1613 C   0  0  0  0  0  0  0  0  0  0  0  0
   -1.0944    0.6303   -0.9853 N   0  0  0  0  0  0  0  0  0  0  0  0
   -2.4165    0.8024   -1.2163 N   0  0  0  0  0  0  0  0  0  0  0  0
   -3.0747    0.2128   -0.1919 C   0  0  0  0  0  0  0  0  0  0  0  0
   -4.5179    0.1239    0.0534 C   0  0  0  0  0  0  0  0  0  0  0  0
   -4.9239   -0.5462    1.2081 C   0  0  0  0  0  0  0  0  0  0  0  0
   -6.2428   -0.6201    1.5739 C   0  0  0  0  0  0  0  0  0  0  0  0
   -7.1912   -0.0063    0.7623 C   0  0  0  0  0  0  0  0  0  0  0  0
   -6.8343    0.6656   -0.3926 C   0  0  0  0  0  0  0  0  0  0  0  0
   -5.4793    0.7027   -0.7054 C   0  0  0  0  0  0  0  0  0  0  0  0
   -7.7983    1.2657   -1.1780 O   0  0  0  0  0  0  0  0  0  0  0  0
   -9.1669    1.0838   -0.8747 C   0  0  0  0  0  0  0  0  0  0  0  0
   -9.2937    1.1105    0.6511 C   0  0  0  0  0  0  0  0  0  0  0  0
   -8.5618   -0.0425    1.0940 O   0  0  0  0  0  0  0  0  0  0  0  0
   -2.1599   -0.2714    0.5798 O   0  0  0  0  0  0  0  0  0  0  0  0
    2.9447   -1.1813   -1.3130 C   0  0  0  0  0  0  0  0  0  0  0  0
    4.2362   -0.6650   -1.6129 C   0  0  0  0  0  0  0  0  0  0  0  0
    8.0455    2.6246    0.6237 H   0  0  0  0  0  0  0  0  0  0  0  0
    9.4454   -0.3730   -2.0828 H   0  0  0  0  0  0  0  0  0  0  0  0
    7.2857   -1.4173   -2.0962 H   0  0  0  0  0  0  0  0  0  0  0  0
    5.6179   -1.0321    1.4752 H   0  0  0  0  0  0  0  0  0  0  0  0
    3.3114   -1.9233    1.8992 H   0  0  0  0  0  0  0  0  0  0  0  0
    0.7378   -2.5307   -0.4546 H   0  0  0  0  0  0  0  0  0  0  0  0
    1.4335   -2.8404    1.1849 H   0  0  0  0  0  0  0  0  0  0  0  0
   -4.1922   -1.0206    1.8378 H   0  0  0  0  0  0  0  0  0  0  0  0
   -6.5816   -1.1240    2.4568 H   0  0  0  0  0  0  0  0  0  0  0  0
   -5.1953    1.2330   -1.6172 H   0  0  0  0  0  0  0  0  0  0  0  0
   -9.8120    1.8716   -1.3264 H   0  0  0  0  0  0  0  0  0  0  0  0
   -9.4497    0.0622   -1.1870 H   0  0  0  0  0  0  0  0  0  0  0  0
  -10.3279    1.1265    1.0068 H   0  0  0  0  0  0  0  0  0  0  0  0
   -8.7168    2.0218    0.9793 H   0  0  0  0  0  0  0  0  0  0  0  0
    2.1951   -1.2205   -2.1010 H   0  0  0  0  0  0  0  0  0  0  0  0
    4.4354   -0.3330   -2.6038 H   0  0  0  0  0  0  0  0  0  0  0  0
  1  2  3  0
  2  3  1  0
  3  4  2  0
  4  5  1  0
  5  6  1  0
  5  7  2  0
  7  8  1  0
  8  9  2  0
  9 10  1  0
 10 11  2  0
 11 12  1  0
 12 13  2  0
 13 14  1  0
 14 15  1  0
 15 16  1  0
 16 17  2  0
 17 18  1  0
 18 19  2  0
 19 20  1  0
 20 21  2  0
 21 22  1  0
 22 23  2  0
 23 24  1  0
 24 25  2  0
 24 26  1  0
 26 27  1  0
 27 28  1  0
 28 29  1  0
 19 30  1  0
 13 31  1  0
 31 32  2  0
  9  3  1  0
 32 10  1  0
 30 16  1  0
 25 20  1  0
 29 23  1  0
  4 33  1  0
  7 34  1  0
  8 35  1  0
 11 36  1  0
 12 37  1  0
 14 38  1  0
 14 39  1  0
 21 40  1  0
 22 41  1  0
 25 42  1  0
 27 43  1  0
 27 44  1  0
 28 45  1  0
 28 46  1  0
 31 47  1  0
 32 48  1  0
M  END
$$$$
