@<TRIPOS>MOLECULE
*****
 48 52 0 0 0
SMALL
GASTEIGER

@<TRIPOS>ATOM
      1 N           4.5756    2.0902    1.2641 N.1     1  UNL1       -0.1908
      2 C           5.5102    1.6688    0.7084 C.1     1  UNL1        0.0999
      3 C           6.6712    1.1726    0.0275 C.ar    1  UNL1        0.0622
      4 C           7.8899    1.7403    0.0251 C.ar    1  UNL1       -0.0085
      5 C           8.9114    1.2085   -0.7179 C.ar    1  UNL1        0.1247
      6 F          10.1367    1.7682   -0.7371 F       1  UNL1       -0.2054
      7 C           8.6759    0.0783   -1.4697 C.ar    1  UNL1       -0.0258
      8 C           7.4243   -0.5294   -1.4819 C.ar    1  UNL1       -0.0501
      9 C           6.4446    0.0113   -0.7435 C.ar    1  UNL1       -0.0003
     10 C           5.1396   -0.6244   -0.6127 C.ar    1  UNL1       -0.0166
     11 C           4.8518   -1.0736    0.6929 C.ar    1  UNL1       -0.0537
     12 C           3.6075   -1.5577    0.9261 C.ar    1  UNL1       -0.0572
     13 C           2.6278   -1.6137   -0.0861 C.ar    1  UNL1       -0.0370
     14 C           1.2963   -2.0901    0.3856 C.3     1  UNL1        0.0278
     15 S           0.5099   -0.5862    1.0489 S.3     1  UNL1       -0.0609
     16 C          -0.9302   -0.0531    0.1613 C.ar    1  UNL1        0.2779
     17 N          -1.0944    0.6303   -0.9853 N.ar    1  UNL1       -0.1006
     18 N          -2.4165    0.8024   -1.2163 N.ar    1  UNL1       -0.1065
     19 C          -3.0747    0.2128   -0.1919 C.ar    1  UNL1        0.2493
     20 C          -4.5179    0.1239    0.0534 C.ar    1  UNL1        0.0422
     21 C          -4.9239   -0.5462    1.2081 C.ar    1  UNL1       -0.0458
     22 C          -6.2428   -0.6201    1.5739 C.ar    1  UNL1       -0.0156
     23 C          -7.1912   -0.0063    0.7623 C.ar    1  UNL1        0.1621
     24 C          -6.8343    0.6656   -0.3926 C.ar    1  UNL1        0.1628
     25 C          -5.4793    0.7027   -0.7054 C.ar    1  UNL1       -0.0040
     26 O          -7.7983    1.2657   -1.1780 O.3     1  UNL1       -0.4849
     27 C          -9.1669    1.0838   -0.8747 C.3     1  UNL1        0.1237
     28 C          -9.2937    1.1105    0.6511 C.3     1  UNL1        0.1237
     29 O          -8.5618   -0.0425    1.0940 O.3     1  UNL1       -0.4849
     30 O          -2.1599   -0.2714    0.5798 O.2     1  UNL1       -0.4110
     31 C           2.9447   -1.1813   -1.3130 C.ar    1  UNL1       -0.0572
     32 C           4.2362   -0.6650   -1.6129 C.ar    1  UNL1       -0.0537
     33 H           8.0455    2.6246    0.6237 H       1  UNL1        0.0659
     34 H           9.4454   -0.3730   -2.0828 H       1  UNL1        0.0646
     35 H           7.2857   -1.4173   -2.0962 H       1  UNL1        0.0625
     36 H           5.6179   -1.0321    1.4752 H       1  UNL1        0.0624
     37 H           3.3114   -1.9233    1.8992 H       1  UNL1        0.0621
     38 H           0.7378   -2.5307   -0.4546 H       1  UNL1        0.0430
     39 H           1.4335   -2.8404    1.1849 H       1  UNL1        0.0430
     40 H          -4.1922   -1.0206    1.8378 H       1  UNL1        0.0626
     41 H          -6.5816   -1.1240    2.4568 H       1  UNL1        0.0655
     42 H          -5.1953    1.2330   -1.6172 H       1  UNL1        0.0663
     43 H          -9.8120    1.8716   -1.3264 H       1  UNL1        0.0731
     44 H          -9.4497    0.0622   -1.1870 H       1  UNL1        0.0731
     45 H         -10.3279    1.1265    1.0068 H       1  UNL1        0.0731
     46 H          -8.7168    2.0218    0.9793 H       1  UNL1        0.0731
     47 H           2.1951   -1.2205   -2.1010 H       1  UNL1        0.0621
     48 H           4.4354   -0.3330   -2.6038 H       1  UNL1        0.0624
@<TRIPOS>BOND
     1     1     2    3
     2     2     3    1
     3     3     4   ar
     4     4     5   ar
     5     5     6    1
     6     5     7   ar
     7     7     8   ar
     8     8     9   ar
     9     9    10    1
    10    10    11   ar
    11    11    12   ar
    12    12    13   ar
    13    13    14    1
    14    14    15    1
    15    15    16    1
    16    16    17   ar
    17    17    18   ar
    18    18    19   ar
    19    19    20    1
    20    20    21   ar
    21    21    22   ar
    22    22    23   ar
    23    23    24   ar
    24    24    25   ar
    25    24    26    1
    26    26    27    1
    27    27    28    1
    28    28    29    1
    29    19    30   ar
    30    13    31   ar
    31    31    32   ar
    32     9     3   ar
    33    32    10   ar
    34    30    16   ar
    35    25    20   ar
    36    29    23    1
    37     4    33    1
    38     7    34    1
    39     8    35    1
    40    11    36    1
    41    12    37    1
    42    14    38    1
    43    14    39    1
    44    21    40    1
    45    22    41    1
    46    25    42    1
    47    27    43    1
    48    27    44    1
    49    28    45    1
    50    28    46    1
    51    31    47    1
    52    32    48    1
