@<TRIPOS>MOLECULE
*****
 58 63 0 0 0
SMALL
GASTEIGER

@<TRIPOS>ATOM
      1 O           2.9363   -2.7055   -2.0638 O.2     1  UNL1       -0.2526
      2 C           2.8144   -1.5029   -1.6831 C.2     1  UNL1        0.3024
      3 N           4.0402   -0.8094   -1.4782 N.am    1  UNL1       -0.2958
      4 C           5.3255   -1.3948   -1.6769 C.3     1  UNL1        0.0320
      5 C           6.4744   -0.6065   -2.1546 C.3     1  UNL1       -0.0254
      6 C           6.4715   -1.2967   -0.7809 C.3     1  UNL1        0.0043
      7 C           6.5777   -0.4375    0.4068 C.ar    1  UNL1       -0.0425
      8 C           7.8142    0.0803    0.8111 C.ar    1  UNL1       -0.0582
      9 C           7.9213    0.8701    1.9342 C.ar    1  UNL1       -0.0615
     10 C           6.8191    1.1790    2.6994 C.ar    1  UNL1       -0.0617
     11 C           5.6090    0.6802    2.3159 C.ar    1  UNL1       -0.0615
     12 C           5.4935   -0.1201    1.1804 C.ar    1  UNL1       -0.0582
     13 N           1.5432   -0.9337   -1.4893 N.am    1  UNL1       -0.2856
     14 C           1.2848    0.4048   -1.0615 C.3     1  UNL1        0.0168
     15 C           0.0615    0.3555   -0.1349 C.3     1  UNL1       -0.0257
     16 C          -1.1370    0.0884   -1.0316 C.3     1  UNL1        0.0410
     17 C          -2.3066   -0.3750   -0.2406 C.ar    1  UNL1        0.2309
     18 N          -3.4917    0.2278   -0.0433 N.ar    1  UNL1       -0.1898
     19 C          -4.2908   -0.4950    0.7258 C.ar    1  UNL1        0.2210
     20 C          -5.6353   -0.3479    1.2529 C.ar    1  UNL1        0.1188
     21 N          -6.1584   -1.3294    2.0397 N.ar    1  UNL1       -0.2511
     22 C          -7.3866   -1.2704    2.5639 C.ar    1  UNL1        0.0290
     23 C          -8.2354   -0.2084    2.3547 C.ar    1  UNL1       -0.0358
     24 C          -7.7501    0.8108    1.5639 C.ar    1  UNL1       -0.0143
     25 C          -8.5399    1.8931    1.3169 C.ar    1  UNL1       -0.0539
     26 C          -8.0646    2.9232    0.5250 C.ar    1  UNL1       -0.0612
     27 C          -6.7992    2.8531   -0.0100 C.ar    1  UNL1       -0.0611
     28 C          -6.0070    1.7595    0.2422 C.ar    1  UNL1       -0.0519
     29 C          -6.4639    0.7298    1.0256 C.ar    1  UNL1        0.0113
     30 N          -3.5383   -1.6049    1.0103 N.ar    1  UNL1       -0.0545
     31 O          -2.3918   -1.5013    0.4325 O.2     1  UNL1       -0.3374
     32 C          -0.7830   -0.8666   -2.1473 C.3     1  UNL1       -0.0257
     33 C           0.3703   -1.7757   -1.7463 C.3     1  UNL1        0.0168
     34 H           3.9177    0.2032   -1.1748 H       1  UNL1        0.1505
     35 H           5.2386   -2.4226   -2.1605 H       1  UNL1        0.0505
     36 H           6.4806    0.4959   -2.1722 H       1  UNL1        0.0290
     37 H           7.1941   -1.0518   -2.8670 H       1  UNL1        0.0290
     38 H           7.2216   -2.1566   -0.7038 H       1  UNL1        0.0367
     39 H           8.6498   -0.1803    0.1929 H       1  UNL1        0.0620
     40 H           8.8741    1.2684    2.2445 H       1  UNL1        0.0618
     41 H           6.8761    1.8047    3.5964 H       1  UNL1        0.0618
     42 H           4.7399    0.9207    2.9144 H       1  UNL1        0.0618
     43 H           4.5120   -0.4790    0.9602 H       1  UNL1        0.0620
     44 H           2.1195    0.9291   -0.5897 H       1  UNL1        0.0465
     45 H           0.9350    0.9749   -1.9659 H       1  UNL1        0.0465
     46 H          -0.0342    1.3772    0.2877 H       1  UNL1        0.0288
     47 H           0.1688   -0.4227    0.6308 H       1  UNL1        0.0288
     48 H          -1.3782    1.0655   -1.5017 H       1  UNL1        0.0397
     49 H          -7.7878   -2.0733    3.1945 H       1  UNL1        0.0830
     50 H          -9.2322   -0.1389    2.7683 H       1  UNL1        0.0639
     51 H          -9.5420    1.9961    1.7140 H       1  UNL1        0.0624
     52 H          -8.6693    3.7998    0.3091 H       1  UNL1        0.0618
     53 H          -6.4309    3.6533   -0.6249 H       1  UNL1        0.0618
     54 H          -5.0354    1.7384   -0.1870 H       1  UNL1        0.0624
     55 H          -1.6577   -1.5109   -2.3674 H       1  UNL1        0.0288
     56 H          -0.4319   -0.2978   -3.0359 H       1  UNL1        0.0288
     57 H           0.5543   -2.4476   -2.6091 H       1  UNL1        0.0465
     58 H           0.1406   -2.3198   -0.8314 H       1  UNL1        0.0465
@<TRIPOS>BOND
     1     1     2    2
     2     2     3   am
     3     3     4    1
     4     4     5    1
     5     5     6    1
     6     6     7    1
     7     7     8   ar
     8     8     9   ar
     9     9    10   ar
    10    10    11   ar
    11    11    12   ar
    12     2    13   am
    13    13    14    1
    14    14    15    1
    15    15    16    1
    16    16    17    1
    17    17    18   ar
    18    18    19   ar
    19    19    20    1
    20    20    21   ar
    21    21    22   ar
    22    22    23   ar
    23    23    24   ar
    24    24    25   ar
    25    25    26   ar
    26    26    27   ar
    27    27    28   ar
    28    28    29   ar
    29    19    30   ar
    30    30    31   ar
    31    16    32    1
    32    32    33    1
    33     6     4    1
    34    12     7   ar
    35    33    13    1
    36    31    17   ar
    37    29    20   ar
    38    29    24   ar
    39     3    34    1
    40     4    35    1
    41     5    36    1
    42     5    37    1
    43     6    38    1
    44     8    39    1
    45     9    40    1
    46    10    41    1
    47    11    42    1
    48    12    43    1
    49    14    44    1
    50    14    45    1
    51    15    46    1
    52    15    47    1
    53    16    48    1
    54    22    49    1
    55    23    50    1
    56    25    51    1
    57    26    52    1
    58    27    53    1
    59    28    54    1
    60    32    55    1
    61    32    56    1
    62    33    57    1
    63    33    58    1
