
     RDKit          3D

 58 63  0  0  0  0  0  0  0  0999 V2000
    2.9363   -2.7055   -2.0638 O   0  0  0  0  0  0  0  0  0  0  0  0
    2.8144   -1.5029   -1.6831 C   0  0  0  0  0  0  0  0  0  0  0  0
    4.0402   -0.8094   -1.4782 N   0  0  0  0  0  0  0  0  0  0  0  0
    5.3255   -1.3948   -1.6769 C   0  0  0  0  0  0  0  0  0  0  0  0
    6.4744   -0.6065   -2.1546 C   0  0  0  0  0  0  0  0  0  0  0  0
    6.4715   -1.2967   -0.7809 C   0  0  0  0  0  0  0  0  0  0  0  0
    6.5777   -0.4375    0.4068 C   0  0  0  0  0  0  0  0  0  0  0  0
    7.8142    0.0803    0.8111 C   0  0  0  0  0  0  0  0  0  0  0  0
    7.9213    0.8701    1.9342 C   0  0  0  0  0  0  0  0  0  0  0  0
    6.8191    1.1790    2.6994 C   0  0  0  0  0  0  0  0  0  0  0  0
    5.6090    0.6802    2.3159 C   0  0  0  0  0  0  0  0  0  0  0  0
    5.4935   -0.1201    1.1804 C   0  0  0  0  0  0  0  0  0  0  0  0
    1.5432   -0.9337   -1.4893 N   0  0  0  0  0  0  0  0  0  0  0  0
    1.2848    0.4048   -1.0615 C   0  0  0  0  0  0  0  0  0  0  0  0
    0.0615    0.3555   -0.1349 C   0  0  0  0  0  0  0  0  0  0  0  0
   -1.1370    0.0884   -1.0316 C   0  0  0  0  0  0  0  0  0  0  0  0
   -2.3066   -0.3750   -0.2406 C   0  0  0  0  0  0  0  0  0  0  0  0
   -3.4917    0.2278   -0.0433 N   0  0  0  0  0  0  0  0  0  0  0  0
   -4.2908   -0.4950    0.7258 C   0  0  0  0  0  0  0  0  0  0  0  0
   -5.6353   -0.3479    1.2529 C   0  0  0  0  0  0  0  0  0  0  0  0
   -6.1584   -1.3294    2.0397 N   0  0  0  0  0  0  0  0  0  0  0  0
   -7.3866   -1.2704    2.5639 C   0  0  0  0  0  0  0  0  0  0  0  0
   -8.2354   -0.2084    2.3547 C   0  0  0  0  0  0  0  0  0  0  0  0
   -7.7501    0.8108    1.5639 C   0  0  0  0  0  0  0  0  0  0  0  0
   -8.5399    1.8931    1.3169 C   0  0  0  0  0  0  0  0  0  0  0  0
   -8.0646    2.9232    0.5250 C   0  0  0  0  0  0  0  0  0  0  0  0
   -6.7992    2.8531   -0.0100 C   0  0  0  0  0  0  0  0  0  0  0  0
   -6.0070    1.7595    0.2422 C   0  0  0  0  0  0  0  0  0  0  0  0
   -6.4639    0.7298    1.0256 C   0  0  0  0  0  0  0  0  0  0  0  0
   -3.5383   -1.6049    1.0103 N   0  0  0  0  0  0  0  0  0  0  0  0
   -2.3918   -1.5013    0.4325 O   0  0  0  0  0  0  0  0  0  0  0  0
   -0.7830   -0.8666   -2.1473 C   0  0  0  0  0  0  0  0  0  0  0  0
    0.3703   -1.7757   -1.7463 C   0  0  0  0  0  0  0  0  0  0  0  0
    3.9177    0.2032   -1.1748 H   0  0  0  0  0  0  0  0  0  0  0  0
    5.2386   -2.4226   -2.1605 H   0  0  0  0  0  0  0  0  0  0  0  0
    6.4806    0.4959   -2.1722 H   0  0  0  0  0  0  0  0  0  0  0  0
    7.1941   -1.0518   -2.8670 H   0  0  0  0  0  0  0  0  0  0  0  0
    7.2216   -2.1566   -0.7038 H   0  0  0  0  0  0  0  0  0  0  0  0
    8.6498   -0.1803    0.1929 H   0  0  0  0  0  0  0  0  0  0  0  0
    8.8741    1.2684    2.2445 H   0  0  0  0  0  0  0  0  0  0  0  0
    6.8761    1.8047    3.5964 H   0  0  0  0  0  0  0  0  0  0  0  0
    4.7399    0.9207    2.9144 H   0  0  0  0  0  0  0  0  0  0  0  0
    4.5120   -0.4790    0.9602 H   0  0  0  0  0  0  0  0  0  0  0  0
    2.1195    0.9291   -0.5897 H   0  0  0  0  0  0  0  0  0  0  0  0
    0.9350    0.9749   -1.9659 H   0  0  0  0  0  0  0  0  0  0  0  0
   -0.0342    1.3772    0.2877 H   0  0  0  0  0  0  0  0  0  0  0  0
    0.1688   -0.4227    0.6308 H   0  0  0  0  0  0  0  0  0  0  0  0
   -1.3782    1.0655   -1.5017 H   0  0  0  0  0  0  0  0  0  0  0  0
   -7.7878   -2.0733    3.1945 H   0  0  0  0  0  0  0  0  0  0  0  0
   -9.2322   -0.1389    2.7683 H   0  0  0  0  0  0  0  0  0  0  0  0
   -9.5420    1.9961    1.7140 H   0  0  0  0  0  0  0  0  0  0  0  0
   -8.6693    3.7998    0.3091 H   0  0  0  0  0  0  0  0  0  0  0  0
   -6.4309    3.6533   -0.6249 H   0  0  0  0  0  0  0  0  0  0  0  0
   -5.0354    1.7384   -0.1870 H   0  0  0  0  0  0  0  0  0  0  0  0
   -1.6577   -1.5109   -2.3674 H   0  0  0  0  0  0  0  0  0  0  0  0
   -0.4319   -0.2978   -3.0359 H   0  0  0  0  0  0  0  0  0  0  0  0
    0.5543   -2.4476   -2.6091 H   0  0  0  0  0  0  0  0  0  0  0  0
    0.1406   -2.3198   -0.8314 H   0  0  0  0  0  0  0  0  0  0  0  0
  1  2  2  0
  2  3  1  0
  3  4  1  0
  4  5  1  0
  5  6  1  0
  6  7  1  0
  7  8  2  0
  8  9  1  0
  9 10  2  0
 10 11  1  0
 11 12  2  0
  2 13  1  0
 13 14  1  0
 14 15  1  0
 15 16  1  0
 16 17  1  0
 17 18  2  0
 18 19  1  0
 19 20  1  0
 20 21  2  0
 21 22  1  0
 22 23  2  0
 23 24  1  0
 24 25  2  0
 25 26  1  0
 26 27  2  0
 27 28  1  0
 28 29  2  0
 19 30  2  0
 30 31  1  0
 16 32  1  0
 32 33  1  0
  6  4  1  0
 12  7  1  0
 33 13  1  0
 31 17  1  0
 29 20  1  0
 29 24  1  0
  3 34  1  0
  4 35  1  0
  5 36  1  0
  5 37  1  0
  6 38  1  0
  8 39  1  0
  9 40  1  0
 10 41  1  0
 11 42  1  0
 12 43  1  0
 14 44  1  0
 14 45  1  0
 15 46  1  0
 15 47  1  0
 16 48  1  0
 22 49  1  0
 23 50  1  0
 25 51  1  0
 26 52  1  0
 27 53  1  0
 28 54  1  0
 32 55  1  0
 32 56  1  0
 33 57  1  0
 33 58  1  0
M  END
$$$$
