
     RDKit          3D

 56 59  0  0  0  0  0  0  0  0999 V2000
    0.4721    6.6630    0.3586 C   0  0  0  0  0  0  0  0  0  0  0  0
    0.1281    5.2246    0.2887 C   0  0  0  0  0  0  0  0  0  0  0  0
   -1.0341    4.8973    0.2398 O   0  0  0  0  0  0  0  0  0  0  0  0
    1.3996    3.9852    0.2758 S   0  0  0  0  0  0  0  0  0  0  0  0
    0.6390    2.3571    0.1890 C   0  0  2  0  0  0  0  0  0  0  0  0
    1.6901    1.2453    0.1789 C   0  0  0  0  0  0  0  0  0  0  0  0
    1.2305    0.3223   -0.9068 C   0  0  1  0  0  0  0  0  0  0  0  0
    1.3799   -1.1317   -0.6368 C   0  0  0  0  0  0  0  0  0  0  0  0
    2.6068   -1.6458   -0.4743 O   0  0  0  0  0  0  0  0  0  0  0  0
    3.3896   -1.2297    0.5381 C   0  0  0  0  0  0  0  0  0  0  0  0
    4.6969   -1.9729    0.5938 C   0  0  0  0  0  0  0  0  0  0  0  0
    5.8173   -1.3352    0.1284 C   0  0  0  0  0  0  0  0  0  0  0  0
    7.0601   -1.9392    0.1333 C   0  0  0  0  0  0  0  0  0  0  0  0
    8.1276   -1.2599   -0.3386 F   0  0  0  0  0  0  0  0  0  0  0  0
    7.1425   -3.2283    0.6302 C   0  0  0  0  0  0  0  0  0  0  0  0
    8.3579   -3.8223    0.6369 F   0  0  0  0  0  0  0  0  0  0  0  0
    6.0012   -3.8746    1.1029 C   0  0  0  0  0  0  0  0  0  0  0  0
    4.7767   -3.2502    1.0863 C   0  0  0  0  0  0  0  0  0  0  0  0
    3.6318   -3.8185    1.5282 F   0  0  0  0  0  0  0  0  0  0  0  0
   -0.1553    0.6562   -1.0765 N   0  0  0  0  0  0  0  0  0  0  0  0
   -1.2766   -0.1664   -1.1946 C   0  0  0  0  0  0  0  0  0  0  0  0
   -1.2335   -1.4161   -1.1591 O   0  0  0  0  0  0  0  0  0  0  0  0
   -2.5715    0.3602   -1.3664 O   0  0  0  0  0  0  0  0  0  0  0  0
   -3.7012   -0.4303   -1.4834 C   0  0  0  0  0  0  0  0  0  0  0  0
   -4.0908   -0.9223   -2.7087 C   0  0  0  0  0  0  0  0  0  0  0  0
   -5.1953   -1.7071   -2.8904 C   0  0  0  0  0  0  0  0  0  0  0  0
   -5.9499   -2.0115   -1.7650 C   0  0  0  0  0  0  0  0  0  0  0  0
   -5.6135   -1.5512   -0.5160 C   0  0  0  0  0  0  0  0  0  0  0  0
   -4.4739   -0.7528   -0.3886 C   0  0  0  0  0  0  0  0  0  0  0  0
   -4.1367   -0.2892    0.8751 O   0  0  0  0  0  0  0  0  0  0  0  0
   -4.8524   -0.7505    1.9994 C   0  0  0  0  0  0  0  0  0  0  0  0
   -6.3164   -0.8634    1.6503 C   0  0  0  0  0  0  0  0  0  0  0  0
   -6.3838   -1.8643    0.6212 O   0  0  0  0  0  0  0  0  0  0  0  0
   -0.1531    2.1357   -1.0905 C   0  0  0  0  0  0  0  0  0  0  0  0
    0.6433    7.0711   -0.6710 H   0  0  0  0  0  0  0  0  0  0  0  0
   -0.2842    7.2715    0.8979 H   0  0  0  0  0  0  0  0  0  0  0  0
    1.4667    6.7642    0.8702 H   0  0  0  0  0  0  0  0  0  0  0  0
   -0.0820    2.2279    1.0230 H   0  0  0  0  0  0  0  0  0  0  0  0
    2.6440    1.7803   -0.0771 H   0  0  0  0  0  0  0  0  0  0  0  0
    1.6720    0.8155    1.1765 H   0  0  0  0  0  0  0  0  0  0  0  0
    1.7764    0.5986   -1.8548 H   0  0  0  0  0  0  0  0  0  0  0  0
    0.9560   -1.6446   -1.5718 H   0  0  0  0  0  0  0  0  0  0  0  0
    0.6442   -1.4487    0.1520 H   0  0  0  0  0  0  0  0  0  0  0  0
    3.6784   -0.1707    0.4335 H   0  0  0  0  0  0  0  0  0  0  0  0
    2.8734   -1.3576    1.5220 H   0  0  0  0  0  0  0  0  0  0  0  0
    5.7642   -0.3107   -0.2690 H   0  0  0  0  0  0  0  0  0  0  0  0
    6.0776   -4.8846    1.4894 H   0  0  0  0  0  0  0  0  0  0  0  0
   -3.4702   -0.6583   -3.5641 H   0  0  0  0  0  0  0  0  0  0  0  0
   -5.4409   -2.0579   -3.8791 H   0  0  0  0  0  0  0  0  0  0  0  0
   -6.8308   -2.6350   -1.8995 H   0  0  0  0  0  0  0  0  0  0  0  0
   -4.5146   -1.7801    2.3126 H   0  0  0  0  0  0  0  0  0  0  0  0
   -4.7413   -0.0763    2.8723 H   0  0  0  0  0  0  0  0  0  0  0  0
   -6.9219   -1.2240    2.4898 H   0  0  0  0  0  0  0  0  0  0  0  0
   -6.6407    0.1310    1.2709 H   0  0  0  0  0  0  0  0  0  0  0  0
    0.4770    2.4209   -1.9532 H   0  0  0  0  0  0  0  0  0  0  0  0
   -1.1562    2.5545   -1.0722 H   0  0  0  0  0  0  0  0  0  0  0  0
  1  2  1  0
  2  3  2  0
  2  4  1  0
  4  5  1  0
  5  6  1  0
  6  7  1  0
  7  8  1  0
  8  9  1  0
  9 10  1  0
 10 11  1  0
 11 12  2  0
 12 13  1  0
 13 14  1  0
 13 15  2  0
 15 16  1  0
 15 17  1  0
 17 18  2  0
 18 19  1  0
  7 20  1  0
 20 21  1  0
 21 22  2  0
 21 23  1  0
 23 24  1  0
 24 25  2  0
 25 26  1  0
 26 27  2  0
 27 28  1  0
 28 29  2  0
 29 30  1  0
 30 31  1  0
 31 32  1  0
 32 33  1  0
 20 34  1  0
 34  5  1  0
 18 11  1  0
 29 24  1  0
 33 28  1  0
  1 35  1  0
  1 36  1  0
  1 37  1  0
  5 38  1  1
  6 39  1  0
  6 40  1  0
  7 41  1  6
  8 42  1  0
  8 43  1  0
 10 44  1  0
 10 45  1  0
 12 46  1  0
 17 47  1  0
 25 48  1  0
 26 49  1  0
 27 50  1  0
 31 51  1  0
 31 52  1  0
 32 53  1  0
 32 54  1  0
 34 55  1  0
 34 56  1  0
M  END
$$$$
