@<TRIPOS>MOLECULE
*****
 56 59 0 0 0
SMALL
GASTEIGER

@<TRIPOS>ATOM
      1 C           0.4721    6.6630    0.3586 C.3     1  UNL1        0.0044
      2 C           0.1281    5.2246    0.2887 C.2     1  UNL1        0.1866
      3 O          -1.0341    4.8973    0.2398 O.2     1  UNL1       -0.2855
      4 S           1.3996    3.9852    0.2758 S.3     1  UNL1       -0.0834
      5 C           0.6390    2.3571    0.1890 C.3     1  UNL1        0.0301
      6 C           1.6901    1.2453    0.1789 C.3     1  UNL1       -0.0183
      7 C           1.2305    0.3223   -0.9068 C.3     1  UNL1        0.0536
      8 C           1.3799   -1.1317   -0.6368 C.3     1  UNL1        0.0668
      9 O           2.6068   -1.6458   -0.4743 O.3     1  UNL1       -0.3733
     10 C           3.3896   -1.2297    0.5381 C.3     1  UNL1        0.0755
     11 C           4.6969   -1.9729    0.5938 C.ar    1  UNL1        0.0161
     12 C           5.8173   -1.3352    0.1284 C.ar    1  UNL1       -0.0155
     13 C           7.0601   -1.9392    0.1333 C.ar    1  UNL1        0.1589
     14 F           8.1276   -1.2599   -0.3386 F       1  UNL1       -0.2025
     15 C           7.1425   -3.2283    0.6302 C.ar    1  UNL1        0.1611
     16 F           8.3579   -3.8223    0.6369 F       1  UNL1       -0.2024
     17 C           6.0012   -3.8746    1.1029 C.ar    1  UNL1        0.0120
     18 C           4.7767   -3.2502    1.0863 C.ar    1  UNL1        0.1316
     19 F           3.6318   -3.8185    1.5282 F       1  UNL1       -0.2050
     20 N          -0.1553    0.6562   -1.0765 N.am    1  UNL1       -0.2608
     21 C          -1.2766   -0.1664   -1.1946 C.2     1  UNL1        0.4086
     22 O          -1.2335   -1.4161   -1.1591 O.2     1  UNL1       -0.2258
     23 O          -2.5715    0.3602   -1.3664 O.3     1  UNL1       -0.4075
     24 C          -3.7012   -0.4303   -1.4834 C.ar    1  UNL1        0.1783
     25 C          -4.0908   -0.9223   -2.7087 C.ar    1  UNL1       -0.0153
     26 C          -5.1953   -1.7071   -2.8904 C.ar    1  UNL1       -0.0546
     27 C          -5.9499   -2.0115   -1.7650 C.ar    1  UNL1       -0.0160
     28 C          -5.6135   -1.5512   -0.5160 C.ar    1  UNL1        0.1658
     29 C          -4.4739   -0.7528   -0.3886 C.ar    1  UNL1        0.2047
     30 O          -4.1367   -0.2892    0.8751 O.3     1  UNL1       -0.4818
     31 C          -4.8524   -0.7505    1.9994 C.3     1  UNL1        0.1238
     32 C          -6.3164   -0.8634    1.6503 C.3     1  UNL1        0.1237
     33 O          -6.3838   -1.8643    0.6212 O.3     1  UNL1       -0.4848
     34 C          -0.1531    2.1357   -1.0905 C.3     1  UNL1        0.0305
     35 H           0.6433    7.0711   -0.6710 H       1  UNL1        0.0315
     36 H          -0.2842    7.2715    0.8979 H       1  UNL1        0.0315
     37 H           1.4667    6.7642    0.8702 H       1  UNL1        0.0315
     38 H          -0.0820    2.2279    1.0230 H       1  UNL1        0.0432
     39 H           2.6440    1.7803   -0.0771 H       1  UNL1        0.0295
     40 H           1.6720    0.8155    1.1765 H       1  UNL1        0.0295
     41 H           1.7764    0.5986   -1.8548 H       1  UNL1        0.0524
     42 H           0.9560   -1.6446   -1.5718 H       1  UNL1        0.0578
     43 H           0.6442   -1.4487    0.1520 H       1  UNL1        0.0578
     44 H           3.6784   -0.1707    0.4335 H       1  UNL1        0.0611
     45 H           2.8734   -1.3576    1.5220 H       1  UNL1        0.0611
     46 H           5.7642   -0.3107   -0.2690 H       1  UNL1        0.0651
     47 H           6.0776   -4.8846    1.4894 H       1  UNL1        0.0676
     48 H          -3.4702   -0.6583   -3.5641 H       1  UNL1        0.0655
     49 H          -5.4409   -2.0579   -3.8791 H       1  UNL1        0.0620
     50 H          -6.8308   -2.6350   -1.8995 H       1  UNL1        0.0655
     51 H          -4.5146   -1.7801    2.3126 H       1  UNL1        0.0731
     52 H          -4.7413   -0.0763    2.8723 H       1  UNL1        0.0731
     53 H          -6.9219   -1.2240    2.4898 H       1  UNL1        0.0731
     54 H          -6.6407    0.1310    1.2709 H       1  UNL1        0.0731
     55 H           0.4770    2.4209   -1.9532 H       1  UNL1        0.0477
     56 H          -1.1562    2.5545   -1.0722 H       1  UNL1        0.0477
@<TRIPOS>BOND
     1     1     2    1
     2     2     3    2
     3     2     4    1
     4     4     5    1
     5     5     6    1
     6     6     7    1
     7     7     8    1
     8     8     9    1
     9     9    10    1
    10    10    11    1
    11    11    12   ar
    12    12    13   ar
    13    13    14    1
    14    13    15   ar
    15    15    16    1
    16    15    17   ar
    17    17    18   ar
    18    18    19    1
    19     7    20    1
    20    20    21   am
    21    21    22    2
    22    21    23    1
    23    23    24    1
    24    24    25   ar
    25    25    26   ar
    26    26    27   ar
    27    27    28   ar
    28    28    29   ar
    29    29    30    1
    30    30    31    1
    31    31    32    1
    32    32    33    1
    33    20    34    1
    34    34     5    1
    35    18    11   ar
    36    29    24   ar
    37    33    28    1
    38     1    35    1
    39     1    36    1
    40     1    37    1
    41     5    38    1
    42     6    39    1
    43     6    40    1
    44     7    41    1
    45     8    42    1
    46     8    43    1
    47    10    44    1
    48    10    45    1
    49    12    46    1
    50    17    47    1
    51    25    48    1
    52    26    49    1
    53    27    50    1
    54    31    51    1
    55    31    52    1
    56    32    53    1
    57    32    54    1
    58    34    55    1
    59    34    56    1
