
     RDKit          3D

 57 60  0  0  0  0  0  0  0  0999 V2000
    1.5480   -2.3443   -0.8211 C   0  0  0  0  0  0  0  0  0  0  0  0
    2.5765   -1.2986   -0.6660 C   0  0  0  0  0  0  0  0  0  0  0  0
    3.9193   -1.4791   -0.8926 C   0  0  0  0  0  0  0  0  0  0  0  0
    4.8406   -0.4630   -0.7419 C   0  0  0  0  0  0  0  0  0  0  0  0
    4.4358    0.7850   -0.3525 C   0  0  0  0  0  0  0  0  0  0  0  0
    5.4360    1.8777   -0.1667 C   0  0  0  0  0  0  0  0  0  0  0  0
    5.6580    2.1245    1.3310 C   0  0  0  0  0  0  0  0  0  0  0  0
    6.7476    1.4717   -0.7456 C   0  0  0  0  0  0  0  0  0  0  0  0
    3.0956    1.0002   -0.1173 C   0  0  0  0  0  0  0  0  0  0  0  0
    2.1880   -0.0189   -0.2698 C   0  0  0  0  0  0  0  0  0  0  0  0
    0.8015    0.1903    0.0174 N   0  0  0  0  0  0  0  0  0  0  0  0
    0.4003   -0.0841    1.3436 C   0  0  0  0  0  0  0  0  0  0  0  0
    1.2393   -0.4908    2.2172 O   0  0  0  0  0  0  0  0  0  0  0  0
   -1.0169    0.1008    1.7316 C   0  0  0  0  0  0  0  0  0  0  0  0
   -1.9148   -0.6076    0.8346 N   0  0  0  0  0  0  0  0  0  0  0  0
   -2.5591   -0.2003   -0.2633 C   0  0  0  0  0  0  0  0  0  0  0  0
   -2.5884    1.1587   -0.8534 C   0  0  0  0  0  0  0  0  0  0  0  0
   -3.9137    1.8116   -0.7930 C   0  0  0  0  0  0  0  0  0  0  0  0
   -4.8932    1.4220   -1.6991 C   0  0  0  0  0  0  0  0  0  0  0  0
   -4.4782    0.1860   -2.8765 Cl  0  0  0  0  0  0  0  0  0  0  0  0
   -6.1676    1.9753   -1.7191 C   0  0  0  0  0  0  0  0  0  0  0  0
   -6.4570    2.9513   -0.7939 C   0  0  0  0  0  0  0  0  0  0  0  0
   -5.5197    3.3702    0.1247 C   0  0  0  0  0  0  0  0  0  0  0  0
   -4.2574    2.7785    0.0957 C   0  0  0  0  0  0  0  0  0  0  0  0
   -3.1126    3.3661    1.2777 Cl  0  0  0  0  0  0  0  0  0  0  0  0
   -3.2343   -1.2534   -0.7654 N   0  0  0  0  0  0  0  0  0  0  0  0
   -3.0499   -2.3500   -0.0186 C   0  0  0  0  0  0  0  0  0  0  0  0
   -3.5137   -3.6470   -0.1181 C   0  0  0  0  0  0  0  0  0  0  0  0
   -3.1100   -4.5432    0.8434 C   0  0  0  0  0  0  0  0  0  0  0  0
   -2.2677   -4.1442    1.8717 C   0  0  0  0  0  0  0  0  0  0  0  0
   -1.8174   -2.8455    1.9523 C   0  0  0  0  0  0  0  0  0  0  0  0
   -2.2072   -1.9211    0.9970 C   0  0  0  0  0  0  0  0  0  0  0  0
    1.2284   -2.7266    0.1523 H   0  0  0  0  0  0  0  0  0  0  0  0
    1.9525   -3.2333   -1.3779 H   0  0  0  0  0  0  0  0  0  0  0  0
    0.7038   -1.9651   -1.4454 H   0  0  0  0  0  0  0  0  0  0  0  0
    4.2313   -2.4829   -1.2056 H   0  0  0  0  0  0  0  0  0  0  0  0
    5.9092   -0.6525   -0.9346 H   0  0  0  0  0  0  0  0  0  0  0  0
    5.0706    2.8004   -0.6436 H   0  0  0  0  0  0  0  0  0  0  0  0
    6.7352    2.3361    1.4956 H   0  0  0  0  0  0  0  0  0  0  0  0
    5.0987    3.0464    1.5985 H   0  0  0  0  0  0  0  0  0  0  0  0
    5.3202    1.2200    1.8521 H   0  0  0  0  0  0  0  0  0  0  0  0
    6.6801    1.0381   -1.7790 H   0  0  0  0  0  0  0  0  0  0  0  0
    7.2108    0.6687   -0.0951 H   0  0  0  0  0  0  0  0  0  0  0  0
    7.4180    2.3853   -0.7420 H   0  0  0  0  0  0  0  0  0  0  0  0
    2.7996    2.0123    0.1939 H   0  0  0  0  0  0  0  0  0  0  0  0
    0.2010    0.5248   -0.7529 H   0  0  0  0  0  0  0  0  0  0  0  0
   -1.2036    1.1905    1.6884 H   0  0  0  0  0  0  0  0  0  0  0  0
   -1.1892   -0.1722    2.8047 H   0  0  0  0  0  0  0  0  0  0  0  0
   -2.2623    1.0374   -1.9150 H   0  0  0  0  0  0  0  0  0  0  0  0
   -1.8444    1.8328   -0.3995 H   0  0  0  0  0  0  0  0  0  0  0  0
   -6.8960    1.6423   -2.4435 H   0  0  0  0  0  0  0  0  0  0  0  0
   -7.4601    3.3768   -0.8260 H   0  0  0  0  0  0  0  0  0  0  0  0
   -5.8129    4.1366    0.8270 H   0  0  0  0  0  0  0  0  0  0  0  0
   -4.1678   -3.9380   -0.9278 H   0  0  0  0  0  0  0  0  0  0  0  0
   -3.4352   -5.5808    0.8243 H   0  0  0  0  0  0  0  0  0  0  0  0
   -1.9426   -4.8576    2.6409 H   0  0  0  0  0  0  0  0  0  0  0  0
   -1.1530   -2.5181    2.7593 H   0  0  0  0  0  0  0  0  0  0  0  0
  1  2  1  0
  2  3  2  0
  3  4  1  0
  4  5  2  0
  5  6  1  0
  6  7  1  0
  6  8  1  0
  5  9  1  0
  9 10  2  0
 10 11  1  0
 11 12  1  0
 12 13  2  0
 12 14  1  0
 14 15  1  0
 15 16  1  0
 16 17  1  0
 17 18  1  0
 18 19  2  0
 19 20  1  0
 19 21  1  0
 21 22  2  0
 22 23  1  0
 23 24  2  0
 24 25  1  0
 16 26  2  0
 26 27  1  0
 27 28  2  0
 28 29  1  0
 29 30  2  0
 30 31  1  0
 31 32  2  0
 10  2  1  0
 32 15  1  0
 24 18  1  0
 32 27  1  0
  1 33  1  0
  1 34  1  0
  1 35  1  0
  3 36  1  0
  4 37  1  0
  6 38  1  0
  7 39  1  0
  7 40  1  0
  7 41  1  0
  8 42  1  0
  8 43  1  0
  8 44  1  0
  9 45  1  0
 11 46  1  0
 14 47  1  0
 14 48  1  0
 17 49  1  0
 17 50  1  0
 21 51  1  0
 22 52  1  0
 23 53  1  0
 28 54  1  0
 29 55  1  0
 30 56  1  0
 31 57  1  0
M  END
$$$$
