@<TRIPOS>MOLECULE
*****
 57 60 0 0 0
SMALL
GASTEIGER

@<TRIPOS>ATOM
      1 C           1.5480   -2.3443   -0.8211 C.3     1  UNL1       -0.0380
      2 C           2.5765   -1.2986   -0.6660 C.ar    1  UNL1       -0.0292
      3 C           3.9193   -1.4791   -0.8926 C.ar    1  UNL1       -0.0568
      4 C           4.8406   -0.4630   -0.7419 C.ar    1  UNL1       -0.0580
      5 C           4.4358    0.7850   -0.3525 C.ar    1  UNL1       -0.0430
      6 C           5.4360    1.8777   -0.1667 C.3     1  UNL1       -0.0215
      7 C           5.6580    2.1245    1.3310 C.3     1  UNL1       -0.0586
      8 C           6.7476    1.4717   -0.7456 C.3     1  UNL1       -0.0586
      9 C           3.0956    1.0002   -0.1173 C.ar    1  UNL1       -0.0368
     10 C           2.1880   -0.0189   -0.2698 C.ar    1  UNL1        0.0366
     11 N           0.8015    0.1903    0.0174 N.am    1  UNL1       -0.2838
     12 C           0.4003   -0.0841    1.3436 C.2     1  UNL1        0.2370
     13 O           1.2393   -0.4908    2.2172 O.2     1  UNL1       -0.2735
     14 C          -1.0169    0.1008    1.7316 C.3     1  UNL1        0.1015
     15 N          -1.9148   -0.6076    0.8346 N.ar    1  UNL1       -0.3183
     16 C          -2.5591   -0.2003   -0.2633 C.ar    1  UNL1        0.1156
     17 C          -2.5884    1.1587   -0.8534 C.3     1  UNL1        0.0336
     18 C          -3.9137    1.8116   -0.7930 C.ar    1  UNL1       -0.0035
     19 C          -4.8932    1.4220   -1.6991 C.ar    1  UNL1        0.0459
     20 CL         -4.4782    0.1860   -2.8765 Cl      1  UNL1       -0.0832
     21 C          -6.1676    1.9753   -1.7191 C.ar    1  UNL1       -0.0430
     22 C          -6.4570    2.9513   -0.7939 C.ar    1  UNL1       -0.0590
     23 C          -5.5197    3.3702    0.1247 C.ar    1  UNL1       -0.0430
     24 C          -4.2574    2.7785    0.0957 C.ar    1  UNL1        0.0459
     25 CL         -3.1126    3.3661    1.2777 Cl      1  UNL1       -0.0832
     26 N          -3.2343   -1.2534   -0.7654 N.ar    1  UNL1       -0.2319
     27 C          -3.0499   -2.3500   -0.0186 C.ar    1  UNL1        0.0893
     28 C          -3.5137   -3.6470   -0.1181 C.ar    1  UNL1       -0.0342
     29 C          -3.1100   -4.5432    0.8434 C.ar    1  UNL1       -0.0596
     30 C          -2.2677   -4.1442    1.8717 C.ar    1  UNL1       -0.0597
     31 C          -1.8174   -2.8455    1.9523 C.ar    1  UNL1       -0.0360
     32 C          -2.2072   -1.9211    0.9970 C.ar    1  UNL1        0.0693
     33 H           1.2284   -2.7266    0.1523 H       1  UNL1        0.0278
     34 H           1.9525   -3.2333   -1.3779 H       1  UNL1        0.0278
     35 H           0.7038   -1.9651   -1.4454 H       1  UNL1        0.0278
     36 H           4.2313   -2.4829   -1.2056 H       1  UNL1        0.0621
     37 H           5.9092   -0.6525   -0.9346 H       1  UNL1        0.0620
     38 H           5.0706    2.8004   -0.6436 H       1  UNL1        0.0343
     39 H           6.7352    2.3361    1.4956 H       1  UNL1        0.0235
     40 H           5.0987    3.0464    1.5985 H       1  UNL1        0.0235
     41 H           5.3202    1.2200    1.8521 H       1  UNL1        0.0235
     42 H           6.6801    1.0381   -1.7790 H       1  UNL1        0.0235
     43 H           7.2108    0.6687   -0.0951 H       1  UNL1        0.0235
     44 H           7.4180    2.3853   -0.7420 H       1  UNL1        0.0235
     45 H           2.7996    2.0123    0.1939 H       1  UNL1        0.0639
     46 H           0.2010    0.5248   -0.7529 H       1  UNL1        0.1549
     47 H          -1.2036    1.1905    1.6884 H       1  UNL1        0.0588
     48 H          -1.1892   -0.1722    2.8047 H       1  UNL1        0.0588
     49 H          -2.2623    1.0374   -1.9150 H       1  UNL1        0.0393
     50 H          -1.8444    1.8328   -0.3995 H       1  UNL1        0.0393
     51 H          -6.8960    1.6423   -2.4435 H       1  UNL1        0.0632
     52 H          -7.4601    3.3768   -0.8260 H       1  UNL1        0.0618
     53 H          -5.8129    4.1366    0.8270 H       1  UNL1        0.0632
     54 H          -4.1678   -3.9380   -0.9278 H       1  UNL1        0.0639
     55 H          -3.4352   -5.5808    0.8243 H       1  UNL1        0.0618
     56 H          -1.9426   -4.8576    2.6409 H       1  UNL1        0.0618
     57 H          -1.1530   -2.5181    2.7593 H       1  UNL1        0.0639
@<TRIPOS>BOND
     1     1     2    1
     2     2     3   ar
     3     3     4   ar
     4     4     5   ar
     5     5     6    1
     6     6     7    1
     7     6     8    1
     8     5     9   ar
     9     9    10   ar
    10    10    11    1
    11    11    12   am
    12    12    13    2
    13    12    14    1
    14    14    15    1
    15    15    16   ar
    16    16    17    1
    17    17    18    1
    18    18    19   ar
    19    19    20    1
    20    19    21   ar
    21    21    22   ar
    22    22    23   ar
    23    23    24   ar
    24    24    25    1
    25    16    26   ar
    26    26    27   ar
    27    27    28   ar
    28    28    29   ar
    29    29    30   ar
    30    30    31   ar
    31    31    32   ar
    32    10     2   ar
    33    32    15   ar
    34    24    18   ar
    35    32    27   ar
    36     1    33    1
    37     1    34    1
    38     1    35    1
    39     3    36    1
    40     4    37    1
    41     6    38    1
    42     7    39    1
    43     7    40    1
    44     7    41    1
    45     8    42    1
    46     8    43    1
    47     8    44    1
    48     9    45    1
    49    11    46    1
    50    14    47    1
    51    14    48    1
    52    17    49    1
    53    17    50    1
    54    21    51    1
    55    22    52    1
    56    23    53    1
    57    28    54    1
    58    29    55    1
    59    30    56    1
    60    31    57    1
