@<TRIPOS>MOLECULE
*****
 54 57 0 0 0
SMALL
GASTEIGER

@<TRIPOS>ATOM
      1 C           5.8324    0.2298   -0.5757 C.3     1  UNL1       -0.0524
      2 C           4.3916    0.5533   -0.4033 C.3     1  UNL1       -0.0039
      3 N           3.5026   -0.4664   -0.9255 N.3     1  UNL1       -0.3012
      4 C           3.6315   -1.6442   -0.1129 C.3     1  UNL1       -0.0039
      5 C           2.7841   -2.8017   -0.4662 C.3     1  UNL1       -0.0524
      6 C           2.1511    0.0100   -1.0514 C.3     1  UNL1        0.0169
      7 C           1.4900    0.2494    0.2897 C.3     1  UNL1        0.0363
      8 N           0.1275    0.7177    0.1304 N.ar    1  UNL1       -0.3419
      9 C          -0.9681   -0.0896    0.0286 C.ar    1  UNL1        0.0293
     10 C          -2.0906    0.6685   -0.1038 C.ar    1  UNL1        0.0269
     11 C          -1.6788    1.9829   -0.0847 C.ar    1  UNL1        0.0212
     12 C          -2.4367    3.1158   -0.1863 C.ar    1  UNL1        0.0481
     13 C          -1.8044    4.3476   -0.1417 C.ar    1  UNL1       -0.0489
     14 C          -0.4296    4.3894    0.0036 C.ar    1  UNL1       -0.0591
     15 C           0.3162    3.2153    0.1046 C.ar    1  UNL1       -0.0375
     16 C          -0.3026    1.9792    0.0617 C.ar    1  UNL1        0.0507
     17 C          -3.8885    3.2326   -0.3469 C.2     1  UNL1        0.2639
     18 O          -4.3371    4.3478   -0.6413 O.2     1  UNL1       -0.2684
     19 N          -4.8129    2.1410   -0.1842 N.am    1  UNL1       -0.2027
     20 N          -4.5670    0.7539   -0.2658 N.2     1  UNL1       -0.1839
     21 C          -3.4318    0.1326   -0.2328 C.2     1  UNL1        0.0692
     22 C          -3.5364   -1.3501   -0.3414 C.3     1  UNL1       -0.0027
     23 C          -2.4252   -1.9949    0.4504 C.3     1  UNL1       -0.0241
     24 C          -2.5962   -3.5006    0.2692 C.3     1  UNL1       -0.0591
     25 C          -2.5815   -1.6907    1.9307 C.3     1  UNL1       -0.0591
     26 C          -1.0495   -1.5515    0.0317 C.3     1  UNL1       -0.0061
     27 H           5.9598   -0.6874   -1.1987 H       1  UNL1        0.0242
     28 H           6.3946    0.1490    0.3820 H       1  UNL1        0.0242
     29 H           6.3216    1.0540   -1.1318 H       1  UNL1        0.0242
     30 H           4.1935    0.8026    0.6504 H       1  UNL1        0.0424
     31 H           4.1622    1.4840   -0.9774 H       1  UNL1        0.0424
     32 H           3.5043   -1.3718    0.9777 H       1  UNL1        0.0424
     33 H           4.7057   -1.9686   -0.1917 H       1  UNL1        0.0424
     34 H           3.3729   -3.6881   -0.8497 H       1  UNL1        0.0242
     35 H           1.9659   -2.6444   -1.1671 H       1  UNL1        0.0242
     36 H           2.3074   -3.2114    0.4740 H       1  UNL1        0.0242
     37 H           2.2167    1.0192   -1.5374 H       1  UNL1        0.0444
     38 H           1.5240   -0.5998   -1.7258 H       1  UNL1        0.0444
     39 H           1.4202   -0.6958    0.8969 H       1  UNL1        0.0504
     40 H           2.0841    0.9399    0.9194 H       1  UNL1        0.0504
     41 H          -2.4112    5.2520   -0.2233 H       1  UNL1        0.0625
     42 H           0.0792    5.3514    0.0401 H       1  UNL1        0.0618
     43 H           1.3903    3.2209    0.2184 H       1  UNL1        0.0638
     44 H          -5.7921    2.4333    0.0214 H       1  UNL1        0.1776
     45 H          -4.4867   -1.7337    0.0397 H       1  UNL1        0.0334
     46 H          -3.3712   -1.5872   -1.4171 H       1  UNL1        0.0334
     47 H          -2.7743   -3.9959    1.2425 H       1  UNL1        0.0235
     48 H          -1.6795   -3.8888   -0.2236 H       1  UNL1        0.0235
     49 H          -3.4312   -3.7530   -0.4132 H       1  UNL1        0.0235
     50 H          -2.0797   -2.5196    2.4767 H       1  UNL1        0.0235
     51 H          -1.9886   -0.7691    2.1283 H       1  UNL1        0.0235
     52 H          -3.6415   -1.5855    2.2049 H       1  UNL1        0.0235
     53 H          -0.9124   -1.9495   -1.0202 H       1  UNL1        0.0333
     54 H          -0.3241   -2.0340    0.7207 H       1  UNL1        0.0333
@<TRIPOS>BOND
     1     1     2    1
     2     2     3    1
     3     3     4    1
     4     4     5    1
     5     3     6    1
     6     6     7    1
     7     7     8    1
     8     8     9   ar
     9     9    10   ar
    10    10    11   ar
    11    11    12   ar
    12    12    13   ar
    13    13    14   ar
    14    14    15   ar
    15    15    16   ar
    16    12    17    1
    17    17    18    2
    18    17    19   am
    19    19    20    1
    20    20    21    2
    21    21    22    1
    22    22    23    1
    23    23    24    1
    24    23    25    1
    25    23    26    1
    26    16     8   ar
    27    26     9    1
    28    21    10    1
    29    16    11   ar
    30     1    27    1
    31     1    28    1
    32     1    29    1
    33     2    30    1
    34     2    31    1
    35     4    32    1
    36     4    33    1
    37     5    34    1
    38     5    35    1
    39     5    36    1
    40     6    37    1
    41     6    38    1
    42     7    39    1
    43     7    40    1
    44    13    41    1
    45    14    42    1
    46    15    43    1
    47    19    44    1
    48    22    45    1
    49    22    46    1
    50    24    47    1
    51    24    48    1
    52    24    49    1
    53    25    50    1
    54    25    51    1
    55    25    52    1
    56    26    53    1
    57    26    54    1
