
     RDKit          3D

 54 57  0  0  0  0  0  0  0  0999 V2000
    5.8324    0.2298   -0.5757 C   0  0  0  0  0  0  0  0  0  0  0  0
    4.3916    0.5533   -0.4033 C   0  0  0  0  0  0  0  0  0  0  0  0
    3.5026   -0.4664   -0.9255 N   0  0  0  0  0  0  0  0  0  0  0  0
    3.6315   -1.6442   -0.1129 C   0  0  0  0  0  0  0  0  0  0  0  0
    2.7841   -2.8017   -0.4662 C   0  0  0  0  0  0  0  0  0  0  0  0
    2.1511    0.0100   -1.0514 C   0  0  0  0  0  0  0  0  0  0  0  0
    1.4900    0.2494    0.2897 C   0  0  0  0  0  0  0  0  0  0  0  0
    0.1275    0.7177    0.1304 N   0  0  0  0  0  0  0  0  0  0  0  0
   -0.9681   -0.0896    0.0286 C   0  0  0  0  0  0  0  0  0  0  0  0
   -2.0906    0.6685   -0.1038 C   0  0  0  0  0  0  0  0  0  0  0  0
   -1.6788    1.9829   -0.0847 C   0  0  0  0  0  0  0  0  0  0  0  0
   -2.4367    3.1158   -0.1863 C   0  0  0  0  0  0  0  0  0  0  0  0
   -1.8044    4.3476   -0.1417 C   0  0  0  0  0  0  0  0  0  0  0  0
   -0.4296    4.3894    0.0036 C   0  0  0  0  0  0  0  0  0  0  0  0
    0.3162    3.2153    0.1046 C   0  0  0  0  0  0  0  0  0  0  0  0
   -0.3026    1.9792    0.0617 C   0  0  0  0  0  0  0  0  0  0  0  0
   -3.8885    3.2326   -0.3469 C   0  0  0  0  0  0  0  0  0  0  0  0
   -4.3371    4.3478   -0.6413 O   0  0  0  0  0  0  0  0  0  0  0  0
   -4.8129    2.1410   -0.1842 N   0  0  0  0  0  0  0  0  0  0  0  0
   -4.5670    0.7539   -0.2658 N   0  0  0  0  0  0  0  0  0  0  0  0
   -3.4318    0.1326   -0.2328 C   0  0  0  0  0  0  0  0  0  0  0  0
   -3.5364   -1.3501   -0.3414 C   0  0  0  0  0  0  0  0  0  0  0  0
   -2.4252   -1.9949    0.4504 C   0  0  0  0  0  0  0  0  0  0  0  0
   -2.5962   -3.5006    0.2692 C   0  0  0  0  0  0  0  0  0  0  0  0
   -2.5815   -1.6907    1.9307 C   0  0  0  0  0  0  0  0  0  0  0  0
   -1.0495   -1.5515    0.0317 C   0  0  0  0  0  0  0  0  0  0  0  0
    5.9598   -0.6874   -1.1987 H   0  0  0  0  0  0  0  0  0  0  0  0
    6.3946    0.1490    0.3820 H   0  0  0  0  0  0  0  0  0  0  0  0
    6.3216    1.0540   -1.1318 H   0  0  0  0  0  0  0  0  0  0  0  0
    4.1935    0.8026    0.6504 H   0  0  0  0  0  0  0  0  0  0  0  0
    4.1622    1.4840   -0.9774 H   0  0  0  0  0  0  0  0  0  0  0  0
    3.5043   -1.3718    0.9777 H   0  0  0  0  0  0  0  0  0  0  0  0
    4.7057   -1.9686   -0.1917 H   0  0  0  0  0  0  0  0  0  0  0  0
    3.3729   -3.6881   -0.8497 H   0  0  0  0  0  0  0  0  0  0  0  0
    1.9659   -2.6444   -1.1671 H   0  0  0  0  0  0  0  0  0  0  0  0
    2.3074   -3.2114    0.4740 H   0  0  0  0  0  0  0  0  0  0  0  0
    2.2167    1.0192   -1.5374 H   0  0  0  0  0  0  0  0  0  0  0  0
    1.5240   -0.5998   -1.7258 H   0  0  0  0  0  0  0  0  0  0  0  0
    1.4202   -0.6958    0.8969 H   0  0  0  0  0  0  0  0  0  0  0  0
    2.0841    0.9399    0.9194 H   0  0  0  0  0  0  0  0  0  0  0  0
   -2.4112    5.2520   -0.2233 H   0  0  0  0  0  0  0  0  0  0  0  0
    0.0792    5.3514    0.0401 H   0  0  0  0  0  0  0  0  0  0  0  0
    1.3903    3.2209    0.2184 H   0  0  0  0  0  0  0  0  0  0  0  0
   -5.7921    2.4333    0.0214 H   0  0  0  0  0  0  0  0  0  0  0  0
   -4.4867   -1.7337    0.0397 H   0  0  0  0  0  0  0  0  0  0  0  0
   -3.3712   -1.5872   -1.4171 H   0  0  0  0  0  0  0  0  0  0  0  0
   -2.7743   -3.9959    1.2425 H   0  0  0  0  0  0  0  0  0  0  0  0
   -1.6795   -3.8888   -0.2236 H   0  0  0  0  0  0  0  0  0  0  0  0
   -3.4312   -3.7530   -0.4132 H   0  0  0  0  0  0  0  0  0  0  0  0
   -2.0797   -2.5196    2.4767 H   0  0  0  0  0  0  0  0  0  0  0  0
   -1.9886   -0.7691    2.1283 H   0  0  0  0  0  0  0  0  0  0  0  0
   -3.6415   -1.5855    2.2049 H   0  0  0  0  0  0  0  0  0  0  0  0
   -0.9124   -1.9495   -1.0202 H   0  0  0  0  0  0  0  0  0  0  0  0
   -0.3241   -2.0340    0.7207 H   0  0  0  0  0  0  0  0  0  0  0  0
  1  2  1  0
  2  3  1  0
  3  4  1  0
  4  5  1  0
  3  6  1  0
  6  7  1  0
  7  8  1  0
  8  9  1  0
  9 10  2  0
 10 11  1  0
 11 12  2  0
 12 13  1  0
 13 14  2  0
 14 15  1  0
 15 16  2  0
 12 17  1  0
 17 18  2  0
 17 19  1  0
 19 20  1  0
 20 21  2  0
 21 22  1  0
 22 23  1  0
 23 24  1  0
 23 25  1  0
 23 26  1  0
 16  8  1  0
 26  9  1  0
 21 10  1  0
 16 11  1  0
  1 27  1  0
  1 28  1  0
  1 29  1  0
  2 30  1  0
  2 31  1  0
  4 32  1  0
  4 33  1  0
  5 34  1  0
  5 35  1  0
  5 36  1  0
  6 37  1  0
  6 38  1  0
  7 39  1  0
  7 40  1  0
 13 41  1  0
 14 42  1  0
 15 43  1  0
 19 44  1  0
 22 45  1  0
 22 46  1  0
 24 47  1  0
 24 48  1  0
 24 49  1  0
 25 50  1  0
 25 51  1  0
 25 52  1  0
 26 53  1  0
 26 54  1  0
M  END
$$$$
