@<TRIPOS>MOLECULE
*****
 44 46 0 0 0
SMALL
GASTEIGER

@<TRIPOS>ATOM
      1 O           5.1503    1.8663   -2.0890 O.3     1  UNL1       -0.4783
      2 C           5.4888    1.7068   -0.7538 C.2     1  UNL1        0.3427
      3 O           6.5436    1.8463   -1.4634 O.2     1  UNL1       -0.2472
      4 C           5.8708    1.5359    0.6842 C.3     1  UNL1        0.1858
      5 O           4.7731    1.3817    1.5256 O.3     1  UNL1       -0.4783
      6 C           3.8170    0.3884    1.4767 C.ar    1  UNL1        0.1569
      7 C           4.1399   -0.7473    2.2711 C.ar    1  UNL1        0.1393
      8 S           2.7295   -1.8821    2.0223 S.2     1  UNL1       -0.0770
      9 C           1.8213   -0.7416    0.8737 C.ar    1  UNL1        0.0377
     10 C           2.6363    0.3524    0.7858 C.ar    1  UNL1        0.0751
     11 BR          2.1719    1.8608   -0.2882 Br      1  UNL1       -0.0453
     12 C           0.5858   -1.1664    0.3553 C.ar    1  UNL1       -0.0084
     13 C           0.0760   -2.4209    0.7110 C.ar    1  UNL1       -0.0534
     14 C          -1.1445   -2.9052    0.2330 C.ar    1  UNL1       -0.0594
     15 C          -1.8624   -2.1238   -0.6109 C.ar    1  UNL1       -0.0408
     16 C          -1.4367   -0.8910   -1.0052 C.ar    1  UNL1        0.0280
     17 N          -2.1368   -0.0251   -1.8692 N.pl3   1  UNL1       -0.3397
     18 C          -3.4110   -0.1142   -2.5322 C.3     1  UNL1        0.0344
     19 C          -4.5399   -0.0877   -1.5720 C.ar    1  UNL1       -0.0304
     20 C          -5.3118   -1.0494   -0.9619 C.ar    1  UNL1       -0.0571
     21 C          -6.2979   -0.7388   -0.0785 C.ar    1  UNL1       -0.0615
     22 C          -6.6000    0.5547    0.2724 C.ar    1  UNL1       -0.0617
     23 C          -5.8481    1.5522   -0.3187 C.ar    1  UNL1       -0.0615
     24 C          -4.8569    1.2313   -1.2069 C.ar    1  UNL1       -0.0571
     25 C          -0.2393   -0.4896   -0.4976 C.ar    1  UNL1       -0.0326
     26 C           5.2540   -1.0716    3.1206 C.2     1  UNL1        0.3471
     27 O           5.2769   -2.2916    3.7708 O.3     1  UNL1       -0.4767
     28 O           6.1786   -0.2459    3.2547 O.2     1  UNL1       -0.2444
     29 H           4.3373    1.3425   -2.4416 H       1  UNL1        0.2952
     30 H           6.6804    0.8158    0.7873 H       1  UNL1        0.0815
     31 H           6.3293    2.5316    0.9578 H       1  UNL1        0.0815
     32 H           0.5702   -3.1373    1.3861 H       1  UNL1        0.0624
     33 H          -1.5211   -3.8754    0.5188 H       1  UNL1        0.0618
     34 H          -2.7868   -2.5066   -0.9740 H       1  UNL1        0.0636
     35 H          -1.6831    0.9057   -2.1223 H       1  UNL1        0.1464
     36 H          -3.4589   -1.0964   -3.1207 H       1  UNL1        0.0511
     37 H          -3.5746    0.6546   -3.3032 H       1  UNL1        0.0511
     38 H          -5.0338   -2.0383   -1.2884 H       1  UNL1        0.0621
     39 H          -6.8081   -1.6056    0.3099 H       1  UNL1        0.0618
     40 H          -7.4084    0.6374    0.9852 H       1  UNL1        0.0618
     41 H          -6.1149    2.5539   -0.0186 H       1  UNL1        0.0618
     42 H          -4.3587    2.1300   -1.5827 H       1  UNL1        0.0621
     43 H           0.1370    0.4767   -0.7814 H       1  UNL1        0.0642
     44 H           5.8658   -2.4645    4.5779 H       1  UNL1        0.2954
@<TRIPOS>BOND
     1     1     2    1
     2     2     3    2
     3     2     4    1
     4     4     5    1
     5     5     6    1
     6     6     7   ar
     7     7     8   ar
     8     8     9   ar
     9     9    10   ar
    10    10    11    1
    11     9    12    1
    12    12    13   ar
    13    13    14   ar
    14    14    15   ar
    15    15    16   ar
    16    16    17    1
    17    17    18    1
    18    18    19    1
    19    19    20   ar
    20    20    21   ar
    21    21    22   ar
    22    22    23   ar
    23    23    24   ar
    24    16    25   ar
    25     7    26    1
    26    26    27    1
    27    26    28    2
    28    10     6   ar
    29    25    12   ar
    30    24    19   ar
    31     1    29    1
    32     4    30    1
    33     4    31    1
    34    13    32    1
    35    14    33    1
    36    15    34    1
    37    17    35    1
    38    18    36    1
    39    18    37    1
    40    20    38    1
    41    21    39    1
    42    22    40    1
    43    23    41    1
    44    24    42    1
    45    25    43    1
    46    27    44    1
