
     RDKit          3D

 44 46  0  0  0  0  0  0  0  0999 V2000
    5.1503    1.8663   -2.0890 O   0  0  0  0  0  0  0  0  0  0  0  0
    5.4888    1.7068   -0.7538 C   0  0  0  0  0  0  0  0  0  0  0  0
    6.5436    1.8463   -1.4634 O   0  0  0  0  0  0  0  0  0  0  0  0
    5.8708    1.5359    0.6842 C   0  0  0  0  0  0  0  0  0  0  0  0
    4.7731    1.3817    1.5256 O   0  0  0  0  0  0  0  0  0  0  0  0
    3.8170    0.3884    1.4767 C   0  0  0  0  0  0  0  0  0  0  0  0
    4.1399   -0.7473    2.2711 C   0  0  0  0  0  0  0  0  0  0  0  0
    2.7295   -1.8821    2.0223 S   0  0  0  0  0  0  0  0  0  0  0  0
    1.8213   -0.7416    0.8737 C   0  0  0  0  0  0  0  0  0  0  0  0
    2.6363    0.3524    0.7858 C   0  0  0  0  0  0  0  0  0  0  0  0
    2.1719    1.8608   -0.2882 Br  0  0  0  0  0  0  0  0  0  0  0  0
    0.5858   -1.1664    0.3553 C   0  0  0  0  0  0  0  0  0  0  0  0
    0.0760   -2.4209    0.7110 C   0  0  0  0  0  0  0  0  0  0  0  0
   -1.1445   -2.9052    0.2330 C   0  0  0  0  0  0  0  0  0  0  0  0
   -1.8624   -2.1238   -0.6109 C   0  0  0  0  0  0  0  0  0  0  0  0
   -1.4367   -0.8910   -1.0052 C   0  0  0  0  0  0  0  0  0  0  0  0
   -2.1368   -0.0251   -1.8692 N   0  0  0  0  0  0  0  0  0  0  0  0
   -3.4110   -0.1142   -2.5322 C   0  0  0  0  0  0  0  0  0  0  0  0
   -4.5399   -0.0877   -1.5720 C   0  0  0  0  0  0  0  0  0  0  0  0
   -5.3118   -1.0494   -0.9619 C   0  0  0  0  0  0  0  0  0  0  0  0
   -6.2979   -0.7388   -0.0785 C   0  0  0  0  0  0  0  0  0  0  0  0
   -6.6000    0.5547    0.2724 C   0  0  0  0  0  0  0  0  0  0  0  0
   -5.8481    1.5522   -0.3187 C   0  0  0  0  0  0  0  0  0  0  0  0
   -4.8569    1.2313   -1.2069 C   0  0  0  0  0  0  0  0  0  0  0  0
   -0.2393   -0.4896   -0.4976 C   0  0  0  0  0  0  0  0  0  0  0  0
    5.2540   -1.0716    3.1206 C   0  0  0  0  0  0  0  0  0  0  0  0
    5.2769   -2.2916    3.7708 O   0  0  0  0  0  0  0  0  0  0  0  0
    6.1786   -0.2459    3.2547 O   0  0  0  0  0  0  0  0  0  0  0  0
    4.3373    1.3425   -2.4416 H   0  0  0  0  0  0  0  0  0  0  0  0
    6.6804    0.8158    0.7873 H   0  0  0  0  0  0  0  0  0  0  0  0
    6.3293    2.5316    0.9578 H   0  0  0  0  0  0  0  0  0  0  0  0
    0.5702   -3.1373    1.3861 H   0  0  0  0  0  0  0  0  0  0  0  0
   -1.5211   -3.8754    0.5188 H   0  0  0  0  0  0  0  0  0  0  0  0
   -2.7868   -2.5066   -0.9740 H   0  0  0  0  0  0  0  0  0  0  0  0
   -1.6831    0.9057   -2.1223 H   0  0  0  0  0  0  0  0  0  0  0  0
   -3.4589   -1.0964   -3.1207 H   0  0  0  0  0  0  0  0  0  0  0  0
   -3.5746    0.6546   -3.3032 H   0  0  0  0  0  0  0  0  0  0  0  0
   -5.0338   -2.0383   -1.2884 H   0  0  0  0  0  0  0  0  0  0  0  0
   -6.8081   -1.6056    0.3099 H   0  0  0  0  0  0  0  0  0  0  0  0
   -7.4084    0.6374    0.9852 H   0  0  0  0  0  0  0  0  0  0  0  0
   -6.1149    2.5539   -0.0186 H   0  0  0  0  0  0  0  0  0  0  0  0
   -4.3587    2.1300   -1.5827 H   0  0  0  0  0  0  0  0  0  0  0  0
    0.1370    0.4767   -0.7814 H   0  0  0  0  0  0  0  0  0  0  0  0
    5.8658   -2.4645    4.5779 H   0  0  0  0  0  0  0  0  0  0  0  0
  1  2  1  0
  2  3  2  0
  2  4  1  0
  4  5  1  0
  5  6  1  0
  6  7  2  0
  7  8  1  0
  8  9  1  0
  9 10  2  0
 10 11  1  0
  9 12  1  0
 12 13  2  0
 13 14  1  0
 14 15  2  0
 15 16  1  0
 16 17  1  0
 17 18  1  0
 18 19  1  0
 19 20  2  0
 20 21  1  0
 21 22  2  0
 22 23  1  0
 23 24  2  0
 16 25  2  0
  7 26  1  0
 26 27  1  0
 26 28  2  0
 10  6  1  0
 25 12  1  0
 24 19  1  0
  1 29  1  0
  4 30  1  0
  4 31  1  0
 13 32  1  0
 14 33  1  0
 15 34  1  0
 17 35  1  0
 18 36  1  0
 18 37  1  0
 20 38  1  0
 21 39  1  0
 22 40  1  0
 23 41  1  0
 24 42  1  0
 25 43  1  0
 27 44  1  0
M  END
$$$$
