
     RDKit          3D

 95 98  0  0  0  0  0  0  0  0999 V2000
    8.5367    2.5760   -1.9211 C   0  0  0  0  0  0  0  0  0  0  0  0
    8.2204    1.5766   -2.7932 O   0  0  0  0  0  0  0  0  0  0  0  0
    7.2689    0.6669   -2.3553 C   0  0  0  0  0  0  0  0  0  0  0  0
    5.9305    1.2925   -2.0667 C   0  0  0  0  0  0  0  0  0  0  0  0
    5.0021    0.3907   -1.6288 O   0  0  0  0  0  0  0  0  0  0  0  0
    4.9936   -0.3077   -0.4532 C   0  0  0  0  0  0  0  0  0  0  0  0
    5.9895   -0.0943    0.4676 C   0  0  0  0  0  0  0  0  0  0  0  0
    6.0584   -0.7551    1.6804 C   0  0  0  0  0  0  0  0  0  0  0  0
    5.0784   -1.6661    1.9711 C   0  0  0  0  0  0  0  0  0  0  0  0
    4.0702   -1.8900    1.0576 C   0  0  0  0  0  0  0  0  0  0  0  0
    3.9856   -1.2362   -0.1648 C   0  0  0  0  0  0  0  0  0  0  0  0
    2.9400   -1.4495   -1.0629 N   0  0  0  0  0  0  0  0  0  0  0  0
    2.2773   -2.7734   -1.0651 C   0  0  0  0  0  0  0  0  0  0  0  0
    0.7916   -2.5986   -0.9915 C   0  0  0  0  0  0  0  0  0  0  0  0
    0.4225   -1.2394   -0.5799 N   0  0  0  0  0  0  0  0  0  0  0  0
   -0.4023   -1.1016    0.5473 C   0  0  0  0  0  0  0  0  0  0  0  0
   -0.7132   -2.1997    1.1483 O   0  0  0  0  0  0  0  0  0  0  0  0
   -0.9676    0.0857    1.1570 C   0  0  2  0  0  0  0  0  0  0  0  0
   -0.5778    1.2321    0.3859 O   0  0  0  0  0  0  0  0  0  0  0  0
   -0.7372    2.5267    0.6873 C   0  0  0  0  0  0  0  0  0  0  0  0
    0.3393    3.1566    1.3355 C   0  0  0  0  0  0  0  0  0  0  0  0
    0.3108    4.4775    1.7052 C   0  0  0  0  0  0  0  0  0  0  0  0
   -0.8225    5.2294    1.4310 C   0  0  0  0  0  0  0  0  0  0  0  0
   -0.8601    6.6750    1.8336 C   0  0  0  0  0  0  0  0  0  0  0  0
   -0.6216    7.4226    0.7123 F   0  0  0  0  0  0  0  0  0  0  0  0
   -2.0976    6.9178    2.3863 F   0  0  0  0  0  0  0  0  0  0  0  0
    0.0990    6.9088    2.8131 F   0  0  0  0  0  0  0  0  0  0  0  0
   -1.8973    4.6531    0.7988 C   0  0  0  0  0  0  0  0  0  0  0  0
   -1.8131    3.2999    0.4445 C   0  0  0  0  0  0  0  0  0  0  0  0
   -0.7893    0.3129    2.5888 C   0  0  0  0  0  0  0  0  0  0  0  0
   -2.0428    0.2817    3.4357 C   0  0  0  0  0  0  0  0  0  0  0  0
   -2.9348   -0.8208    3.0720 C   0  0  0  0  0  0  0  0  0  0  0  0
   -3.0023   -1.0450    1.5704 N   0  0  0  0  0  0  0  0  0  0  0  0
   -3.4052   -2.3472    1.2984 C   0  0  0  0  0  0  0  0  0  0  0  0
   -3.4619   -3.1835    2.3409 O   0  0  0  0  0  0  0  0  0  0  0  0
   -3.8066   -3.0752    0.1201 C   0  0  0  0  0  0  0  0  0  0  0  0
   -3.0373   -3.3465   -0.9753 C   0  0  0  0  0  0  0  0  0  0  0  0
   -3.5639   -3.9318   -2.0525 N   0  0  0  0  0  0  0  0  0  0  0  0
   -4.8500   -4.2852   -2.1315 C   0  0  0  0  0  0  0  0  0  0  0  0
   -5.6529   -4.0291   -1.0431 C   0  0  0  0  0  0  0  0  0  0  0  0
   -5.1785   -3.4307    0.1039 C   0  0  0  0  0  0  0  0  0  0  0  0
   -6.0332   -3.3315    1.3169 C   0  0  0  0  0  0  0  0  0  0  0  0
   -6.1055   -2.1579    1.9487 F   0  0  0  0  0  0  0  0  0  0  0  0
   -5.7308   -4.3242    2.2395 F   0  0  0  0  0  0  0  0  0  0  0  0
   -7.3294   -3.7053    0.8698 F   0  0  0  0  0  0  0  0  0  0  0  0
   -2.5458    0.0960    0.8658 C   0  0  2  0  0  0  0  0  0  0  0  0
   -2.6213    0.1469   -0.6036 C   0  0  0  0  0  0  0  0  0  0  0  0
   -3.8219    0.3613   -1.3862 C   0  0  0  0  0  0  0  0  0  0  0  0
   -3.4885    0.2596   -2.7830 O   0  0  0  0  0  0  0  0  0  0  0  0
   -5.1251   -0.2341   -1.1370 C   0  0  0  0  0  0  0  0  0  0  0  0
   -5.5654   -0.1086    0.1720 O   0  0  0  0  0  0  0  0  0  0  0  0
    0.9776   -0.1519   -1.3619 C   0  0  0  0  0  0  0  0  0  0  0  0
    2.3347   -0.5418   -2.0011 C   0  0  0  0  0  0  0  0  0  0  0  0
    0.6919    0.0000    0.0000 Cl  0  0  0  0  0  0  0  0  0  0  0  0
    7.6827    3.2016   -1.6636 H   0  0  0  0  0  0  0  0  0  0  0  0
    9.2911    3.2322   -2.4331 H   0  0  0  0  0  0  0  0  0  0  0  0
    9.0716    2.1959   -1.0132 H   0  0  0  0  0  0  0  0  0  0  0  0
    7.1117   -0.0348   -3.2541 H   0  0  0  0  0  0  0  0  0  0  0  0
    7.6835    0.0262   -1.5866 H   0  0  0  0  0  0  0  0  0  0  0  0
    5.6011    1.7526   -3.0366 H   0  0  0  0  0  0  0  0  0  0  0  0
    6.0401    2.1470   -1.3476 H   0  0  0  0  0  0  0  0  0  0  0  0
    6.7688    0.6455    0.2998 H   0  0  0  0  0  0  0  0  0  0  0  0
    6.8442   -0.5879    2.4072 H   0  0  0  0  0  0  0  0  0  0  0  0
    5.1118   -2.2047    2.9290 H   0  0  0  0  0  0  0  0  0  0  0  0
    3.3344   -2.6024    1.3441 H   0  0  0  0  0  0  0  0  0  0  0  0
    2.6436   -3.4239   -0.2816 H   0  0  0  0  0  0  0  0  0  0  0  0
    2.5196   -3.2637   -2.0485 H   0  0  0  0  0  0  0  0  0  0  0  0
    0.3617   -2.8342   -1.9863 H   0  0  0  0  0  0  0  0  0  0  0  0
    0.3066   -3.2945   -0.2891 H   0  0  0  0  0  0  0  0  0  0  0  0
    1.2492    2.5909    1.5614 H   0  0  0  0  0  0  0  0  0  0  0  0
    1.1375    4.9654    2.2041 H   0  0  0  0  0  0  0  0  0  0  0  0
   -2.7878    5.2231    0.5776 H   0  0  0  0  0  0  0  0  0  0  0  0
   -2.7269    2.9414   -0.0534 H   0  0  0  0  0  0  0  0  0  0  0  0
   -0.4081    1.3733    2.7381 H   0  0  0  0  0  0  0  0  0  0  0  0
    0.0396   -0.2893    3.0547 H   0  0  0  0  0  0  0  0  0  0  0  0
   -2.5914    1.2502    3.4210 H   0  0  0  0  0  0  0  0  0  0  0  0
   -1.6970    0.1300    4.4801 H   0  0  0  0  0  0  0  0  0  0  0  0
   -2.7231   -1.7622    3.5856 H   0  0  0  0  0  0  0  0  0  0  0  0
   -4.0003   -0.5460    3.3073 H   0  0  0  0  0  0  0  0  0  0  0  0
   -1.9912   -3.0894   -0.9590 H   0  0  0  0  0  0  0  0  0  0  0  0
   -5.2372   -4.7635   -3.0438 H   0  0  0  0  0  0  0  0  0  0  0  0
   -6.7026   -4.3114   -1.0955 H   0  0  0  0  0  0  0  0  0  0  0  0
   -2.9128    1.0187    1.3224 H   0  0  0  0  0  0  0  0  0  0  0  0
   -2.0148   -0.7590   -0.9703 H   0  0  0  0  0  0  0  0  0  0  0  0
   -1.8777    0.9599   -0.9482 H   0  0  0  0  0  0  0  0  0  0  0  0
   -4.0612    1.5324   -1.3860 H   0  0  0  0  0  0  0  0  0  0  0  0
   -4.1885   -0.2955   -3.2213 H   0  0  0  0  0  0  0  0  0  0  0  0
   -5.8893    0.3940   -1.7284 H   0  0  0  0  0  0  0  0  0  0  0  0
   -5.2862   -1.2384   -1.5831 H   0  0  0  0  0  0  0  0  0  0  0  0
   -6.3967    0.3909    0.2802 H   0  0  0  0  0  0  0  0  0  0  0  0
    1.3024    0.6415   -0.6208 H   0  0  0  0  0  0  0  0  0  0  0  0
    0.3553    0.2115   -2.1679 H   0  0  0  0  0  0  0  0  0  0  0  0
    2.8929    0.3632   -2.1254 H   0  0  0  0  0  0  0  0  0  0  0  0
    2.1194   -1.0714   -2.9613 H   0  0  0  0  0  0  0  0  0  0  0  0
   -0.6919    0.0000    0.0000 H   0  0  0  0  0  0  0  0  0  0  0  0
  1  2  1  0
  2  3  1  0
  3  4  1  0
  4  5  1  0
  5  6  1  0
  6  7  2  0
  7  8  1  0
  8  9  2  0
  9 10  1  0
 10 11  2  0
 11 12  1  0
 12 13  1  0
 13 14  1  0
 14 15  1  0
 15 16  1  0
 16 17  2  0
 16 18  1  0
 18 19  1  6
 19 20  1  0
 20 21  2  0
 21 22  1  0
 22 23  2  0
 23 24  1  0
 24 25  1  0
 24 26  1  0
 24 27  1  0
 23 28  1  0
 28 29  2  0
 18 30  1  0
 30 31  1  0
 31 32  1  0
 32 33  1  0
 33 34  1  0
 34 35  2  0
 34 36  1  0
 36 37  2  0
 37 38  1  0
 38 39  2  0
 39 40  1  0
 40 41  2  0
 41 42  1  0
 42 43  1  0
 42 44  1  0
 42 45  1  0
 33 46  1  0
 46 47  1  0
 47 48  1  0
 48 49  1  0
 48 50  1  0
 50 51  1  0
 15 52  1  0
 52 53  1  0
 11  6  1  0
 53 12  1  0
 46 18  1  0
 29 20  1  0
 41 36  1  0
  1 55  1  0
  1 56  1  0
  1 57  1  0
  3 58  1  0
  3 59  1  0
  4 60  1  0
  4 61  1  0
  7 62  1  0
  8 63  1  0
  9 64  1  0
 10 65  1  0
 13 66  1  0
 13 67  1  0
 14 68  1  0
 14 69  1  0
 21 70  1  0
 22 71  1  0
 28 72  1  0
 29 73  1  0
 30 74  1  0
 30 75  1  0
 31 76  1  0
 31 77  1  0
 32 78  1  0
 32 79  1  0
 37 80  1  0
 39 81  1  0
 40 82  1  0
 46 83  1  1
 47 84  1  0
 47 85  1  0
 48 86  1  0
 49 87  1  0
 50 88  1  0
 50 89  1  0
 51 90  1  0
 52 91  1  0
 52 92  1  0
 53 93  1  0
 53 94  1  0
 54 95  1  0
M  END
$$$$
