@<TRIPOS>MOLECULE
*****
 95 98 0 0 0
SMALL
GASTEIGER

@<TRIPOS>ATOM
      1 C           8.5367    2.5760   -1.9211 C.3     1  UNL1        0.0366
      2 O           8.2204    1.5766   -2.7932 O.3     1  UNL1       -0.3796
      3 C           7.2689    0.6669   -2.3553 C.3     1  UNL1        0.0814
      4 C           5.9305    1.2925   -2.0667 C.3     1  UNL1        0.1129
      5 O           5.0021    0.3907   -1.6288 O.3     1  UNL1       -0.4878
      6 C           4.9936   -0.3077   -0.4532 C.ar    1  UNL1        0.1415
      7 C           5.9895   -0.0943    0.4676 C.ar    1  UNL1       -0.0181
      8 C           6.0584   -0.7551    1.6804 C.ar    1  UNL1       -0.0582
      9 C           5.0784   -1.6661    1.9711 C.ar    1  UNL1       -0.0598
     10 C           4.0702   -1.8900    1.0576 C.ar    1  UNL1       -0.0371
     11 C           3.9856   -1.2362   -0.1648 C.ar    1  UNL1        0.0720
     12 N           2.9400   -1.4495   -1.0629 N.pl3   1  UNL1       -0.3241
     13 C           2.2773   -2.7734   -1.0651 C.3     1  UNL1        0.0281
     14 C           0.7916   -2.5986   -0.9915 C.3     1  UNL1        0.0306
     15 N           0.4225   -1.2394   -0.5799 N.am    1  UNL1       -0.2952
     16 C          -0.4023   -1.1016    0.5473 C.2     1  UNL1        0.2614
     17 O          -0.7132   -2.1997    1.1483 O.2     1  UNL1       -0.2711
     18 C          -0.9676    0.0857    1.1570 C.3     1  UNL1        0.2039
     19 O          -0.5778    1.2321    0.3859 O.3     1  UNL1       -0.4746
     20 C          -0.7372    2.5267    0.6873 C.ar    1  UNL1        0.1221
     21 C           0.3393    3.1566    1.3355 C.ar    1  UNL1       -0.0194
     22 C           0.3108    4.4775    1.7052 C.ar    1  UNL1       -0.0467
     23 C          -0.8225    5.2294    1.4310 C.ar    1  UNL1        0.0550
     24 C          -0.8601    6.6750    1.8336 C.3     1  UNL1        0.4174
     25 F          -0.6216    7.4226    0.7123 F       1  UNL1       -0.1659
     26 F          -2.0976    6.9178    2.3863 F       1  UNL1       -0.1659
     27 F           0.0990    6.9088    2.8131 F       1  UNL1       -0.1659
     28 C          -1.8973    4.6531    0.7988 C.ar    1  UNL1       -0.0467
     29 C          -1.8131    3.2999    0.4445 C.ar    1  UNL1       -0.0194
     30 C          -0.7893    0.3129    2.5888 C.3     1  UNL1       -0.0009
     31 C          -2.0428    0.2817    3.4357 C.3     1  UNL1       -0.0330
     32 C          -2.9348   -0.8208    3.0720 C.3     1  UNL1        0.0156
     33 N          -3.0023   -1.0450    1.5704 N.am    1  UNL1       -0.2900
     34 C          -3.4052   -2.3472    1.2984 C.2     1  UNL1        0.2490
     35 O          -3.4619   -3.1835    2.3409 O.2     1  UNL1       -0.2699
     36 C          -3.8066   -3.0752    0.1201 C.ar    1  UNL1        0.0666
     37 C          -3.0373   -3.3465   -0.9753 C.ar    1  UNL1        0.0402
     38 N          -3.5639   -3.9318   -2.0525 N.ar    1  UNL1       -0.2625
     39 C          -4.8500   -4.2852   -2.1315 C.ar    1  UNL1        0.0281
     40 C          -5.6529   -4.0291   -1.0431 C.ar    1  UNL1       -0.0312
     41 C          -5.1785   -3.4307    0.1039 C.ar    1  UNL1        0.0698
     42 C          -6.0332   -3.3315    1.3169 C.3     1  UNL1        0.4182
     43 F          -6.1055   -2.1579    1.9487 F       1  UNL1       -0.1659
     44 F          -5.7308   -4.3242    2.2395 F       1  UNL1       -0.1659
     45 F          -7.3294   -3.7053    0.8698 F       1  UNL1       -0.1659
     46 C          -2.5458    0.0960    0.8658 C.3     1  UNL1        0.0770
     47 C          -2.6213    0.1469   -0.6036 C.3     1  UNL1       -0.0018
     48 C          -3.8219    0.3613   -1.3862 C.3     1  UNL1        0.0801
     49 O          -3.4885    0.2596   -2.7830 O.3     1  UNL1       -0.3895
     50 C          -5.1251   -0.2341   -1.1370 C.3     1  UNL1        0.0702
     51 O          -5.5654   -0.1086    0.1720 O.3     1  UNL1       -0.3925
     52 C           0.9776   -0.1519   -1.3619 C.3     1  UNL1        0.0306
     53 C           2.3347   -0.5418   -2.0011 C.3     1  UNL1        0.0281
     54 CL          0.6919    0.0000    0.0000 Cl      2  UNL2       -0.1454
     55 H           7.6827    3.2016   -1.6636 H       1  UNL1        0.0524
     56 H           9.2911    3.2322   -2.4331 H       1  UNL1        0.0524
     57 H           9.0716    2.1959   -1.0132 H       1  UNL1        0.0524
     58 H           7.1117   -0.0348   -3.2541 H       1  UNL1        0.0593
     59 H           7.6835    0.0262   -1.5866 H       1  UNL1        0.0593
     60 H           5.6011    1.7526   -3.0366 H       1  UNL1        0.0720
     61 H           6.0401    2.1470   -1.3476 H       1  UNL1        0.0720
     62 H           6.7688    0.6455    0.2998 H       1  UNL1        0.0655
     63 H           6.8442   -0.5879    2.4072 H       1  UNL1        0.0619
     64 H           5.1118   -2.2047    2.9290 H       1  UNL1        0.0618
     65 H           3.3344   -2.6024    1.3441 H       1  UNL1        0.0637
     66 H           2.6436   -3.4239   -0.2816 H       1  UNL1        0.0479
     67 H           2.5196   -3.2637   -2.0485 H       1  UNL1        0.0479
     68 H           0.3617   -2.8342   -1.9863 H       1  UNL1        0.0480
     69 H           0.3066   -3.2945   -0.2891 H       1  UNL1        0.0480
     70 H           1.2492    2.5909    1.5614 H       1  UNL1        0.0654
     71 H           1.1375    4.9654    2.2041 H       1  UNL1        0.0624
     72 H          -2.7878    5.2231    0.5776 H       1  UNL1        0.0624
     73 H          -2.7269    2.9414   -0.0534 H       1  UNL1        0.0654
     74 H          -0.4081    1.3733    2.7381 H       1  UNL1        0.0310
     75 H           0.0396   -0.2893    3.0547 H       1  UNL1        0.0310
     76 H          -2.5914    1.2502    3.4210 H       1  UNL1        0.0282
     77 H          -1.6970    0.1300    4.4801 H       1  UNL1        0.0282
     78 H          -2.7231   -1.7622    3.5856 H       1  UNL1        0.0465
     79 H          -4.0003   -0.5460    3.3073 H       1  UNL1        0.0465
     80 H          -1.9912   -3.0894   -0.9590 H       1  UNL1        0.0837
     81 H          -5.2372   -4.7635   -3.0438 H       1  UNL1        0.0829
     82 H          -6.7026   -4.3114   -1.0955 H       1  UNL1        0.0638
     83 H          -2.9128    1.0187    1.3224 H       1  UNL1        0.0546
     84 H          -2.0148   -0.7590   -0.9703 H       1  UNL1        0.0310
     85 H          -1.8777    0.9599   -0.9482 H       1  UNL1        0.0310
     86 H          -4.0612    1.5324   -1.3860 H       1  UNL1        0.0617
     87 H          -4.1885   -0.2955   -3.2213 H       1  UNL1        0.2099
     88 H          -5.8893    0.3940   -1.7284 H       1  UNL1        0.0583
     89 H          -5.2862   -1.2384   -1.5831 H       1  UNL1        0.0583
     90 H          -6.3967    0.3909    0.2802 H       1  UNL1        0.2095
     91 H           1.3024    0.6415   -0.6208 H       1  UNL1        0.0480
     92 H           0.3553    0.2115   -2.1679 H       1  UNL1        0.0480
     93 H           2.8929    0.3632   -2.1254 H       1  UNL1        0.0479
     94 H           2.1194   -1.0714   -2.9613 H       1  UNL1        0.0479
     95 H          -0.6919    0.0000    0.0000 H       1  UNL1        0.1454
@<TRIPOS>BOND
     1     1     2    1
     2     2     3    1
     3     3     4    1
     4     4     5    1
     5     5     6    1
     6     6     7   ar
     7     7     8   ar
     8     8     9   ar
     9     9    10   ar
    10    10    11   ar
    11    11    12    1
    12    12    13    1
    13    13    14    1
    14    14    15    1
    15    15    16   am
    16    16    17    2
    17    16    18    1
    18    18    19    1
    19    19    20    1
    20    20    21   ar
    21    21    22   ar
    22    22    23   ar
    23    23    24    1
    24    24    25    1
    25    24    26    1
    26    24    27    1
    27    23    28   ar
    28    28    29   ar
    29    18    30    1
    30    30    31    1
    31    31    32    1
    32    32    33    1
    33    33    34   am
    34    34    35    2
    35    34    36    1
    36    36    37   ar
    37    37    38   ar
    38    38    39   ar
    39    39    40   ar
    40    40    41   ar
    41    41    42    1
    42    42    43    1
    43    42    44    1
    44    42    45    1
    45    33    46    1
    46    46    47    1
    47    47    48    1
    48    48    49    1
    49    48    50    1
    50    50    51    1
    51    15    52    1
    52    52    53    1
    53    11     6   ar
    54    53    12    1
    55    46    18    1
    56    29    20   ar
    57    41    36   ar
    58     1    55    1
    59     1    56    1
    60     1    57    1
    61     3    58    1
    62     3    59    1
    63     4    60    1
    64     4    61    1
    65     7    62    1
    66     8    63    1
    67     9    64    1
    68    10    65    1
    69    13    66    1
    70    13    67    1
    71    14    68    1
    72    14    69    1
    73    21    70    1
    74    22    71    1
    75    28    72    1
    76    29    73    1
    77    30    74    1
    78    30    75    1
    79    31    76    1
    80    31    77    1
    81    32    78    1
    82    32    79    1
    83    37    80    1
    84    39    81    1
    85    40    82    1
    86    46    83    1
    87    47    84    1
    88    47    85    1
    89    48    86    1
    90    49    87    1
    91    50    88    1
    92    50    89    1
    93    51    90    1
    94    52    91    1
    95    52    92    1
    96    53    93    1
    97    53    94    1
    98    54    95    1
