@<TRIPOS>MOLECULE
*****
 56 61 0 0 0
SMALL
GASTEIGER

@<TRIPOS>ATOM
      1 C          -5.3116    0.8075    1.9882 C.3     1  UNL1        0.0369
      2 O          -4.9515    1.4972    0.8576 O.3     1  UNL1       -0.3768
      3 C          -3.5884    1.5345    0.6410 C.3     1  UNL1        0.0913
      4 C          -2.9906    0.2087    0.4350 C.ar    1  UNL1        0.0946
      5 N          -3.6086   -0.9808    0.3359 N.ar    1  UNL1       -0.1726
      6 N          -2.7068   -1.9322    0.1417 N.ar    1  UNL1       -0.2555
      7 C          -2.9498   -3.3314   -0.0215 C.3     1  UNL1        0.0537
      8 C          -4.2332   -3.8053   -0.5972 C.3     1  UNL1       -0.0285
      9 C          -3.9208   -4.0663    0.8235 C.3     1  UNL1       -0.0285
     10 C          -1.4844   -1.3391    0.1161 C.ar    1  UNL1        0.1297
     11 C          -1.6028    0.0175    0.2968 C.ar    1  UNL1        0.0330
     12 C          -0.2820    0.6882    0.2721 C.3     1  UNL1        0.0855
     13 C          -0.2450    1.8518   -0.6000 C.ar    1  UNL1       -0.0221
     14 C          -0.3074    3.1053   -0.0240 C.ar    1  UNL1       -0.0551
     15 C          -0.2765    4.2601   -0.7859 C.ar    1  UNL1       -0.0431
     16 C          -0.1814    4.2067   -2.1630 C.ar    1  UNL1        0.0410
     17 CL         -0.1412    5.6793   -3.1059 Cl      1  UNL1       -0.0835
     18 C          -0.1191    2.9759   -2.7524 C.ar    1  UNL1       -0.0431
     19 C          -0.1513    1.8358   -1.9761 C.ar    1  UNL1       -0.0551
     20 N           0.6461   -0.3361    0.0633 N.am    1  UNL1       -0.2531
     21 C           2.0729   -0.3598   -0.0510 C.ar    1  UNL1        0.0545
     22 C           2.6124   -0.2816   -1.3014 C.ar    1  UNL1       -0.0324
     23 C           3.9729   -0.2899   -1.5033 C.ar    1  UNL1       -0.0041
     24 C           4.4778   -0.2008   -2.9056 C.3     1  UNL1       -0.0361
     25 C           4.7997   -0.3795   -0.4099 C.ar    1  UNL1        0.1641
     26 N           6.1303   -0.4089   -0.2912 N.ar    1  UNL1       -0.1292
     27 N           6.4080   -0.5023    0.9907 N.ar    1  UNL1       -0.1340
     28 C           5.2815   -0.5358    1.7316 C.ar    1  UNL1        0.1347
     29 C           5.1318   -0.6336    3.2004 C.3     1  UNL1       -0.0041
     30 N           4.2735   -0.4579    0.8400 N.ar    1  UNL1       -0.2846
     31 C           2.9198   -0.4489    1.0269 C.ar    1  UNL1        0.0344
     32 C          -0.0547   -1.5700   -0.0326 C.2     1  UNL1        0.2700
     33 O           0.4155   -2.7422   -0.2188 O.2     1  UNL1       -0.2679
     34 H          -6.4202    0.8343    2.0826 H       1  UNL1        0.0524
     35 H          -4.8662    1.2786    2.9103 H       1  UNL1        0.0524
     36 H          -5.0316   -0.2547    2.0235 H       1  UNL1        0.0524
     37 H          -3.4380    2.1609   -0.2820 H       1  UNL1        0.0626
     38 H          -3.1524    2.0536    1.5342 H       1  UNL1        0.0626
     39 H          -2.0575   -3.9558   -0.3252 H       1  UNL1        0.0545
     40 H          -4.9883   -3.0352   -0.8606 H       1  UNL1        0.0286
     41 H          -4.2211   -4.6314   -1.3477 H       1  UNL1        0.0286
     42 H          -4.5065   -3.5015    1.5598 H       1  UNL1        0.0286
     43 H          -3.6987   -5.1193    1.1191 H       1  UNL1        0.0286
     44 H          -0.1378    1.0525    1.3374 H       1  UNL1        0.0606
     45 H          -0.3831    3.2596    1.0441 H       1  UNL1        0.0621
     46 H          -0.3248    5.2391   -0.3312 H       1  UNL1        0.0632
     47 H          -0.0420    2.8641   -3.8397 H       1  UNL1        0.0632
     48 H          -0.1054    0.9000   -2.4664 H       1  UNL1        0.0621
     49 H           1.9656   -0.2135   -2.1541 H       1  UNL1        0.0640
     50 H           4.3706   -1.2105   -3.3715 H       1  UNL1        0.0279
     51 H           3.7523    0.4428   -3.4640 H       1  UNL1        0.0279
     52 H           5.4820    0.2142   -2.9578 H       1  UNL1        0.0279
     53 H           4.2729   -1.3074    3.4123 H       1  UNL1        0.0308
     54 H           6.0814   -0.9876    3.6616 H       1  UNL1        0.0308
     55 H           4.8957    0.3638    3.6645 H       1  UNL1        0.0308
     56 H           2.5180   -0.5124    2.0296 H       1  UNL1        0.0833
@<TRIPOS>BOND
     1     1     2    1
     2     2     3    1
     3     3     4    1
     4     4     5   ar
     5     5     6   ar
     6     6     7    1
     7     7     8    1
     8     8     9    1
     9     6    10   ar
    10    10    11   ar
    11    11    12    1
    12    12    13    1
    13    13    14   ar
    14    14    15   ar
    15    15    16   ar
    16    16    17    1
    17    16    18   ar
    18    18    19   ar
    19    12    20    1
    20    20    21    1
    21    21    22   ar
    22    22    23   ar
    23    23    24    1
    24    23    25   ar
    25    25    26   ar
    26    26    27   ar
    27    27    28   ar
    28    28    29    1
    29    28    30   ar
    30    30    31   ar
    31    20    32   am
    32    32    33    2
    33    11     4   ar
    34    19    13   ar
    35    31    21   ar
    36     9     7    1
    37    32    10    1
    38    30    25   ar
    39     1    34    1
    40     1    35    1
    41     1    36    1
    42     3    37    1
    43     3    38    1
    44     7    39    1
    45     8    40    1
    46     8    41    1
    47     9    42    1
    48     9    43    1
    49    12    44    1
    50    14    45    1
    51    15    46    1
    52    18    47    1
    53    19    48    1
    54    22    49    1
    55    24    50    1
    56    24    51    1
    57    24    52    1
    58    29    53    1
    59    29    54    1
    60    29    55    1
    61    31    56    1
