
     RDKit          3D

 56 61  0  0  0  0  0  0  0  0999 V2000
   -5.3116    0.8075    1.9882 C   0  0  0  0  0  0  0  0  0  0  0  0
   -4.9515    1.4972    0.8576 O   0  0  0  0  0  0  0  0  0  0  0  0
   -3.5884    1.5345    0.6410 C   0  0  0  0  0  0  0  0  0  0  0  0
   -2.9906    0.2087    0.4350 C   0  0  0  0  0  0  0  0  0  0  0  0
   -3.6086   -0.9808    0.3359 N   0  0  0  0  0  0  0  0  0  0  0  0
   -2.7068   -1.9322    0.1417 N   0  0  0  0  0  0  0  0  0  0  0  0
   -2.9498   -3.3314   -0.0215 C   0  0  0  0  0  0  0  0  0  0  0  0
   -4.2332   -3.8053   -0.5972 C   0  0  0  0  0  0  0  0  0  0  0  0
   -3.9208   -4.0663    0.8235 C   0  0  0  0  0  0  0  0  0  0  0  0
   -1.4844   -1.3391    0.1161 C   0  0  0  0  0  0  0  0  0  0  0  0
   -1.6028    0.0175    0.2968 C   0  0  0  0  0  0  0  0  0  0  0  0
   -0.2820    0.6882    0.2721 C   0  0  0  0  0  0  0  0  0  0  0  0
   -0.2450    1.8518   -0.6000 C   0  0  0  0  0  0  0  0  0  0  0  0
   -0.3074    3.1053   -0.0240 C   0  0  0  0  0  0  0  0  0  0  0  0
   -0.2765    4.2601   -0.7859 C   0  0  0  0  0  0  0  0  0  0  0  0
   -0.1814    4.2067   -2.1630 C   0  0  0  0  0  0  0  0  0  0  0  0
   -0.1412    5.6793   -3.1059 Cl  0  0  0  0  0  0  0  0  0  0  0  0
   -0.1191    2.9759   -2.7524 C   0  0  0  0  0  0  0  0  0  0  0  0
   -0.1513    1.8358   -1.9761 C   0  0  0  0  0  0  0  0  0  0  0  0
    0.6461   -0.3361    0.0633 N   0  0  0  0  0  0  0  0  0  0  0  0
    2.0729   -0.3598   -0.0510 C   0  0  0  0  0  0  0  0  0  0  0  0
    2.6124   -0.2816   -1.3014 C   0  0  0  0  0  0  0  0  0  0  0  0
    3.9729   -0.2899   -1.5033 C   0  0  0  0  0  0  0  0  0  0  0  0
    4.4778   -0.2008   -2.9056 C   0  0  0  0  0  0  0  0  0  0  0  0
    4.7997   -0.3795   -0.4099 C   0  0  0  0  0  0  0  0  0  0  0  0
    6.1303   -0.4089   -0.2912 N   0  0  0  0  0  0  0  0  0  0  0  0
    6.4080   -0.5023    0.9907 N   0  0  0  0  0  0  0  0  0  0  0  0
    5.2815   -0.5358    1.7316 C   0  0  0  0  0  0  0  0  0  0  0  0
    5.1318   -0.6336    3.2004 C   0  0  0  0  0  0  0  0  0  0  0  0
    4.2735   -0.4579    0.8400 N   0  0  0  0  0  0  0  0  0  0  0  0
    2.9198   -0.4489    1.0269 C   0  0  0  0  0  0  0  0  0  0  0  0
   -0.0547   -1.5700   -0.0326 C   0  0  0  0  0  0  0  0  0  0  0  0
    0.4155   -2.7422   -0.2188 O   0  0  0  0  0  0  0  0  0  0  0  0
   -6.4202    0.8343    2.0826 H   0  0  0  0  0  0  0  0  0  0  0  0
   -4.8662    1.2786    2.9103 H   0  0  0  0  0  0  0  0  0  0  0  0
   -5.0316   -0.2547    2.0235 H   0  0  0  0  0  0  0  0  0  0  0  0
   -3.4380    2.1609   -0.2820 H   0  0  0  0  0  0  0  0  0  0  0  0
   -3.1524    2.0536    1.5342 H   0  0  0  0  0  0  0  0  0  0  0  0
   -2.0575   -3.9558   -0.3252 H   0  0  0  0  0  0  0  0  0  0  0  0
   -4.9883   -3.0352   -0.8606 H   0  0  0  0  0  0  0  0  0  0  0  0
   -4.2211   -4.6314   -1.3477 H   0  0  0  0  0  0  0  0  0  0  0  0
   -4.5065   -3.5015    1.5598 H   0  0  0  0  0  0  0  0  0  0  0  0
   -3.6987   -5.1193    1.1191 H   0  0  0  0  0  0  0  0  0  0  0  0
   -0.1378    1.0525    1.3374 H   0  0  0  0  0  0  0  0  0  0  0  0
   -0.3831    3.2596    1.0441 H   0  0  0  0  0  0  0  0  0  0  0  0
   -0.3248    5.2391   -0.3312 H   0  0  0  0  0  0  0  0  0  0  0  0
   -0.0420    2.8641   -3.8397 H   0  0  0  0  0  0  0  0  0  0  0  0
   -0.1054    0.9000   -2.4664 H   0  0  0  0  0  0  0  0  0  0  0  0
    1.9656   -0.2135   -2.1541 H   0  0  0  0  0  0  0  0  0  0  0  0
    4.3706   -1.2105   -3.3715 H   0  0  0  0  0  0  0  0  0  0  0  0
    3.7523    0.4428   -3.4640 H   0  0  0  0  0  0  0  0  0  0  0  0
    5.4820    0.2142   -2.9578 H   0  0  0  0  0  0  0  0  0  0  0  0
    4.2729   -1.3074    3.4123 H   0  0  0  0  0  0  0  0  0  0  0  0
    6.0814   -0.9876    3.6616 H   0  0  0  0  0  0  0  0  0  0  0  0
    4.8957    0.3638    3.6645 H   0  0  0  0  0  0  0  0  0  0  0  0
    2.5180   -0.5124    2.0296 H   0  0  0  0  0  0  0  0  0  0  0  0
  1  2  1  0
  2  3  1  0
  3  4  1  0
  4  5  2  0
  5  6  1  0
  6  7  1  0
  7  8  1  0
  8  9  1  0
  6 10  1  0
 10 11  2  0
 11 12  1  0
 12 13  1  0
 13 14  2  0
 14 15  1  0
 15 16  2  0
 16 17  1  0
 16 18  1  0
 18 19  2  0
 12 20  1  0
 20 21  1  0
 21 22  1  0
 22 23  2  0
 23 24  1  0
 23 25  1  0
 25 26  2  0
 26 27  1  0
 27 28  2  0
 28 29  1  0
 28 30  1  0
 30 31  1  0
 20 32  1  0
 32 33  2  0
 11  4  1  0
 19 13  1  0
 31 21  2  0
  9  7  1  0
 32 10  1  0
 30 25  1  0
  1 34  1  0
  1 35  1  0
  1 36  1  0
  3 37  1  0
  3 38  1  0
  7 39  1  0
  8 40  1  0
  8 41  1  0
  9 42  1  0
  9 43  1  0
 12 44  1  0
 14 45  1  0
 15 46  1  0
 18 47  1  0
 19 48  1  0
 22 49  1  0
 24 50  1  0
 24 51  1  0
 24 52  1  0
 29 53  1  0
 29 54  1  0
 29 55  1  0
 31 56  1  0
M  END
$$$$
