@<TRIPOS>MOLECULE
*****
 47 50 0 0 0
SMALL
GASTEIGER

@<TRIPOS>ATOM
      1 C          -7.0229   -3.0147    0.6207 C.3     1  UNL1        0.0790
      2 O          -6.7326   -1.7268    0.1048 O.3     1  UNL1       -0.4913
      3 C          -5.3986   -1.3416    0.0336 C.ar    1  UNL1        0.1650
      4 C          -4.3735   -2.1728    0.4474 C.ar    1  UNL1        0.0267
      5 C          -3.0524   -1.7832    0.3735 C.ar    1  UNL1        0.1421
      6 O          -2.0670   -2.5663    0.7646 O.2     1  UNL1       -0.4620
      7 C          -0.7987   -2.1899    0.6926 C.ar    1  UNL1        0.1038
      8 C          -0.4463   -0.9502    0.2009 C.ar    1  UNL1        0.0643
      9 C           0.9465   -0.5046    0.1083 C.ar    1  UNL1       -0.0112
     10 C           1.8109   -0.7037    1.1599 C.ar    1  UNL1       -0.0521
     11 C           3.1222   -0.2830    1.0698 C.ar    1  UNL1       -0.0401
     12 C           3.6323    0.3418   -0.0407 C.ar    1  UNL1        0.0297
     13 N           4.9751    0.7671   -0.1200 N.pl3   1  UNL1       -0.3299
     14 C           5.9661    0.6168    0.9151 C.3     1  UNL1        0.0122
     15 C           6.6666    1.9747    0.8747 C.3     1  UNL1       -0.0358
     16 C           6.3876    2.5477   -0.4968 C.3     1  UNL1       -0.0358
     17 C           5.6320    1.4250   -1.2200 C.3     1  UNL1        0.0122
     18 C           2.7490    0.5374   -1.0972 C.ar    1  UNL1       -0.0401
     19 C           1.4188    0.1131   -1.0115 C.ar    1  UNL1       -0.0521
     20 C          -1.4771   -0.1305   -0.2085 C.ar    1  UNL1        0.2003
     21 O          -1.2120    1.0050   -0.6627 O.2     1  UNL1       -0.2864
     22 C          -2.7981   -0.5256   -0.1322 C.ar    1  UNL1        0.0682
     23 C          -3.8213    0.3108   -0.5480 C.ar    1  UNL1       -0.0019
     24 C          -5.1423   -0.0797   -0.4737 C.ar    1  UNL1        0.1624
     25 O          -6.1739    0.7529   -0.8885 O.3     1  UNL1       -0.4914
     26 C          -5.8406    2.0311   -1.3974 C.3     1  UNL1        0.0790
     27 H          -8.0923   -3.2597    0.5476 H       1  UNL1        0.0660
     28 H          -6.6876   -3.1348    1.6719 H       1  UNL1        0.0660
     29 H          -6.3979   -3.7289    0.0200 H       1  UNL1        0.0660
     30 H          -4.5786   -3.1452    0.8378 H       1  UNL1        0.0692
     31 H           0.0102   -2.8419    1.0175 H       1  UNL1        0.1037
     32 H           1.4231   -1.1954    2.0432 H       1  UNL1        0.0624
     33 H           3.7412   -0.4756    1.9392 H       1  UNL1        0.0636
     34 H           5.5616    0.4348    1.9146 H       1  UNL1        0.0464
     35 H           6.6916   -0.1878    0.6783 H       1  UNL1        0.0464
     36 H           6.1740    2.5928    1.6571 H       1  UNL1        0.0281
     37 H           7.7271    1.8988    1.1137 H       1  UNL1        0.0281
     38 H           5.7612    3.4504   -0.4200 H       1  UNL1        0.0281
     39 H           7.3250    2.7731   -1.0494 H       1  UNL1        0.0281
     40 H           6.4361    0.7685   -1.6381 H       1  UNL1        0.0464
     41 H           4.9681    1.8167   -1.9871 H       1  UNL1        0.0464
     42 H           3.0922    1.0231   -1.9970 H       1  UNL1        0.0636
     43 H           0.7542    0.2803   -1.8532 H       1  UNL1        0.0624
     44 H          -3.5939    1.3063   -0.9466 H       1  UNL1        0.0663
     45 H          -5.3575    2.6768   -0.6167 H       1  UNL1        0.0660
     46 H          -6.7883    2.5292   -1.6816 H       1  UNL1        0.0660
     47 H          -5.1195    1.9679   -2.2331 H       1  UNL1        0.0660
@<TRIPOS>BOND
     1     1     2    1
     2     2     3    1
     3     3     4   ar
     4     4     5   ar
     5     5     6   ar
     6     6     7   ar
     7     7     8   ar
     8     8     9    1
     9     9    10   ar
    10    10    11   ar
    11    11    12   ar
    12    12    13    1
    13    13    14    1
    14    14    15    1
    15    15    16    1
    16    16    17    1
    17    12    18   ar
    18    18    19   ar
    19     8    20   ar
    20    20    21    2
    21    20    22   ar
    22    22    23   ar
    23    23    24   ar
    24    24    25    1
    25    25    26    1
    26    24     3   ar
    27    22     5   ar
    28    19     9   ar
    29    17    13    1
    30     1    27    1
    31     1    28    1
    32     1    29    1
    33     4    30    1
    34     7    31    1
    35    10    32    1
    36    11    33    1
    37    14    34    1
    38    14    35    1
    39    15    36    1
    40    15    37    1
    41    16    38    1
    42    16    39    1
    43    17    40    1
    44    17    41    1
    45    18    42    1
    46    19    43    1
    47    23    44    1
    48    26    45    1
    49    26    46    1
    50    26    47    1
