
     RDKit          3D

 47 50  0  0  0  0  0  0  0  0999 V2000
   -7.0229   -3.0147    0.6207 C   0  0  0  0  0  0  0  0  0  0  0  0
   -6.7326   -1.7268    0.1048 O   0  0  0  0  0  0  0  0  0  0  0  0
   -5.3986   -1.3416    0.0336 C   0  0  0  0  0  0  0  0  0  0  0  0
   -4.3735   -2.1728    0.4474 C   0  0  0  0  0  0  0  0  0  0  0  0
   -3.0524   -1.7832    0.3735 C   0  0  0  0  0  0  0  0  0  0  0  0
   -2.0670   -2.5663    0.7646 O   0  0  0  0  0  0  0  0  0  0  0  0
   -0.7987   -2.1899    0.6926 C   0  0  0  0  0  0  0  0  0  0  0  0
   -0.4463   -0.9502    0.2009 C   0  0  0  0  0  0  0  0  0  0  0  0
    0.9465   -0.5046    0.1083 C   0  0  0  0  0  0  0  0  0  0  0  0
    1.8109   -0.7037    1.1599 C   0  0  0  0  0  0  0  0  0  0  0  0
    3.1222   -0.2830    1.0698 C   0  0  0  0  0  0  0  0  0  0  0  0
    3.6323    0.3418   -0.0407 C   0  0  0  0  0  0  0  0  0  0  0  0
    4.9751    0.7671   -0.1200 N   0  0  0  0  0  0  0  0  0  0  0  0
    5.9661    0.6168    0.9151 C   0  0  0  0  0  0  0  0  0  0  0  0
    6.6666    1.9747    0.8747 C   0  0  0  0  0  0  0  0  0  0  0  0
    6.3876    2.5477   -0.4968 C   0  0  0  0  0  0  0  0  0  0  0  0
    5.6320    1.4250   -1.2200 C   0  0  0  0  0  0  0  0  0  0  0  0
    2.7490    0.5374   -1.0972 C   0  0  0  0  0  0  0  0  0  0  0  0
    1.4188    0.1131   -1.0115 C   0  0  0  0  0  0  0  0  0  0  0  0
   -1.4771   -0.1305   -0.2085 C   0  0  0  0  0  0  0  0  0  0  0  0
   -1.2120    1.0050   -0.6627 O   0  0  0  0  0  0  0  0  0  0  0  0
   -2.7981   -0.5256   -0.1322 C   0  0  0  0  0  0  0  0  0  0  0  0
   -3.8213    0.3108   -0.5480 C   0  0  0  0  0  0  0  0  0  0  0  0
   -5.1423   -0.0797   -0.4737 C   0  0  0  0  0  0  0  0  0  0  0  0
   -6.1739    0.7529   -0.8885 O   0  0  0  0  0  0  0  0  0  0  0  0
   -5.8406    2.0311   -1.3974 C   0  0  0  0  0  0  0  0  0  0  0  0
   -8.0923   -3.2597    0.5476 H   0  0  0  0  0  0  0  0  0  0  0  0
   -6.6876   -3.1348    1.6719 H   0  0  0  0  0  0  0  0  0  0  0  0
   -6.3979   -3.7289    0.0200 H   0  0  0  0  0  0  0  0  0  0  0  0
   -4.5786   -3.1452    0.8378 H   0  0  0  0  0  0  0  0  0  0  0  0
    0.0102   -2.8419    1.0175 H   0  0  0  0  0  0  0  0  0  0  0  0
    1.4231   -1.1954    2.0432 H   0  0  0  0  0  0  0  0  0  0  0  0
    3.7412   -0.4756    1.9392 H   0  0  0  0  0  0  0  0  0  0  0  0
    5.5616    0.4348    1.9146 H   0  0  0  0  0  0  0  0  0  0  0  0
    6.6916   -0.1878    0.6783 H   0  0  0  0  0  0  0  0  0  0  0  0
    6.1740    2.5928    1.6571 H   0  0  0  0  0  0  0  0  0  0  0  0
    7.7271    1.8988    1.1137 H   0  0  0  0  0  0  0  0  0  0  0  0
    5.7612    3.4504   -0.4200 H   0  0  0  0  0  0  0  0  0  0  0  0
    7.3250    2.7731   -1.0494 H   0  0  0  0  0  0  0  0  0  0  0  0
    6.4361    0.7685   -1.6381 H   0  0  0  0  0  0  0  0  0  0  0  0
    4.9681    1.8167   -1.9871 H   0  0  0  0  0  0  0  0  0  0  0  0
    3.0922    1.0231   -1.9970 H   0  0  0  0  0  0  0  0  0  0  0  0
    0.7542    0.2803   -1.8532 H   0  0  0  0  0  0  0  0  0  0  0  0
   -3.5939    1.3063   -0.9466 H   0  0  0  0  0  0  0  0  0  0  0  0
   -5.3575    2.6768   -0.6167 H   0  0  0  0  0  0  0  0  0  0  0  0
   -6.7883    2.5292   -1.6816 H   0  0  0  0  0  0  0  0  0  0  0  0
   -5.1195    1.9679   -2.2331 H   0  0  0  0  0  0  0  0  0  0  0  0
  1  2  1  0
  2  3  1  0
  3  4  2  0
  4  5  1  0
  5  6  1  0
  6  7  1  0
  7  8  2  0
  8  9  1  0
  9 10  2  0
 10 11  1  0
 11 12  2  0
 12 13  1  0
 13 14  1  0
 14 15  1  0
 15 16  1  0
 16 17  1  0
 12 18  1  0
 18 19  2  0
  8 20  1  0
 20 21  2  0
 20 22  1  0
 22 23  1  0
 23 24  2  0
 24 25  1  0
 25 26  1  0
 24  3  1  0
 22  5  2  0
 19  9  1  0
 17 13  1  0
  1 27  1  0
  1 28  1  0
  1 29  1  0
  4 30  1  0
  7 31  1  0
 10 32  1  0
 11 33  1  0
 14 34  1  0
 14 35  1  0
 15 36  1  0
 15 37  1  0
 16 38  1  0
 16 39  1  0
 17 40  1  0
 17 41  1  0
 18 42  1  0
 19 43  1  0
 23 44  1  0
 26 45  1  0
 26 46  1  0
 26 47  1  0
M  END
$$$$
