@<TRIPOS>MOLECULE
*****
 64 66 0 0 0
SMALL
GASTEIGER

@<TRIPOS>ATOM
      1 C          -7.4915    2.3524    0.3763 C.3     1  UNL1       -0.0524
      2 C          -7.6982    0.9618    0.9375 C.3     1  UNL1       -0.0038
      3 N          -7.4230   -0.0615   -0.0530 N.3     1  UNL1       -0.2996
      4 C          -7.6263   -1.3392    0.5401 C.3     1  UNL1       -0.0038
      5 C          -9.1293   -1.4847    0.8119 C.3     1  UNL1       -0.0524
      6 C          -6.0806    0.1739   -0.5519 C.3     1  UNL1        0.0331
      7 C          -5.6413   -0.8182   -1.5904 C.3     1  UNL1        0.1022
      8 O          -4.3641   -0.5495   -2.0238 O.3     1  UNL1       -0.4907
      9 C          -3.1844   -0.6079   -1.3422 C.ar    1  UNL1        0.1206
     10 C          -3.0491   -1.0097   -0.0385 C.ar    1  UNL1       -0.0194
     11 C          -1.8142   -1.0482    0.6316 C.ar    1  UNL1       -0.0501
     12 C          -0.6788   -0.6715   -0.0330 C.ar    1  UNL1       -0.0110
     13 C           0.6438   -0.6801    0.6017 C.ar    1  UNL1        0.0219
     14 C           1.8493   -0.3569    0.0979 C.ar    1  UNL1       -0.0329
     15 C           2.9320   -0.4459    0.8816 C.ar    1  UNL1        0.0661
     16 C           4.3190   -0.1126    0.4025 C.2     1  UNL1        0.2506
     17 O           5.2417   -0.2373    1.2082 O.2     1  UNL1       -0.2698
     18 N           4.5823    0.3227   -0.8983 N.am    1  UNL1       -0.2814
     19 C           5.8337    0.6594   -1.4655 C.ar    1  UNL1        0.0340
     20 C           5.8792    1.1129   -2.7980 C.ar    1  UNL1       -0.0404
     21 C           7.0857    1.4245   -3.3358 C.ar    1  UNL1       -0.0597
     22 C           8.2685    1.3134   -2.6250 C.ar    1  UNL1       -0.0563
     23 C           8.2417    0.8745   -1.3301 C.ar    1  UNL1       -0.0204
     24 C           9.5046    0.7441   -0.5455 C.3     1  UNL1        0.0693
     25 O          10.0488   -0.5371   -0.6979 O.3     1  UNL1       -0.3904
     26 C           7.0026    0.5538   -0.7756 C.ar    1  UNL1       -0.0351
     27 C           2.7636   -0.8681    2.1814 C.ar    1  UNL1        0.0856
     28 N           3.6489   -1.0699    3.2509 N.am    1  UNL1       -0.2633
     29 C           3.9442   -0.0319    4.1721 C.2     1  UNL1        0.3017
     30 N           4.8263   -0.1658    5.2753 N.am    1  UNL1       -0.3131
     31 O           3.3682    1.0752    3.9712 O.2     1  UNL1       -0.2527
     32 S           0.9769   -1.1336    2.2309 S.2     1  UNL1       -0.0727
     33 C          -0.7837   -0.2723   -1.3211 C.ar    1  UNL1       -0.0501
     34 C          -1.9860   -0.2276   -1.9930 C.ar    1  UNL1       -0.0194
     35 H          -8.2283    3.0107    0.9241 H       1  UNL1        0.0242
     36 H          -7.6964    2.3601   -0.7017 H       1  UNL1        0.0242
     37 H          -6.4821    2.7626    0.6402 H       1  UNL1        0.0242
     38 H          -8.7652    0.8200    1.2480 H       1  UNL1        0.0424
     39 H          -7.0362    0.7868    1.8319 H       1  UNL1        0.0424
     40 H          -7.2702   -2.2051   -0.0325 H       1  UNL1        0.0424
     41 H          -7.1475   -1.4038    1.5424 H       1  UNL1        0.0424
     42 H          -9.4277   -2.5558    0.7840 H       1  UNL1        0.0242
     43 H          -9.6396   -0.8988    0.0208 H       1  UNL1        0.0242
     44 H          -9.3532   -1.0476    1.8058 H       1  UNL1        0.0242
     45 H          -5.3267    0.3074    0.2184 H       1  UNL1        0.0460
     46 H          -6.0987    1.1732   -1.1226 H       1  UNL1        0.0460
     47 H          -6.3572   -0.8097   -2.4585 H       1  UNL1        0.0709
     48 H          -5.6317   -1.8575   -1.1624 H       1  UNL1        0.0709
     49 H          -3.9121   -1.3492    0.5233 H       1  UNL1        0.0654
     50 H          -1.7358   -1.3680    1.6571 H       1  UNL1        0.0625
     51 H           1.8925   -0.0202   -0.9792 H       1  UNL1        0.0637
     52 H           3.7038    0.4009   -1.5221 H       1  UNL1        0.1551
     53 H           4.9630    1.2007   -3.3518 H       1  UNL1        0.0636
     54 H           7.0975    1.7742   -4.3707 H       1  UNL1        0.0618
     55 H           9.2097    1.5728   -3.0922 H       1  UNL1        0.0621
     56 H          10.2163    1.5337   -0.8613 H       1  UNL1        0.0607
     57 H           9.2636    0.8969    0.5226 H       1  UNL1        0.0607
     58 H          10.2945   -0.8938    0.1800 H       1  UNL1        0.2098
     59 H           7.0738    0.2156    0.2495 H       1  UNL1        0.0639
     60 H           4.1093   -1.9848    3.3922 H       1  UNL1        0.1569
     61 H           4.6347    0.4172    6.1176 H       1  UNL1        0.1465
     62 H           5.6423   -0.7997    5.3016 H       1  UNL1        0.1465
     63 H           0.0861    0.0359   -1.8939 H       1  UNL1        0.0625
     64 H          -2.0891    0.0862   -3.0146 H       1  UNL1        0.0654
@<TRIPOS>BOND
     1     1     2    1
     2     2     3    1
     3     3     4    1
     4     4     5    1
     5     3     6    1
     6     6     7    1
     7     7     8    1
     8     8     9    1
     9     9    10   ar
    10    10    11   ar
    11    11    12   ar
    12    12    13    1
    13    13    14   ar
    14    14    15   ar
    15    15    16    1
    16    16    17    2
    17    16    18   am
    18    18    19    1
    19    19    20   ar
    20    20    21   ar
    21    21    22   ar
    22    22    23   ar
    23    23    24    1
    24    24    25    1
    25    23    26   ar
    26    15    27   ar
    27    27    28    1
    28    28    29   am
    29    29    30   am
    30    29    31    2
    31    27    32   ar
    32    12    33   ar
    33    33    34   ar
    34    34     9   ar
    35    32    13   ar
    36    26    19   ar
    37     1    35    1
    38     1    36    1
    39     1    37    1
    40     2    38    1
    41     2    39    1
    42     4    40    1
    43     4    41    1
    44     5    42    1
    45     5    43    1
    46     5    44    1
    47     6    45    1
    48     6    46    1
    49     7    47    1
    50     7    48    1
    51    10    49    1
    52    11    50    1
    53    14    51    1
    54    18    52    1
    55    20    53    1
    56    21    54    1
    57    22    55    1
    58    24    56    1
    59    24    57    1
    60    25    58    1
    61    26    59    1
    62    28    60    1
    63    30    61    1
    64    30    62    1
    65    33    63    1
    66    34    64    1
