
     RDKit          3D

 64 66  0  0  0  0  0  0  0  0999 V2000
   -7.4915    2.3524    0.3763 C   0  0  0  0  0  0  0  0  0  0  0  0
   -7.6982    0.9618    0.9375 C   0  0  0  0  0  0  0  0  0  0  0  0
   -7.4230   -0.0615   -0.0530 N   0  0  0  0  0  0  0  0  0  0  0  0
   -7.6263   -1.3392    0.5401 C   0  0  0  0  0  0  0  0  0  0  0  0
   -9.1293   -1.4847    0.8119 C   0  0  0  0  0  0  0  0  0  0  0  0
   -6.0806    0.1739   -0.5519 C   0  0  0  0  0  0  0  0  0  0  0  0
   -5.6413   -0.8182   -1.5904 C   0  0  0  0  0  0  0  0  0  0  0  0
   -4.3641   -0.5495   -2.0238 O   0  0  0  0  0  0  0  0  0  0  0  0
   -3.1844   -0.6079   -1.3422 C   0  0  0  0  0  0  0  0  0  0  0  0
   -3.0491   -1.0097   -0.0385 C   0  0  0  0  0  0  0  0  0  0  0  0
   -1.8142   -1.0482    0.6316 C   0  0  0  0  0  0  0  0  0  0  0  0
   -0.6788   -0.6715   -0.0330 C   0  0  0  0  0  0  0  0  0  0  0  0
    0.6438   -0.6801    0.6017 C   0  0  0  0  0  0  0  0  0  0  0  0
    1.8493   -0.3569    0.0979 C   0  0  0  0  0  0  0  0  0  0  0  0
    2.9320   -0.4459    0.8816 C   0  0  0  0  0  0  0  0  0  0  0  0
    4.3190   -0.1126    0.4025 C   0  0  0  0  0  0  0  0  0  0  0  0
    5.2417   -0.2373    1.2082 O   0  0  0  0  0  0  0  0  0  0  0  0
    4.5823    0.3227   -0.8983 N   0  0  0  0  0  0  0  0  0  0  0  0
    5.8337    0.6594   -1.4655 C   0  0  0  0  0  0  0  0  0  0  0  0
    5.8792    1.1129   -2.7980 C   0  0  0  0  0  0  0  0  0  0  0  0
    7.0857    1.4245   -3.3358 C   0  0  0  0  0  0  0  0  0  0  0  0
    8.2685    1.3134   -2.6250 C   0  0  0  0  0  0  0  0  0  0  0  0
    8.2417    0.8745   -1.3301 C   0  0  0  0  0  0  0  0  0  0  0  0
    9.5046    0.7441   -0.5455 C   0  0  0  0  0  0  0  0  0  0  0  0
   10.0488   -0.5371   -0.6979 O   0  0  0  0  0  0  0  0  0  0  0  0
    7.0026    0.5538   -0.7756 C   0  0  0  0  0  0  0  0  0  0  0  0
    2.7636   -0.8681    2.1814 C   0  0  0  0  0  0  0  0  0  0  0  0
    3.6489   -1.0699    3.2509 N   0  0  0  0  0  0  0  0  0  0  0  0
    3.9442   -0.0319    4.1721 C   0  0  0  0  0  0  0  0  0  0  0  0
    4.8263   -0.1658    5.2753 N   0  0  0  0  0  0  0  0  0  0  0  0
    3.3682    1.0752    3.9712 O   0  0  0  0  0  0  0  0  0  0  0  0
    0.9769   -1.1336    2.2309 S   0  0  0  0  0  0  0  0  0  0  0  0
   -0.7837   -0.2723   -1.3211 C   0  0  0  0  0  0  0  0  0  0  0  0
   -1.9860   -0.2276   -1.9930 C   0  0  0  0  0  0  0  0  0  0  0  0
   -8.2283    3.0107    0.9241 H   0  0  0  0  0  0  0  0  0  0  0  0
   -7.6964    2.3601   -0.7017 H   0  0  0  0  0  0  0  0  0  0  0  0
   -6.4821    2.7626    0.6402 H   0  0  0  0  0  0  0  0  0  0  0  0
   -8.7652    0.8200    1.2480 H   0  0  0  0  0  0  0  0  0  0  0  0
   -7.0362    0.7868    1.8319 H   0  0  0  0  0  0  0  0  0  0  0  0
   -7.2702   -2.2051   -0.0325 H   0  0  0  0  0  0  0  0  0  0  0  0
   -7.1475   -1.4038    1.5424 H   0  0  0  0  0  0  0  0  0  0  0  0
   -9.4277   -2.5558    0.7840 H   0  0  0  0  0  0  0  0  0  0  0  0
   -9.6396   -0.8988    0.0208 H   0  0  0  0  0  0  0  0  0  0  0  0
   -9.3532   -1.0476    1.8058 H   0  0  0  0  0  0  0  0  0  0  0  0
   -5.3267    0.3074    0.2184 H   0  0  0  0  0  0  0  0  0  0  0  0
   -6.0987    1.1732   -1.1226 H   0  0  0  0  0  0  0  0  0  0  0  0
   -6.3572   -0.8097   -2.4585 H   0  0  0  0  0  0  0  0  0  0  0  0
   -5.6317   -1.8575   -1.1624 H   0  0  0  0  0  0  0  0  0  0  0  0
   -3.9121   -1.3492    0.5233 H   0  0  0  0  0  0  0  0  0  0  0  0
   -1.7358   -1.3680    1.6571 H   0  0  0  0  0  0  0  0  0  0  0  0
    1.8925   -0.0202   -0.9792 H   0  0  0  0  0  0  0  0  0  0  0  0
    3.7038    0.4009   -1.5221 H   0  0  0  0  0  0  0  0  0  0  0  0
    4.9630    1.2007   -3.3518 H   0  0  0  0  0  0  0  0  0  0  0  0
    7.0975    1.7742   -4.3707 H   0  0  0  0  0  0  0  0  0  0  0  0
    9.2097    1.5728   -3.0922 H   0  0  0  0  0  0  0  0  0  0  0  0
   10.2163    1.5337   -0.8613 H   0  0  0  0  0  0  0  0  0  0  0  0
    9.2636    0.8969    0.5226 H   0  0  0  0  0  0  0  0  0  0  0  0
   10.2945   -0.8938    0.1800 H   0  0  0  0  0  0  0  0  0  0  0  0
    7.0738    0.2156    0.2495 H   0  0  0  0  0  0  0  0  0  0  0  0
    4.1093   -1.9848    3.3922 H   0  0  0  0  0  0  0  0  0  0  0  0
    4.6347    0.4172    6.1176 H   0  0  0  0  0  0  0  0  0  0  0  0
    5.6423   -0.7997    5.3016 H   0  0  0  0  0  0  0  0  0  0  0  0
    0.0861    0.0359   -1.8939 H   0  0  0  0  0  0  0  0  0  0  0  0
   -2.0891    0.0862   -3.0146 H   0  0  0  0  0  0  0  0  0  0  0  0
  1  2  1  0
  2  3  1  0
  3  4  1  0
  4  5  1  0
  3  6  1  0
  6  7  1  0
  7  8  1  0
  8  9  1  0
  9 10  2  0
 10 11  1  0
 11 12  2  0
 12 13  1  0
 13 14  2  0
 14 15  1  0
 15 16  1  0
 16 17  2  0
 16 18  1  0
 18 19  1  0
 19 20  2  0
 20 21  1  0
 21 22  2  0
 22 23  1  0
 23 24  1  0
 24 25  1  0
 23 26  2  0
 15 27  2  0
 27 28  1  0
 28 29  1  0
 29 30  1  0
 29 31  2  0
 27 32  1  0
 12 33  1  0
 33 34  2  0
 34  9  1  0
 32 13  1  0
 26 19  1  0
  1 35  1  0
  1 36  1  0
  1 37  1  0
  2 38  1  0
  2 39  1  0
  4 40  1  0
  4 41  1  0
  5 42  1  0
  5 43  1  0
  5 44  1  0
  6 45  1  0
  6 46  1  0
  7 47  1  0
  7 48  1  0
 10 49  1  0
 11 50  1  0
 14 51  1  0
 18 52  1  0
 20 53  1  0
 21 54  1  0
 22 55  1  0
 24 56  1  0
 24 57  1  0
 25 58  1  0
 26 59  1  0
 28 60  1  0
 30 61  1  0
 30 62  1  0
 33 63  1  0
 34 64  1  0
M  END
$$$$
