
     RDKit          3D

 18 17  0  0  0  0  0  0  0  0999 V2000
    2.0289   -1.2706   -0.2094 C   0  0  0  0  0  0  0  0  0  0  0  0
    3.4140   -1.2442    0.8747 Cl  0  0  0  0  0  0  0  0  0  0  0  0
    0.8811   -1.1486   -0.8699 C   0  0  0  0  0  0  0  0  0  0  0  0
    0.0252   -0.2623   -0.0486 C   0  0  0  0  0  0  0  0  0  0  0  0
   -0.2472   -0.8778    1.1939 O   0  0  0  0  0  0  0  0  0  0  0  0
   -1.3256   -0.0526   -0.7017 C   0  0  0  0  0  0  0  0  0  0  0  0
   -2.1813    0.8509    0.1479 C   0  0  0  0  0  0  0  0  0  0  0  0
    0.6349    1.0497    0.1836 C   0  0  0  0  0  0  0  0  0  0  0  0
    1.1603    2.1311    0.3809 C   0  0  0  0  0  0  0  0  0  0  0  0
    2.9860   -1.4159    0.2695 H   0  0  0  0  0  0  0  0  0  0  0  0
    0.9452   -1.7317   -1.7852 H   0  0  0  0  0  0  0  0  0  0  0  0
    0.3812   -1.6199    1.3218 H   0  0  0  0  0  0  0  0  0  0  0  0
   -1.8147   -1.0450   -0.7430 H   0  0  0  0  0  0  0  0  0  0  0  0
   -1.2308    0.3659   -1.7239 H   0  0  0  0  0  0  0  0  0  0  0  0
   -3.2504    0.6351   -0.0763 H   0  0  0  0  0  0  0  0  0  0  0  0
   -2.0134    1.9170    0.0057 H   0  0  0  0  0  0  0  0  0  0  0  0
   -2.0308    0.6415    1.2330 H   0  0  0  0  0  0  0  0  0  0  0  0
    1.6375    3.0776    0.5470 H   0  0  0  0  0  0  0  0  0  0  0  0
  1  2  1  0
  1  3  2  3
  3  4  1  0
  4  5  1  0
  4  6  1  0
  6  7  1  0
  4  8  1  0
  8  9  3  0
  1 10  1  0
  3 11  1  0
  5 12  1  0
  6 13  1  0
  6 14  1  0
  7 15  1  0
  7 16  1  0
  7 17  1  0
  9 18  1  0
M  END
$$$$
