@<TRIPOS>MOLECULE
*****
 18 17 0 0 0
SMALL
GASTEIGER

@<TRIPOS>ATOM
      1 C           2.0289   -1.2706   -0.2094 C.2     1  UNL1        0.0043
      2 CL          3.4140   -1.2442    0.8747 Cl      1  UNL1       -0.0921
      3 C           0.8811   -1.1486   -0.8699 C.2     1  UNL1       -0.0297
      4 C           0.0252   -0.2623   -0.0486 C.3     1  UNL1        0.1456
      5 O          -0.2472   -0.8778    1.1939 O.3     1  UNL1       -0.3730
      6 C          -1.3256   -0.0526   -0.7017 C.3     1  UNL1       -0.0117
      7 C          -2.1813    0.8509    0.1479 C.3     1  UNL1       -0.0614
      8 C           0.6349    1.0497    0.1836 C.1     1  UNL1       -0.0667
      9 C           1.1603    2.1311    0.3809 C.1     1  UNL1       -0.1160
     10 H           2.9860   -1.4159    0.2695 H       1  UNL1        0.0744
     11 H           0.9452   -1.7317   -1.7852 H       1  UNL1        0.0619
     12 H           0.3812   -1.6199    1.3218 H       1  UNL1        0.2117
     13 H          -1.8147   -1.0450   -0.7430 H       1  UNL1        0.0303
     14 H          -1.2308    0.3659   -1.7239 H       1  UNL1        0.0303
     15 H          -3.2504    0.6351   -0.0763 H       1  UNL1        0.0231
     16 H          -2.0134    1.9170    0.0057 H       1  UNL1        0.0231
     17 H          -2.0308    0.6415    1.2330 H       1  UNL1        0.0231
     18 H           1.6375    3.0776    0.5470 H       1  UNL1        0.1229
@<TRIPOS>BOND
     1     1     2    1
     2     1     3    2
     3     3     4    1
     4     4     5    1
     5     4     6    1
     6     6     7    1
     7     4     8    1
     8     8     9    3
     9     1    10    1
    10     3    11    1
    11     5    12    1
    12     6    13    1
    13     6    14    1
    14     7    15    1
    15     7    16    1
    16     7    17    1
    17     9    18    1
