
     RDKit          3D

 65 63  0  0  0  0  0  0  0  0999 V2000
   -1.3803   -0.4531    0.2717 N   0  0  0  0  0  0  0  0  0  0  0  0
   -0.4676    0.6347    0.0796 C   0  0  0  0  0  0  0  0  0  0  0  0
    0.8992    0.3027    0.6552 C   0  0  0  0  0  0  0  0  0  0  0  0
    1.4753   -0.8064    0.0792 O   0  0  0  0  0  0  0  0  0  0  0  0
    8.3243   -0.1135   -0.6768 C   0  0  0  0  0  0  0  0  0  0  0  0
    7.8865   -0.9733    0.4700 C   0  0  0  0  0  0  0  0  0  0  0  0
    6.7994   -0.3805    1.3107 C   0  0  0  0  0  0  0  0  0  0  0  0
    5.5367   -0.1127    0.4827 C   0  0  0  0  0  0  0  0  0  0  0  0
    4.4743    0.4794    1.3562 C   0  0  0  0  0  0  0  0  0  0  0  0
    3.2307    0.7881    0.5641 C   0  0  0  0  0  0  0  0  0  0  0  0
    2.6481   -0.4441   -0.0455 C   0  0  0  0  0  0  0  0  0  0  0  0
    1.3934   -0.2139   -0.8690 C   0  0  0  0  0  0  0  0  0  0  0  0
    0.3391    0.3677   -0.0091 C   0  0  0  0  0  0  0  0  0  0  0  0
   -0.9215   -0.0108    0.3905 C   0  0  0  0  0  0  0  0  0  0  0  0
   -1.4412   -1.2948   -0.1063 C   0  0  0  0  0  0  0  0  0  0  0  0
   -2.6605   -1.1776   -0.8967 C   0  0  0  0  0  0  0  0  0  0  0  0
   -3.9479   -0.6995   -0.3355 C   0  0  0  0  0  0  0  0  0  0  0  0
   -4.0712    0.6313    0.2402 C   0  0  0  0  0  0  0  0  0  0  0  0
   -5.3737    0.9679    0.8550 C   0  0  0  0  0  0  0  0  0  0  0  0
   -6.6204    0.9047    0.1016 C   0  0  0  0  0  0  0  0  0  0  0  0
   -7.1352   -0.4114   -0.2997 C   0  0  0  0  0  0  0  0  0  0  0  0
   -8.4422   -0.2932   -1.0543 C   0  0  0  0  0  0  0  0  0  0  0  0
   -8.5909   -0.3522   -2.4330 O   0  0  0  0  0  0  0  0  0  0  0  0
   -9.5810   -0.1257   -0.5579 O   0  0  0  0  0  0  0  0  0  0  0  0
   -2.1151   -0.5221   -0.4752 H   0  0  0  0  0  0  0  0  0  0  0  0
   -0.9148   -1.3735    0.4792 H   0  0  0  0  0  0  0  0  0  0  0  0
   -0.3987    0.9943   -0.9647 H   0  0  0  0  0  0  0  0  0  0  0  0
   -0.8431    1.4914    0.6849 H   0  0  0  0  0  0  0  0  0  0  0  0
    1.5797    1.1638    0.5016 H   0  0  0  0  0  0  0  0  0  0  0  0
    0.7858    0.1853    1.7486 H   0  0  0  0  0  0  0  0  0  0  0  0
    1.3796   -1.6173    0.6496 H   0  0  0  0  0  0  0  0  0  0  0  0
    8.9857    0.7146   -0.3144 H   0  0  0  0  0  0  0  0  0  0  0  0
    7.5299    0.3147   -1.2866 H   0  0  0  0  0  0  0  0  0  0  0  0
    8.9952   -0.7604   -1.3074 H   0  0  0  0  0  0  0  0  0  0  0  0
    7.5412   -1.9544    0.0787 H   0  0  0  0  0  0  0  0  0  0  0  0
    8.7612   -1.1277    1.1185 H   0  0  0  0  0  0  0  0  0  0  0  0
    6.5122   -1.1421    2.0592 H   0  0  0  0  0  0  0  0  0  0  0  0
    7.1123    0.5315    1.8214 H   0  0  0  0  0  0  0  0  0  0  0  0
    5.1472   -1.1022    0.1030 H   0  0  0  0  0  0  0  0  0  0  0  0
    5.7138    0.5205   -0.3833 H   0  0  0  0  0  0  0  0  0  0  0  0
    4.2404   -0.2181    2.2023 H   0  0  0  0  0  0  0  0  0  0  0  0
    4.8988    1.4337    1.7889 H   0  0  0  0  0  0  0  0  0  0  0  0
    2.4934    1.2521    1.2647 H   0  0  0  0  0  0  0  0  0  0  0  0
    3.5342    1.5439   -0.1941 H   0  0  0  0  0  0  0  0  0  0  0  0
    3.3831   -1.0275   -0.6504 H   0  0  0  0  0  0  0  0  0  0  0  0
    2.3193   -1.1377    0.7875 H   0  0  0  0  0  0  0  0  0  0  0  0
    1.6684    0.4261   -1.7408 H   0  0  0  0  0  0  0  0  0  0  0  0
    1.1401   -1.2118   -1.2943 H   0  0  0  0  0  0  0  0  0  0  0  0
    0.8534    1.3154    0.2623 H   0  0  0  0  0  0  0  0  0  0  0  0
   -1.1425    0.8398    1.0135 H   0  0  0  0  0  0  0  0  0  0  0  0
   -0.6660   -1.7833   -0.7765 H   0  0  0  0  0  0  0  0  0  0  0  0
   -1.5124   -2.0531    0.7304 H   0  0  0  0  0  0  0  0  0  0  0  0
   -2.4182   -0.4608   -1.7593 H   0  0  0  0  0  0  0  0  0  0  0  0
   -2.8953   -2.1319   -1.4865 H   0  0  0  0  0  0  0  0  0  0  0  0
   -4.4749   -1.4740    0.2487 H   0  0  0  0  0  0  0  0  0  0  0  0
   -4.6109   -0.6248   -1.3118 H   0  0  0  0  0  0  0  0  0  0  0  0
   -3.3174    0.8414    1.0614 H   0  0  0  0  0  0  0  0  0  0  0  0
   -3.8624    1.4660   -0.5182 H   0  0  0  0  0  0  0  0  0  0  0  0
   -5.2820    1.9626    1.4253 H   0  0  0  0  0  0  0  0  0  0  0  0
   -5.4472    0.2384    1.7604 H   0  0  0  0  0  0  0  0  0  0  0  0
   -7.4108    1.4285    0.7564 H   0  0  0  0  0  0  0  0  0  0  0  0
   -6.5994    1.6348   -0.7811 H   0  0  0  0  0  0  0  0  0  0  0  0
   -6.5365   -1.0787   -0.8911 H   0  0  0  0  0  0  0  0  0  0  0  0
   -7.4363   -0.9706    0.6346 H   0  0  0  0  0  0  0  0  0  0  0  0
   -9.0645    0.4323   -2.9081 H   0  0  0  0  0  0  0  0  0  0  0  0
  1  2  1  0
  2  3  1  0
  3  4  1  0
  5  6  1  0
  6  7  1  0
  7  8  1  0
  8  9  1  0
  9 10  1  0
 10 11  1  0
 11 12  1  0
 12 13  1  0
 13 14  2  0
 14 15  1  0
 15 16  1  0
 16 17  1  0
 17 18  1  0
 18 19  1  0
 19 20  1  0
 20 21  1  0
 21 22  1  0
 22 23  1  0
 22 24  2  0
  1 25  1  0
  1 26  1  0
  2 27  1  0
  2 28  1  0
  3 29  1  0
  3 30  1  0
  4 31  1  0
  5 32  1  0
  5 33  1  0
  5 34  1  0
  6 35  1  0
  6 36  1  0
  7 37  1  0
  7 38  1  0
  8 39  1  0
  8 40  1  0
  9 41  1  0
  9 42  1  0
 10 43  1  0
 10 44  1  0
 11 45  1  0
 11 46  1  0
 12 47  1  0
 12 48  1  0
 13 49  1  0
 14 50  1  0
 15 51  1  0
 15 52  1  0
 16 53  1  0
 16 54  1  0
 17 55  1  0
 17 56  1  0
 18 57  1  0
 18 58  1  0
 19 59  1  0
 19 60  1  0
 20 61  1  0
 20 62  1  0
 21 63  1  0
 21 64  1  0
 23 65  1  0
M  END
$$$$
