@<TRIPOS>MOLECULE
*****
 49 53 0 0 0
SMALL
GASTEIGER

@<TRIPOS>ATOM
      1 C          -0.9713    0.0142    1.3770 C.3     1  UNL1        0.0150
      2 N          -0.7904   -0.5761    0.0763 N.ar    1  UNL1       -0.3132
      3 C           0.3429   -0.7811   -0.5761 C.ar    1  UNL1        0.1654
      4 C           1.7498   -0.5208   -0.2937 C.ar    1  UNL1        0.0376
      5 C           2.5248   -0.0196   -1.3644 C.ar    1  UNL1       -0.0490
      6 C           3.8598    0.2121   -1.2276 C.ar    1  UNL1       -0.0518
      7 C           4.5003   -0.0327   -0.0458 C.ar    1  UNL1        0.0032
      8 C           5.9469    0.2236    0.0954 C.ar    1  UNL1        0.0890
      9 C           6.7276    0.7094   -0.9131 C.ar    1  UNL1        0.0535
     10 N           8.0528    0.9330   -0.7472 N.ar    1  UNL1       -0.2596
     11 C           8.5998    0.6648    0.4476 C.ar    1  UNL1        0.0457
     12 C           7.8455    0.1772    1.4788 C.ar    1  UNL1        0.0464
     13 N           6.5380   -0.0322    1.2800 N.ar    1  UNL1       -0.2520
     14 C           3.7763   -0.5210    1.0117 C.ar    1  UNL1       -0.0335
     15 C           2.4022   -0.7653    0.8843 C.ar    1  UNL1        0.0523
     16 CL          1.5736   -1.4840    2.2426 Cl      1  UNL1       -0.0828
     17 N          -0.0232   -1.2868   -1.7958 N.ar    1  UNL1       -0.1291
     18 N          -1.3187   -1.3678   -1.8304 N.ar    1  UNL1       -0.1331
     19 C          -1.8642   -0.9404   -0.6922 C.ar    1  UNL1        0.1442
     20 C          -3.2789   -0.8614   -0.3147 C.3     1  UNL1        0.0606
     21 C          -3.8398    0.4798   -0.1581 C.ar    1  UNL1       -0.0336
     22 C          -4.7194    0.7811    0.8400 C.ar    1  UNL1       -0.0562
     23 C          -5.2395    2.0754    0.9742 C.ar    1  UNL1       -0.0431
     24 C          -4.8828    3.0814    0.1084 C.ar    1  UNL1        0.0410
     25 CL         -5.5356    4.7171    0.2725 Cl      1  UNL1       -0.0835
     26 C          -3.9972    2.7888   -0.9013 C.ar    1  UNL1       -0.0431
     27 C          -3.4924    1.5185   -1.0257 C.ar    1  UNL1       -0.0562
     28 C          -3.6474   -1.8591    0.7709 C.3     1  UNL1       -0.0050
     29 C          -4.8706   -2.2830   -0.0355 C.3     1  UNL1        0.1034
     30 F          -4.9830   -3.6548   -0.1578 F       1  UNL1       -0.2454
     31 C          -4.1948   -1.6685   -1.2510 C.3     1  UNL1       -0.0050
     32 H          -1.8687    0.7242    1.3308 H       1  UNL1        0.0457
     33 H          -1.1491   -0.6857    2.1933 H       1  UNL1        0.0457
     34 H          -0.1353    0.6947    1.5945 H       1  UNL1        0.0457
     35 H           1.9905    0.1713   -2.3078 H       1  UNL1        0.0625
     36 H           4.3768    0.5992   -2.1075 H       1  UNL1        0.0624
     37 H           6.2981    0.9304   -1.8853 H       1  UNL1        0.0851
     38 H           9.6608    0.8558    0.5431 H       1  UNL1        0.0845
     39 H           8.3069   -0.0347    2.4426 H       1  UNL1        0.0845
     40 H           4.2526   -0.7260    1.9618 H       1  UNL1        0.0639
     41 H          -5.0750    0.0734    1.5755 H       1  UNL1        0.0621
     42 H          -5.9287    2.2950    1.7624 H       1  UNL1        0.0632
     43 H          -3.7187    3.5714   -1.5764 H       1  UNL1        0.0632
     44 H          -2.7897    1.2666   -1.8183 H       1  UNL1        0.0621
     45 H          -2.9230   -2.7220    0.8047 H       1  UNL1        0.0306
     46 H          -3.8492   -1.4712    1.7655 H       1  UNL1        0.0306
     47 H          -5.8004   -1.7887    0.2477 H       1  UNL1        0.0652
     48 H          -4.8313   -1.0725   -1.9024 H       1  UNL1        0.0306
     49 H          -3.6079   -2.4030   -1.8417 H       1  UNL1        0.0306
@<TRIPOS>BOND
     1     1     2    1
     2     2     3   ar
     3     3     4    1
     4     4     5   ar
     5     5     6   ar
     6     6     7   ar
     7     7     8    1
     8     8     9   ar
     9     9    10   ar
    10    10    11   ar
    11    11    12   ar
    12    12    13   ar
    13     7    14   ar
    14    14    15   ar
    15    15    16    1
    16     3    17   ar
    17    17    18   ar
    18    18    19   ar
    19    19    20    1
    20    20    21    1
    21    21    22   ar
    22    22    23   ar
    23    23    24   ar
    24    24    25    1
    25    24    26   ar
    26    26    27   ar
    27    20    28    1
    28    28    29    1
    29    29    30    1
    30    29    31    1
    31    19     2   ar
    32    31    20    1
    33    15     4   ar
    34    27    21   ar
    35    13     8   ar
    36     1    32    1
    37     1    33    1
    38     1    34    1
    39     5    35    1
    40     6    36    1
    41     9    37    1
    42    11    38    1
    43    12    39    1
    44    14    40    1
    45    22    41    1
    46    23    42    1
    47    26    43    1
    48    27    44    1
    49    28    45    1
    50    28    46    1
    51    29    47    1
    52    31    48    1
    53    31    49    1
