@<TRIPOS>MOLECULE
*****
 38 40 0 0 0
SMALL
GASTEIGER

@<TRIPOS>ATOM
      1 C          -2.7495    2.1402    0.3626 C.3     1  UNL1       -0.0402
      2 C          -2.8356    0.6437    0.1951 C.3     1  UNL1        0.0575
      3 C          -3.5220   -0.0118    1.3493 C.3     1  UNL1       -0.0402
      4 C          -3.5190    0.3524   -1.1236 C.3     1  UNL1       -0.0402
      5 N          -1.4902    0.0642    0.1132 N.ar    1  UNL1       -0.2403
      6 N          -0.3629    0.6946    0.3246 N.ar    1  UNL1       -0.1681
      7 C           0.6891   -0.1645    0.1592 C.ar    1  UNL1        0.1054
      8 C           0.0892   -1.3389   -0.1646 C.ar    1  UNL1        0.0859
      9 C           0.7295   -2.5247   -0.4384 C.ar    1  UNL1        0.1308
     10 N           2.1186   -2.6804   -0.4283 N.pl3   1  UNL1       -0.3425
     11 N           0.0058   -3.6139   -0.7507 N.ar    1  UNL1       -0.2204
     12 C          -1.3497   -3.4982   -0.7845 C.ar    1  UNL1        0.1204
     13 N          -1.9772   -2.3172   -0.5122 N.ar    1  UNL1       -0.2161
     14 C          -1.2808   -1.2105   -0.1968 C.ar    1  UNL1        0.1643
     15 C           2.0431    0.3394    0.3418 C.ar    1  UNL1        0.0063
     16 C           3.0808   -0.1734    1.0905 C.ar    1  UNL1       -0.0523
     17 C           4.3187    0.4279    1.1360 C.ar    1  UNL1       -0.0577
     18 C           4.5833    1.5829    0.4293 C.ar    1  UNL1       -0.0201
     19 C           3.5878    2.1502   -0.3408 C.ar    1  UNL1        0.1175
     20 O           3.7996    3.3107   -1.0708 O.3     1  UNL1       -0.5067
     21 C           2.3639    1.5131   -0.3564 C.ar    1  UNL1       -0.0109
     22 H          -1.7482    2.5517    0.1685 H       1  UNL1        0.0253
     23 H          -3.4545    2.6734   -0.3386 H       1  UNL1        0.0253
     24 H          -3.1272    2.3784    1.3729 H       1  UNL1        0.0253
     25 H          -4.4338   -0.5479    1.0113 H       1  UNL1        0.0253
     26 H          -3.7523    0.7595    2.1230 H       1  UNL1        0.0253
     27 H          -2.8866   -0.7674    1.8754 H       1  UNL1        0.0253
     28 H          -2.8425    0.6686   -1.9442 H       1  UNL1        0.0253
     29 H          -4.5169    0.8339   -1.1770 H       1  UNL1        0.0253
     30 H          -3.6224   -0.7507   -1.2233 H       1  UNL1        0.0253
     31 H           2.5897   -2.1833   -1.1939 H       1  UNL1        0.1437
     32 H           2.7983   -3.1871    0.1788 H       1  UNL1        0.1437
     33 H          -1.9795   -4.3451   -1.0301 H       1  UNL1        0.1048
     34 H           2.8487   -1.0690    1.6450 H       1  UNL1        0.0624
     35 H           5.0513   -0.0698    1.7588 H       1  UNL1        0.0619
     36 H           5.5666    2.0310    0.4861 H       1  UNL1        0.0654
     37 H           3.5822    3.3460   -2.0711 H       1  UNL1        0.2921
     38 H           1.6045    1.9924   -0.9764 H       1  UNL1        0.0661
@<TRIPOS>BOND
     1     1     2    1
     2     2     3    1
     3     2     4    1
     4     2     5    1
     5     5     6   ar
     6     6     7   ar
     7     7     8   ar
     8     8     9   ar
     9     9    10    1
    10     9    11   ar
    11    11    12   ar
    12    12    13   ar
    13    13    14   ar
    14     7    15    1
    15    15    16   ar
    16    16    17   ar
    17    17    18   ar
    18    18    19   ar
    19    19    20    1
    20    19    21   ar
    21    14     5   ar
    22    21    15   ar
    23    14     8   ar
    24     1    22    1
    25     1    23    1
    26     1    24    1
    27     3    25    1
    28     3    26    1
    29     3    27    1
    30     4    28    1
    31     4    29    1
    32     4    30    1
    33    10    31    1
    34    10    32    1
    35    12    33    1
    36    16    34    1
    37    17    35    1
    38    18    36    1
    39    20    37    1
    40    21    38    1
