
     RDKit          3D

 38 40  0  0  0  0  0  0  0  0999 V2000
   -2.7495    2.1402    0.3626 C   0  0  0  0  0  0  0  0  0  0  0  0
   -2.8356    0.6437    0.1951 C   0  0  0  0  0  0  0  0  0  0  0  0
   -3.5220   -0.0118    1.3493 C   0  0  0  0  0  0  0  0  0  0  0  0
   -3.5190    0.3524   -1.1236 C   0  0  0  0  0  0  0  0  0  0  0  0
   -1.4902    0.0642    0.1132 N   0  0  0  0  0  0  0  0  0  0  0  0
   -0.3629    0.6946    0.3246 N   0  0  0  0  0  0  0  0  0  0  0  0
    0.6891   -0.1645    0.1592 C   0  0  0  0  0  0  0  0  0  0  0  0
    0.0892   -1.3389   -0.1646 C   0  0  0  0  0  0  0  0  0  0  0  0
    0.7295   -2.5247   -0.4384 C   0  0  0  0  0  0  0  0  0  0  0  0
    2.1186   -2.6804   -0.4283 N   0  0  0  0  0  0  0  0  0  0  0  0
    0.0058   -3.6139   -0.7507 N   0  0  0  0  0  0  0  0  0  0  0  0
   -1.3497   -3.4982   -0.7845 C   0  0  0  0  0  0  0  0  0  0  0  0
   -1.9772   -2.3172   -0.5122 N   0  0  0  0  0  0  0  0  0  0  0  0
   -1.2808   -1.2105   -0.1968 C   0  0  0  0  0  0  0  0  0  0  0  0
    2.0431    0.3394    0.3418 C   0  0  0  0  0  0  0  0  0  0  0  0
    3.0808   -0.1734    1.0905 C   0  0  0  0  0  0  0  0  0  0  0  0
    4.3187    0.4279    1.1360 C   0  0  0  0  0  0  0  0  0  0  0  0
    4.5833    1.5829    0.4293 C   0  0  0  0  0  0  0  0  0  0  0  0
    3.5878    2.1502   -0.3408 C   0  0  0  0  0  0  0  0  0  0  0  0
    3.7996    3.3107   -1.0708 O   0  0  0  0  0  0  0  0  0  0  0  0
    2.3639    1.5131   -0.3564 C   0  0  0  0  0  0  0  0  0  0  0  0
   -1.7482    2.5517    0.1685 H   0  0  0  0  0  0  0  0  0  0  0  0
   -3.4545    2.6734   -0.3386 H   0  0  0  0  0  0  0  0  0  0  0  0
   -3.1272    2.3784    1.3729 H   0  0  0  0  0  0  0  0  0  0  0  0
   -4.4338   -0.5479    1.0113 H   0  0  0  0  0  0  0  0  0  0  0  0
   -3.7523    0.7595    2.1230 H   0  0  0  0  0  0  0  0  0  0  0  0
   -2.8866   -0.7674    1.8754 H   0  0  0  0  0  0  0  0  0  0  0  0
   -2.8425    0.6686   -1.9442 H   0  0  0  0  0  0  0  0  0  0  0  0
   -4.5169    0.8339   -1.1770 H   0  0  0  0  0  0  0  0  0  0  0  0
   -3.6224   -0.7507   -1.2233 H   0  0  0  0  0  0  0  0  0  0  0  0
    2.5897   -2.1833   -1.1939 H   0  0  0  0  0  0  0  0  0  0  0  0
    2.7983   -3.1871    0.1788 H   0  0  0  0  0  0  0  0  0  0  0  0
   -1.9795   -4.3451   -1.0301 H   0  0  0  0  0  0  0  0  0  0  0  0
    2.8487   -1.0690    1.6450 H   0  0  0  0  0  0  0  0  0  0  0  0
    5.0513   -0.0698    1.7588 H   0  0  0  0  0  0  0  0  0  0  0  0
    5.5666    2.0310    0.4861 H   0  0  0  0  0  0  0  0  0  0  0  0
    3.5822    3.3460   -2.0711 H   0  0  0  0  0  0  0  0  0  0  0  0
    1.6045    1.9924   -0.9764 H   0  0  0  0  0  0  0  0  0  0  0  0
  1  2  1  0
  2  3  1  0
  2  4  1  0
  2  5  1  0
  5  6  1  0
  6  7  2  0
  7  8  1  0
  8  9  2  0
  9 10  1  0
  9 11  1  0
 11 12  2  0
 12 13  1  0
 13 14  2  0
  7 15  1  0
 15 16  2  0
 16 17  1  0
 17 18  2  0
 18 19  1  0
 19 20  1  0
 19 21  2  0
 14  5  1  0
 21 15  1  0
 14  8  1  0
  1 22  1  0
  1 23  1  0
  1 24  1  0
  3 25  1  0
  3 26  1  0
  3 27  1  0
  4 28  1  0
  4 29  1  0
  4 30  1  0
 10 31  1  0
 10 32  1  0
 12 33  1  0
 16 34  1  0
 17 35  1  0
 18 36  1  0
 20 37  1  0
 21 38  1  0
M  END
$$$$
