@<TRIPOS>MOLECULE
*****
 71 73 0 0 0
SMALL
GASTEIGER

@<TRIPOS>ATOM
      1 C           1.9913    2.2849   -2.4550 C.3     1  UNL1       -0.0361
      2 C           2.6525    0.9634   -2.7948 C.3     1  UNL1        0.0873
      3 O           2.0421   -0.1100   -2.1764 O.3     1  UNL1       -0.3431
      4 C           2.4604   -0.3304   -0.8907 C.3     1  UNL1        0.1884
      5 O           1.7610   -1.2622   -0.1730 O.3     1  UNL1       -0.3378
      6 C           1.2400   -0.8699    1.0240 C.3     1  UNL1        0.1406
      7 C           1.8676   -1.5721    2.2127 C.3     1  UNL1        0.1144
      8 O           1.4555   -0.8499    3.3317 O.3     1  UNL1       -0.3864
      9 C           1.2954   -2.9606    2.2766 C.3     1  UNL1        0.1119
     10 O           1.9804   -3.8015    3.1553 O.3     1  UNL1       -0.3865
     11 C          -0.1576   -2.8252    2.6823 C.3     1  UNL1        0.1130
     12 C          -0.2555   -3.0512    4.1628 C.3     1  UNL1        0.0730
     13 O          -1.5961   -2.8976    4.5734 O.3     1  UNL1       -0.3924
     14 O          -0.6019   -1.5175    2.4175 O.3     1  UNL1       -0.3405
     15 C          -0.2379   -1.1357    1.1162 C.3     1  UNL1        0.1888
     16 O          -0.9188    0.0017    0.7970 O.3     1  UNL1       -0.3402
     17 C          -1.7949   -0.1283   -0.2985 C.3     1  UNL1        0.1177
     18 C          -3.1729    0.0884    0.2230 C.3     1  UNL1        0.1068
     19 O          -4.0050   -0.9692   -0.1655 O.3     1  UNL1       -0.3871
     20 C          -3.8098    1.3711   -0.1661 C.3     1  UNL1        0.1021
     21 N          -3.5816    2.4252    0.8335 N.am    1  UNL1       -0.3053
     22 C          -4.6527    3.0733    1.4837 C.2     1  UNL1        0.2104
     23 C          -4.3246    4.1245    2.4779 C.3     1  UNL1        0.0122
     24 O          -5.8551    2.7631    1.2227 O.2     1  UNL1       -0.2761
     25 C          -3.3885    1.9477   -1.4756 C.3     1  UNL1        0.1776
     26 O          -4.0871    1.3414   -2.5093 O.3     1  UNL1       -0.3654
     27 O          -2.0324    1.9283   -1.5767 O.3     1  UNL1       -0.3414
     28 C          -1.3940    0.7384   -1.4313 C.3     1  UNL1        0.1133
     29 C          -1.4218    0.0045   -2.7710 C.3     1  UNL1        0.0730
     30 O          -0.7872   -1.2334   -2.7040 O.3     1  UNL1       -0.3924
     31 C           3.9253   -0.8169   -0.8870 C.3     1  UNL1        0.1341
     32 O           3.9006   -2.1905   -0.8136 O.3     1  UNL1       -0.3841
     33 C           4.5698   -0.4309   -2.2082 C.3     1  UNL1        0.1140
     34 O           5.9447   -0.5182   -2.0150 O.3     1  UNL1       -0.3864
     35 C           4.1268    0.9877   -2.4822 C.3     1  UNL1        0.1095
     36 O           4.3202    1.7748   -1.3227 O.3     1  UNL1       -0.3866
     37 H           1.8245    2.3137   -1.3569 H       1  UNL1        0.0255
     38 H           2.6773    3.0719   -2.8270 H       1  UNL1        0.0255
     39 H           0.9874    2.3054   -2.9596 H       1  UNL1        0.0255
     40 H           2.5918    0.8153   -3.9088 H       1  UNL1        0.0621
     41 H           2.5105    0.6665   -0.3696 H       1  UNL1        0.0938
     42 H           1.4788    0.2154    1.1765 H       1  UNL1        0.0675
     43 H           2.9604   -1.5422    2.2081 H       1  UNL1        0.0648
     44 H           1.8884    0.0521    3.2392 H       1  UNL1        0.2100
     45 H           1.3068   -3.4294    1.2609 H       1  UNL1        0.0647
     46 H           2.7904   -4.1271    2.7002 H       1  UNL1        0.2100
     47 H          -0.7686   -3.5730    2.1522 H       1  UNL1        0.0647
     48 H           0.1319   -4.0419    4.4754 H       1  UNL1        0.0584
     49 H           0.3074   -2.3059    4.7483 H       1  UNL1        0.0584
     50 H          -2.1577   -3.0293    3.7668 H       1  UNL1        0.2095
     51 H          -0.4963   -1.9662    0.4073 H       1  UNL1        0.0938
     52 H          -1.6787   -1.2021   -0.6083 H       1  UNL1        0.0650
     53 H          -3.2031    0.0494    1.3515 H       1  UNL1        0.0640
     54 H          -4.8121   -0.9365    0.4283 H       1  UNL1        0.2100
     55 H          -4.9344    1.2742   -0.2196 H       1  UNL1        0.0575
     56 H          -2.5815    2.6614    1.0297 H       1  UNL1        0.1492
     57 H          -3.6352    3.7817    3.2645 H       1  UNL1        0.0322
     58 H          -5.2440    4.5333    2.9348 H       1  UNL1        0.0322
     59 H          -3.8633    4.9890    1.9213 H       1  UNL1        0.0322
     60 H          -3.7003    3.0245   -1.4724 H       1  UNL1        0.0928
     61 H          -4.5526    0.5311   -2.1999 H       1  UNL1        0.2125
     62 H          -0.3055    0.9943   -1.2761 H       1  UNL1        0.0647
     63 H          -2.4432   -0.1861   -3.1378 H       1  UNL1        0.0584
     64 H          -0.9064    0.5929   -3.5573 H       1  UNL1        0.0584
     65 H          -1.0496   -1.7182   -3.5275 H       1  UNL1        0.2095
     66 H           4.4617   -0.4073   -0.0149 H       1  UNL1        0.0671
     67 H           3.3758   -2.5353   -1.6010 H       1  UNL1        0.2101
     68 H           4.1736   -1.0847   -2.9866 H       1  UNL1        0.0648
     69 H           6.4483   -0.2773   -2.8392 H       1  UNL1        0.2100
     70 H           4.7224    1.4302   -3.3129 H       1  UNL1        0.0646
     71 H           4.2367    2.7130   -1.5634 H       1  UNL1        0.2100
@<TRIPOS>BOND
     1     1     2    1
     2     2     3    1
     3     3     4    1
     4     4     5    1
     5     5     6    1
     6     6     7    1
     7     7     8    1
     8     7     9    1
     9     9    10    1
    10     9    11    1
    11    11    12    1
    12    12    13    1
    13    11    14    1
    14    14    15    1
    15    15    16    1
    16    16    17    1
    17    17    18    1
    18    18    19    1
    19    18    20    1
    20    20    21    1
    21    21    22   am
    22    22    23    1
    23    22    24    2
    24    20    25    1
    25    25    26    1
    26    25    27    1
    27    27    28    1
    28    28    29    1
    29    29    30    1
    30     4    31    1
    31    31    32    1
    32    31    33    1
    33    33    34    1
    34    33    35    1
    35    35    36    1
    36    35     2    1
    37    15     6    1
    38    28    17    1
    39     1    37    1
    40     1    38    1
    41     1    39    1
    42     2    40    1
    43     4    41    1
    44     6    42    1
    45     7    43    1
    46     8    44    1
    47     9    45    1
    48    10    46    1
    49    11    47    1
    50    12    48    1
    51    12    49    1
    52    13    50    1
    53    15    51    1
    54    17    52    1
    55    18    53    1
    56    19    54    1
    57    20    55    1
    58    21    56    1
    59    23    57    1
    60    23    58    1
    61    23    59    1
    62    25    60    1
    63    26    61    1
    64    28    62    1
    65    29    63    1
    66    29    64    1
    67    30    65    1
    68    31    66    1
    69    32    67    1
    70    33    68    1
    71    34    69    1
    72    35    70    1
    73    36    71    1
