@<TRIPOS>MOLECULE
*****
 47 51 0 0 0
SMALL
GASTEIGER

@<TRIPOS>ATOM
      1 C           7.8403   -3.0912    0.5414 C.3     1  UNL1       -0.0012
      2 C           6.5463   -2.4369    0.1191 C.ar    1  UNL1        0.1692
      3 N           5.4784   -3.0086   -0.4611 N.ar    1  UNL1       -0.0610
      4 O           4.5604   -2.1190   -0.6720 O.2     1  UNL1       -0.3295
      5 C           4.9747   -0.9273   -0.2433 C.ar    1  UNL1        0.2958
      6 C           4.2421    0.3254   -0.2984 C.ar    1  UNL1        0.2221
      7 N           4.7181    1.4808   -0.8219 N.ar    1  UNL1       -0.1241
      8 N           3.8209    2.4351   -0.6991 N.ar    1  UNL1       -0.1319
      9 C           2.7317    1.9185   -0.0871 C.ar    1  UNL1        0.1542
     10 N           3.0192    0.6275    0.1436 N.ar    1  UNL1       -0.3040
     11 C           2.0199   -0.2367    0.7907 C.3     1  UNL1        0.0424
     12 C           0.6432    0.1089    0.2334 C.3     1  UNL1        0.0338
     13 N           0.3852    1.5251    0.2280 N.am    1  UNL1       -0.2860
     14 C          -0.9416    1.9934    0.1258 C.2     1  UNL1        0.2472
     15 O          -1.1573    3.2572    0.1050 O.2     1  UNL1       -0.2700
     16 C          -2.1510    1.1895    0.0398 C.ar    1  UNL1        0.0370
     17 C          -2.5720    0.3890    1.0713 C.ar    1  UNL1       -0.0490
     18 C          -3.7563   -0.3574    1.0112 C.ar    1  UNL1       -0.0528
     19 C          -4.5202   -0.2728   -0.1357 C.ar    1  UNL1       -0.0113
     20 C          -5.7662   -1.0539   -0.1814 C.ar    1  UNL1        0.0193
     21 C          -6.7162   -1.1449   -1.1041 C.ar    1  UNL1       -0.0469
     22 C          -7.7967   -1.9230   -0.9342 C.ar    1  UNL1       -0.0541
     23 C          -7.8685   -2.6343    0.2648 C.ar    1  UNL1       -0.0237
     24 S          -6.3497   -2.1286    1.0922 S.2     1  UNL1       -0.0967
     25 C          -4.1279    0.5177   -1.1857 C.ar    1  UNL1       -0.0528
     26 C          -2.9621    1.2387   -1.1016 C.ar    1  UNL1       -0.0490
     27 C           1.4356    2.4764    0.3543 C.3     1  UNL1        0.0834
     28 C           1.1628    3.7946   -0.3442 C.3     1  UNL1       -0.0393
     29 N           6.2135   -1.1481    0.2452 N.ar    1  UNL1       -0.1895
     30 H           8.1708   -2.6995    1.5483 H       1  UNL1        0.0309
     31 H           8.6083   -2.7333   -0.1731 H       1  UNL1        0.0309
     32 H           7.6984   -4.1688    0.5679 H       1  UNL1        0.0309
     33 H           2.0151   -0.1174    1.8906 H       1  UNL1        0.0508
     34 H           2.1931   -1.3032    0.5725 H       1  UNL1        0.0508
     35 H           0.5111   -0.2725   -0.8017 H       1  UNL1        0.0482
     36 H          -0.0760   -0.3925    0.8897 H       1  UNL1        0.0482
     37 H          -1.9954    0.3128    1.9959 H       1  UNL1        0.0625
     38 H          -4.0610   -0.9807    1.8436 H       1  UNL1        0.0624
     39 H          -6.5986   -0.5401   -2.0625 H       1  UNL1        0.0629
     40 H          -8.6320   -2.0395   -1.6777 H       1  UNL1        0.0623
     41 H          -8.6326   -3.3366    0.6565 H       1  UNL1        0.0693
     42 H          -4.7457    0.5566   -2.0602 H       1  UNL1        0.0624
     43 H          -2.6581    1.8632   -1.9363 H       1  UNL1        0.0625
     44 H           1.5624    2.6532    1.4691 H       1  UNL1        0.0579
     45 H           2.1800    4.2282   -0.5674 H       1  UNL1        0.0252
     46 H           0.6964    4.5506    0.3238 H       1  UNL1        0.0252
     47 H           0.6573    3.6245   -1.2867 H       1  UNL1        0.0252
@<TRIPOS>BOND
     1     1     2    1
     2     2     3   ar
     3     3     4   ar
     4     4     5   ar
     5     5     6    1
     6     6     7   ar
     7     7     8   ar
     8     8     9   ar
     9     9    10   ar
    10    10    11    1
    11    11    12    1
    12    12    13    1
    13    13    14   am
    14    14    15    2
    15    14    16    1
    16    16    17   ar
    17    17    18   ar
    18    18    19   ar
    19    19    20    1
    20    20    21   ar
    21    21    22   ar
    22    22    23   ar
    23    23    24   ar
    24    19    25   ar
    25    25    26   ar
    26    13    27    1
    27    27    28    1
    28     5    29   ar
    29    29     2   ar
    30    10     6   ar
    31    26    16   ar
    32    27     9    1
    33    24    20   ar
    34     1    30    1
    35     1    31    1
    36     1    32    1
    37    11    33    1
    38    11    34    1
    39    12    35    1
    40    12    36    1
    41    17    37    1
    42    18    38    1
    43    21    39    1
    44    22    40    1
    45    23    41    1
    46    25    42    1
    47    26    43    1
    48    27    44    1
    49    28    45    1
    50    28    46    1
    51    28    47    1
