@<TRIPOS>MOLECULE
*****
 57 58 0 0 0
SMALL
GASTEIGER

@<TRIPOS>ATOM
      1 C          -6.9235    1.5674    0.9002 C.3     1  UNL1        0.0108
      2 C          -6.0335    0.3458    1.0404 C.3     1  UNL1        0.2648
      3 C          -5.4049    0.2814    2.4166 C.3     1  UNL1        0.0108
      4 N          -6.8560   -0.8396    0.9097 N.2     1  UNL1       -0.0662
      5 C          -6.7157   -1.7042   -0.0325 C.cat   1  UNL1        0.4202
      6 N          -7.5859   -2.8162   -0.0420 N.pl3   1  UNL1       -0.2468
      7 N          -5.7167   -1.5422   -1.0299 N.2     1  UNL1       -0.0050
      8 C          -4.9081   -0.5380   -1.0479 C.2     1  UNL1        0.4149
      9 N          -3.9094   -0.4102   -2.0763 N.pl3   1  UNL1       -0.2472
     10 N          -5.0457    0.4309   -0.0148 N.3     1  UNL1       -0.0840
     11 O          -4.2222    1.5012    0.0012 O.3     1  UNL1       -0.2095
     12 C          -2.9199    1.1570    0.3695 C.3     1  UNL1        0.1240
     13 C          -2.0387    2.3622    0.3496 C.3     1  UNL1        0.1166
     14 O          -0.7358    2.1461    0.6939 O.3     1  UNL1       -0.4896
     15 C           0.2707    1.4167    0.1656 C.ar    1  UNL1        0.1207
     16 C           0.2039    0.6626   -0.9713 C.ar    1  UNL1       -0.0193
     17 C           1.2815   -0.0445   -1.4253 C.ar    1  UNL1       -0.0475
     18 C           2.5247   -0.0588   -0.7799 C.ar    1  UNL1        0.0219
     19 C           3.5509   -0.8870   -1.3208 C.2     1  UNL1        0.1861
     20 O           3.1558   -1.7825   -2.1847 O.2     1  UNL1       -0.2873
     21 C           4.9594   -0.9120   -1.0853 C.2     1  UNL1       -0.0138
     22 C           5.7407   -0.1689   -0.3643 C.2     1  UNL1       -0.0510
     23 C           7.1963   -0.3629   -0.2452 C.ar    1  UNL1       -0.0249
     24 C           7.9262    0.5039    0.5642 C.ar    1  UNL1       -0.0546
     25 C           9.2976    0.3959    0.7344 C.ar    1  UNL1       -0.0612
     26 C           9.9967   -0.5946    0.0936 C.ar    1  UNL1       -0.0617
     27 C           9.2864   -1.4558   -0.7078 C.ar    1  UNL1       -0.0612
     28 C           7.8954   -1.3414   -0.8766 C.ar    1  UNL1       -0.0546
     29 C           2.5912    0.7027    0.3699 C.ar    1  UNL1       -0.0475
     30 C           1.5004    1.4257    0.8387 C.ar    1  UNL1       -0.0193
     31 CL          0.6874    0.0000    0.0000 Cl      2  UNL2       -0.1454
     32 H          -7.6851    1.3566    0.1257 H       1  UNL1        0.0301
     33 H          -7.3767    1.8683    1.8672 H       1  UNL1        0.0301
     34 H          -6.3051    2.4224    0.5007 H       1  UNL1        0.0301
     35 H          -4.9870    1.2542    2.6945 H       1  UNL1        0.0301
     36 H          -6.1983    0.0357    3.1744 H       1  UNL1        0.0301
     37 H          -4.7021   -0.5708    2.4630 H       1  UNL1        0.0301
     38 H          -8.3996   -2.8382   -0.6760 H       1  UNL1        0.2415
     39 H          -7.4149   -3.6193    0.5874 H       1  UNL1        0.2415
     40 H          -3.8278    0.4241   -2.6940 H       1  UNL1        0.2414
     41 H          -3.2525   -1.2003   -2.1863 H       1  UNL1        0.2414
     42 H          -3.0181    0.7699    1.4222 H       1  UNL1        0.0634
     43 H          -2.5780    0.3678   -0.2802 H       1  UNL1        0.0634
     44 H          -2.1822    2.8912   -0.6260 H       1  UNL1        0.0721
     45 H          -2.4633    3.0822    1.1190 H       1  UNL1        0.0721
     46 H          -0.6902    0.6178   -1.5427 H       1  UNL1        0.0654
     47 H           1.1916   -0.6244   -2.3268 H       1  UNL1        0.0626
     48 H           5.5474   -1.7298   -1.6123 H       1  UNL1        0.0656
     49 H           5.3115    0.6618    0.1509 H       1  UNL1        0.0625
     50 H           7.3652    1.2900    1.0718 H       1  UNL1        0.0623
     51 H           9.8468    1.0747    1.3640 H       1  UNL1        0.0618
     52 H          11.0660   -0.7066    0.2047 H       1  UNL1        0.0618
     53 H           9.8294   -2.2525   -1.2267 H       1  UNL1        0.0618
     54 H           7.4278   -2.0525   -1.5163 H       1  UNL1        0.0623
     55 H           3.4941    0.7223    0.9607 H       1  UNL1        0.0626
     56 H           1.6396    1.9914    1.7382 H       1  UNL1        0.0654
     57 H          -0.6874    0.0000    0.0000 H       1  UNL1        0.1454
@<TRIPOS>BOND
     1     1     2    1
     2     2     3    1
     3     2     4    1
     4     4     5    2
     5     5     6    1
     6     5     7    1
     7     7     8    2
     8     8     9    1
     9     8    10    1
    10    10    11    1
    11    11    12    1
    12    12    13    1
    13    13    14    1
    14    14    15    1
    15    15    16   ar
    16    16    17   ar
    17    17    18   ar
    18    18    19    1
    19    19    20    2
    20    19    21    1
    21    21    22    2
    22    22    23    1
    23    23    24   ar
    24    24    25   ar
    25    25    26   ar
    26    26    27   ar
    27    27    28   ar
    28    18    29   ar
    29    29    30   ar
    30    10     2    1
    31    30    15   ar
    32    28    23   ar
    33     1    32    1
    34     1    33    1
    35     1    34    1
    36     3    35    1
    37     3    36    1
    38     3    37    1
    39     6    38    1
    40     6    39    1
    41     9    40    1
    42     9    41    1
    43    12    42    1
    44    12    43    1
    45    13    44    1
    46    13    45    1
    47    16    46    1
    48    17    47    1
    49    21    48    1
    50    22    49    1
    51    24    50    1
    52    25    51    1
    53    26    52    1
    54    27    53    1
    55    28    54    1
    56    29    55    1
    57    30    56    1
    58    31    57    1
