
     RDKit          3D

 57 58  0  0  0  0  0  0  0  0999 V2000
   -6.9235    1.5674    0.9002 C   0  0  0  0  0  0  0  0  0  0  0  0
   -6.0335    0.3458    1.0404 C   0  0  0  0  0  0  0  0  0  0  0  0
   -5.4049    0.2814    2.4166 C   0  0  0  0  0  0  0  0  0  0  0  0
   -6.8560   -0.8396    0.9097 N   0  0  0  0  0  0  0  0  0  0  0  0
   -6.7157   -1.7042   -0.0325 C   0  0  0  0  0  0  0  0  0  0  0  0
   -7.5859   -2.8162   -0.0420 N   0  0  0  0  0  0  0  0  0  0  0  0
   -5.7167   -1.5422   -1.0299 N   0  0  0  0  0  0  0  0  0  0  0  0
   -4.9081   -0.5380   -1.0479 C   0  0  0  0  0  0  0  0  0  0  0  0
   -3.9094   -0.4102   -2.0763 N   0  0  0  0  0  0  0  0  0  0  0  0
   -5.0457    0.4309   -0.0148 N   0  0  0  0  0  0  0  0  0  0  0  0
   -4.2222    1.5012    0.0012 O   0  0  0  0  0  0  0  0  0  0  0  0
   -2.9199    1.1570    0.3695 C   0  0  0  0  0  0  0  0  0  0  0  0
   -2.0387    2.3622    0.3496 C   0  0  0  0  0  0  0  0  0  0  0  0
   -0.7358    2.1461    0.6939 O   0  0  0  0  0  0  0  0  0  0  0  0
    0.2707    1.4167    0.1656 C   0  0  0  0  0  0  0  0  0  0  0  0
    0.2039    0.6626   -0.9713 C   0  0  0  0  0  0  0  0  0  0  0  0
    1.2815   -0.0445   -1.4253 C   0  0  0  0  0  0  0  0  0  0  0  0
    2.5247   -0.0588   -0.7799 C   0  0  0  0  0  0  0  0  0  0  0  0
    3.5509   -0.8870   -1.3208 C   0  0  0  0  0  0  0  0  0  0  0  0
    3.1558   -1.7825   -2.1847 O   0  0  0  0  0  0  0  0  0  0  0  0
    4.9594   -0.9120   -1.0853 C   0  0  0  0  0  0  0  0  0  0  0  0
    5.7407   -0.1689   -0.3643 C   0  0  0  0  0  0  0  0  0  0  0  0
    7.1963   -0.3629   -0.2452 C   0  0  0  0  0  0  0  0  0  0  0  0
    7.9262    0.5039    0.5642 C   0  0  0  0  0  0  0  0  0  0  0  0
    9.2976    0.3959    0.7344 C   0  0  0  0  0  0  0  0  0  0  0  0
    9.9967   -0.5946    0.0936 C   0  0  0  0  0  0  0  0  0  0  0  0
    9.2864   -1.4558   -0.7078 C   0  0  0  0  0  0  0  0  0  0  0  0
    7.8954   -1.3414   -0.8766 C   0  0  0  0  0  0  0  0  0  0  0  0
    2.5912    0.7027    0.3699 C   0  0  0  0  0  0  0  0  0  0  0  0
    1.5004    1.4257    0.8387 C   0  0  0  0  0  0  0  0  0  0  0  0
    0.6874    0.0000    0.0000 Cl  0  0  0  0  0  0  0  0  0  0  0  0
   -7.6851    1.3566    0.1257 H   0  0  0  0  0  0  0  0  0  0  0  0
   -7.3767    1.8683    1.8672 H   0  0  0  0  0  0  0  0  0  0  0  0
   -6.3051    2.4224    0.5007 H   0  0  0  0  0  0  0  0  0  0  0  0
   -4.9870    1.2542    2.6945 H   0  0  0  0  0  0  0  0  0  0  0  0
   -6.1983    0.0357    3.1744 H   0  0  0  0  0  0  0  0  0  0  0  0
   -4.7021   -0.5708    2.4630 H   0  0  0  0  0  0  0  0  0  0  0  0
   -8.3996   -2.8382   -0.6760 H   0  0  0  0  0  0  0  0  0  0  0  0
   -7.4149   -3.6193    0.5874 H   0  0  0  0  0  0  0  0  0  0  0  0
   -3.8278    0.4241   -2.6940 H   0  0  0  0  0  0  0  0  0  0  0  0
   -3.2525   -1.2003   -2.1863 H   0  0  0  0  0  0  0  0  0  0  0  0
   -3.0181    0.7699    1.4222 H   0  0  0  0  0  0  0  0  0  0  0  0
   -2.5780    0.3678   -0.2802 H   0  0  0  0  0  0  0  0  0  0  0  0
   -2.1822    2.8912   -0.6260 H   0  0  0  0  0  0  0  0  0  0  0  0
   -2.4633    3.0822    1.1190 H   0  0  0  0  0  0  0  0  0  0  0  0
   -0.6902    0.6178   -1.5427 H   0  0  0  0  0  0  0  0  0  0  0  0
    1.1916   -0.6244   -2.3268 H   0  0  0  0  0  0  0  0  0  0  0  0
    5.5474   -1.7298   -1.6123 H   0  0  0  0  0  0  0  0  0  0  0  0
    5.3115    0.6618    0.1509 H   0  0  0  0  0  0  0  0  0  0  0  0
    7.3652    1.2900    1.0718 H   0  0  0  0  0  0  0  0  0  0  0  0
    9.8468    1.0747    1.3640 H   0  0  0  0  0  0  0  0  0  0  0  0
   11.0660   -0.7066    0.2047 H   0  0  0  0  0  0  0  0  0  0  0  0
    9.8294   -2.2525   -1.2267 H   0  0  0  0  0  0  0  0  0  0  0  0
    7.4278   -2.0525   -1.5163 H   0  0  0  0  0  0  0  0  0  0  0  0
    3.4941    0.7223    0.9607 H   0  0  0  0  0  0  0  0  0  0  0  0
    1.6396    1.9914    1.7382 H   0  0  0  0  0  0  0  0  0  0  0  0
   -0.6874    0.0000    0.0000 H   0  0  0  0  0  0  0  0  0  0  0  0
  1  2  1  0
  2  3  1  0
  2  4  1  0
  4  5  2  0
  5  6  1  0
  5  7  1  0
  7  8  2  0
  8  9  1  0
  8 10  1  0
 10 11  1  0
 11 12  1  0
 12 13  1  0
 13 14  1  0
 14 15  1  0
 15 16  2  0
 16 17  1  0
 17 18  2  0
 18 19  1  0
 19 20  2  0
 19 21  1  0
 21 22  2  0
 22 23  1  0
 23 24  2  0
 24 25  1  0
 25 26  2  0
 26 27  1  0
 27 28  2  0
 18 29  1  0
 29 30  2  0
 10  2  1  0
 30 15  1  0
 28 23  1  0
  1 32  1  0
  1 33  1  0
  1 34  1  0
  3 35  1  0
  3 36  1  0
  3 37  1  0
  6 38  1  0
  6 39  1  0
  9 40  1  0
  9 41  1  0
 12 42  1  0
 12 43  1  0
 13 44  1  0
 13 45  1  0
 16 46  1  0
 17 47  1  0
 21 48  1  0
 22 49  1  0
 24 50  1  0
 25 51  1  0
 26 52  1  0
 27 53  1  0
 28 54  1  0
 29 55  1  0
 30 56  1  0
 31 57  1  0
M  END
$$$$
