@<TRIPOS>MOLECULE
*****
 61 65 0 0 0
SMALL
GASTEIGER

@<TRIPOS>ATOM
      1 C          -5.9475   -1.0489   -5.8292 C.3     1  UNL1        0.0302
      2 N          -5.3834   -0.6135   -4.5702 N.ar    1  UNL1       -0.2738
      3 C          -4.3206   -1.1625   -3.9794 C.ar    1  UNL1        0.0343
      4 C          -4.0209   -0.5192   -2.7675 C.ar    1  UNL1        0.0364
      5 C          -2.9040   -0.8990   -1.9084 C.ar    1  UNL1        0.0637
      6 C          -2.0557   -1.9459   -2.2842 C.ar    1  UNL1       -0.0264
      7 C          -1.1249   -2.0908   -1.3206 C.ar    1  UNL1        0.0192
      8 C          -0.0719   -2.9969   -1.2637 C.ar    1  UNL1        0.0389
      9 N           0.7358   -2.9499   -0.2116 N.ar    1  UNL1       -0.2395
     10 C           0.5410   -2.0373    0.7888 C.ar    1  UNL1        0.1249
     11 N           1.4923   -2.0908    1.8259 N.pl3   1  UNL1       -0.2982
     12 C           2.7504   -1.4714    1.6278 C.ar    1  UNL1        0.0510
     13 C           3.0062   -0.8135    0.4172 C.ar    1  UNL1       -0.0385
     14 C           4.1917   -0.2118    0.1391 C.ar    1  UNL1       -0.0521
     15 C           5.1813   -0.2544    1.0925 C.ar    1  UNL1       -0.0149
     16 C           6.4468    0.3745    0.8350 C.ar    1  UNL1        0.0003
     17 C           7.2612    0.9343    1.7972 C.ar    1  UNL1       -0.0512
     18 C           8.4650    1.5285    1.4221 C.ar    1  UNL1       -0.0430
     19 C           8.8764    1.5769    0.1056 C.ar    1  UNL1        0.0276
     20 N           8.0567    1.0184   -0.8181 N.ar    1  UNL1       -0.2627
     21 C           6.8814    0.4337   -0.4873 C.ar    1  UNL1        0.0353
     22 C           4.9477   -0.8999    2.2970 C.ar    1  UNL1       -0.0338
     23 C           3.7316   -1.5104    2.5700 C.ar    1  UNL1        0.0627
     24 CL          3.4591   -2.3169    4.1084 Cl      1  UNL1       -0.0816
     25 C          -0.5114   -1.1432    0.7207 C.ar    1  UNL1        0.0031
     26 C          -1.3726   -1.1665   -0.3623 C.ar    1  UNL1        0.0649
     27 N          -2.4783   -0.4386   -0.7423 N.ar    1  UNL1       -0.2454
     28 C          -3.0192    0.5838    0.0612 C.2     1  UNL1        0.4209
     29 O          -3.9633    1.3433   -0.1566 O.2     1  UNL1       -0.2227
     30 O          -2.4272    0.8173    1.3317 O.3     1  UNL1       -0.4424
     31 C          -2.9624    1.8451    2.1560 C.3     1  UNL1        0.1070
     32 C          -2.8609    3.2052    1.5104 C.3     1  UNL1       -0.0253
     33 C          -2.2085    1.8541    3.4493 C.3     1  UNL1       -0.0253
     34 C          -4.4498    1.5946    2.4103 C.3     1  UNL1       -0.0253
     35 C          -4.9881    0.4449   -2.6952 C.ar    1  UNL1        0.0585
     36 N          -5.7777    0.3456   -3.7998 N.ar    1  UNL1       -0.1792
     37 H          -5.3197   -0.6442   -6.6753 H       1  UNL1        0.0473
     38 H          -5.8524   -2.1663   -5.9418 H       1  UNL1        0.0473
     39 H          -6.9869   -0.7435   -5.9310 H       1  UNL1        0.0473
     40 H          -3.7644   -1.9991   -4.3900 H       1  UNL1        0.0833
     41 H          -2.1241   -2.5512   -3.1999 H       1  UNL1        0.0645
     42 H           0.0961   -3.7188   -2.0425 H       1  UNL1        0.0837
     43 H           1.2843   -2.5646    2.7091 H       1  UNL1        0.1536
     44 H           2.2135   -0.7814   -0.3419 H       1  UNL1        0.0637
     45 H           4.3134    0.2786   -0.8218 H       1  UNL1        0.0624
     46 H           6.9250    0.8871    2.8142 H       1  UNL1        0.0625
     47 H           9.0836    1.9574    2.1866 H       1  UNL1        0.0633
     48 H           9.8132    2.0469   -0.1459 H       1  UNL1        0.0829
     49 H           6.2731    0.0081   -1.2705 H       1  UNL1        0.0836
     50 H           5.7120   -0.9382    3.0402 H       1  UNL1        0.0639
     51 H          -0.6433   -0.4431    1.5087 H       1  UNL1        0.0673
     52 H          -3.7940    3.7855    1.6789 H       1  UNL1        0.0268
     53 H          -2.0701    3.8197    2.0346 H       1  UNL1        0.0268
     54 H          -2.6293    3.1400    0.4283 H       1  UNL1        0.0268
     55 H          -2.9233    2.0108    4.3068 H       1  UNL1        0.0268
     56 H          -1.3901    2.6143    3.4821 H       1  UNL1        0.0268
     57 H          -1.7169    0.8712    3.6788 H       1  UNL1        0.0268
     58 H          -4.7647    0.6505    1.9083 H       1  UNL1        0.0268
     59 H          -5.0823    2.4030    1.9761 H       1  UNL1        0.0268
     60 H          -4.6565    1.5727    3.4943 H       1  UNL1        0.0268
     61 H          -5.1723    1.1856   -1.9562 H       1  UNL1        0.0854
@<TRIPOS>BOND
     1     1     2    1
     2     2     3   ar
     3     3     4   ar
     4     4     5    1
     5     5     6   ar
     6     6     7   ar
     7     7     8   ar
     8     8     9   ar
     9     9    10   ar
    10    10    11    1
    11    11    12    1
    12    12    13   ar
    13    13    14   ar
    14    14    15   ar
    15    15    16    1
    16    16    17   ar
    17    17    18   ar
    18    18    19   ar
    19    19    20   ar
    20    20    21   ar
    21    15    22   ar
    22    22    23   ar
    23    23    24    1
    24    10    25   ar
    25    25    26   ar
    26    26    27   ar
    27    27    28   am
    28    28    29    2
    29    28    30    1
    30    30    31    1
    31    31    32    1
    32    31    33    1
    33    31    34    1
    34     4    35   ar
    35    35    36   ar
    36    36     2   ar
    37    27     5   ar
    38    26     7   ar
    39    23    12   ar
    40    21    16   ar
    41     1    37    1
    42     1    38    1
    43     1    39    1
    44     3    40    1
    45     6    41    1
    46     8    42    1
    47    11    43    1
    48    13    44    1
    49    14    45    1
    50    17    46    1
    51    18    47    1
    52    19    48    1
    53    21    49    1
    54    22    50    1
    55    25    51    1
    56    32    52    1
    57    32    53    1
    58    32    54    1
    59    33    55    1
    60    33    56    1
    61    33    57    1
    62    34    58    1
    63    34    59    1
    64    34    60    1
    65    35    61    1
