@<TRIPOS>MOLECULE
*****
 29 31 0 0 0
SMALL
GASTEIGER

@<TRIPOS>ATOM
      1 O           4.7799    0.3123   -0.5219 O.3     1  UNL1       -0.3925
      2 C           3.8216   -0.6997   -0.5251 C.3     1  UNL1        0.0705
      3 C           2.4647   -0.0611   -0.4779 C.3     1  UNL1        0.0843
      4 C           2.2049    0.6544    0.8297 C.3     1  UNL1       -0.0203
      5 C           0.6934    0.8845    0.6920 C.3     1  UNL1       -0.0048
      6 C           0.3413   -0.1275   -0.3860 C.3     1  UNL1        0.1383
      7 O           1.4071   -0.9961   -0.4760 O.3     1  UNL1       -0.3510
      8 N          -0.8999   -0.7762   -0.0398 N.ar    1  UNL1       -0.2894
      9 C          -1.1100   -2.0726    0.2406 C.ar    1  UNL1        0.1004
     10 N          -2.4263   -2.2433    0.5111 N.ar    1  UNL1       -0.2286
     11 C          -3.0047   -1.0384    0.3908 C.ar    1  UNL1        0.1720
     12 C          -2.0591   -0.0967    0.0434 C.ar    1  UNL1        0.1469
     13 N          -2.5009    1.1646   -0.1121 N.ar    1  UNL1       -0.3303
     14 C          -3.7847    1.5272    0.0529 C.ar    1  UNL1        0.0988
     15 N          -4.6847    0.5821    0.3926 N.ar    1  UNL1       -0.1976
     16 C          -4.3362   -0.7064    0.5702 C.ar    1  UNL1        0.3006
     17 O          -5.2591   -1.4961    0.8850 O.2     1  UNL1       -0.2634
     18 H           4.3829    1.1653   -0.2593 H       1  UNL1        0.2095
     19 H           3.9081   -1.1700   -1.5401 H       1  UNL1        0.0583
     20 H           3.9752   -1.4727    0.2238 H       1  UNL1        0.0583
     21 H           2.2589    0.5919   -1.3366 H       1  UNL1        0.0620
     22 H           2.7252    1.6248    0.9174 H       1  UNL1        0.0292
     23 H           2.3743   -0.0395    1.6713 H       1  UNL1        0.0292
     24 H           0.1912    0.5814    1.6232 H       1  UNL1        0.0309
     25 H           0.4901    1.9258    0.3690 H       1  UNL1        0.0309
     26 H           0.2135    0.3501   -1.3776 H       1  UNL1        0.0839
     27 H          -0.3178   -2.8117    0.2350 H       1  UNL1        0.1030
     28 H          -1.7911    1.8861   -0.3756 H       1  UNL1        0.1682
     29 H          -4.0576    2.5574   -0.0901 H       1  UNL1        0.1028
@<TRIPOS>BOND
     1     1     2    1
     2     2     3    1
     3     3     4    1
     4     4     5    1
     5     5     6    1
     6     6     7    1
     7     6     8    1
     8     8     9   ar
     9     9    10   ar
    10    10    11   ar
    11    11    12   ar
    12    12    13   ar
    13    13    14   ar
    14    14    15   ar
    15    15    16   ar
    16    16    17    2
    17     7     3    1
    18    12     8   ar
    19    16    11   ar
    20     1    18    1
    21     2    19    1
    22     2    20    1
    23     3    21    1
    24     4    22    1
    25     4    23    1
    26     5    24    1
    27     5    25    1
    28     6    26    1
    29     9    27    1
    30    13    28    1
    31    14    29    1
