
     RDKit          3D

 48 50  0  0  0  0  0  0  0  0999 V2000
   -3.8360    3.5013   -0.4314 O   0  0  0  0  0  0  0  0  0  0  0  0
   -3.6667    2.1529   -0.6150 N   0  0  0  0  0  0  0  0  0  0  0  0
   -3.8079    1.2483    0.4817 C   0  0  0  0  0  0  0  0  0  0  0  0
   -4.0938    1.8341    1.5785 O   0  0  0  0  0  0  0  0  0  0  0  0
   -3.5848   -0.1593    0.0675 C   0  0  0  0  0  0  0  0  0  0  0  0
   -2.2038   -0.3734   -0.5007 C   0  0  0  0  0  0  0  0  0  0  0  0
   -0.9430    0.0143    0.6517 S   0  0  0  0  0  0  0  0  0  0  0  0
   -1.0760    1.4540    1.0499 O   0  0  0  0  0  0  0  0  0  0  0  0
   -1.0204   -0.7878    1.9082 O   0  0  0  0  0  0  0  0  0  0  0  0
    0.6573   -0.2310   -0.0021 C   0  0  0  0  0  0  0  0  0  0  0  0
    1.3444   -1.4391    0.0964 C   0  0  0  0  0  0  0  0  0  0  0  0
    2.6183   -1.5711   -0.4458 C   0  0  0  0  0  0  0  0  0  0  0  0
    3.2029   -0.5026   -1.0829 C   0  0  0  0  0  0  0  0  0  0  0  0
    4.4643   -0.5410   -1.6516 O   0  0  0  0  0  0  0  0  0  0  0  0
    5.5778   -0.2038   -0.9008 C   0  0  0  0  0  0  0  0  0  0  0  0
    6.7845   -0.2644   -1.5266 C   0  0  0  0  0  0  0  0  0  0  0  0
    7.9275    0.0608   -0.8267 C   0  0  0  0  0  0  0  0  0  0  0  0
    7.9297    0.4557    0.5070 C   0  0  0  0  0  0  0  0  0  0  0  0
    9.4183    0.8530    1.3302 Cl  0  0  0  0  0  0  0  0  0  0  0  0
    6.6880    0.5042    1.1044 C   0  0  0  0  0  0  0  0  0  0  0  0
    5.5240    0.1829    0.4248 C   0  0  0  0  0  0  0  0  0  0  0  0
    2.5207    0.6971   -1.1808 C   0  0  0  0  0  0  0  0  0  0  0  0
    1.2560    0.8552   -0.6518 C   0  0  0  0  0  0  0  0  0  0  0  0
   -3.8254   -1.1555    1.1813 C   0  0  0  0  0  0  0  0  0  0  0  0
   -5.2969   -1.3809    1.3024 C   0  0  0  0  0  0  0  0  0  0  0  0
   -6.0333   -0.2597    0.9243 O   0  0  0  0  0  0  0  0  0  0  0  0
   -5.9475   -0.0371   -0.4546 C   0  0  0  0  0  0  0  0  0  0  0  0
   -4.6215   -0.5191   -1.0040 C   0  0  0  0  0  0  0  0  0  0  0  0
   -3.3955    3.6730    0.4613 H   0  0  0  0  0  0  0  0  0  0  0  0
   -3.4420    2.0153   -1.6271 H   0  0  0  0  0  0  0  0  0  0  0  0
   -2.0855    0.3004   -1.3747 H   0  0  0  0  0  0  0  0  0  0  0  0
   -2.1672   -1.4484   -0.7979 H   0  0  0  0  0  0  0  0  0  0  0  0
    0.8642   -2.2652    0.6020 H   0  0  0  0  0  0  0  0  0  0  0  0
    3.1718   -2.4953   -0.3833 H   0  0  0  0  0  0  0  0  0  0  0  0
    6.8632   -0.5644   -2.5676 H   0  0  0  0  0  0  0  0  0  0  0  0
    8.9054    0.0192   -1.3084 H   0  0  0  0  0  0  0  0  0  0  0  0
    6.6494    0.8066    2.1396 H   0  0  0  0  0  0  0  0  0  0  0  0
    4.5648    0.2289    0.9151 H   0  0  0  0  0  0  0  0  0  0  0  0
    2.9592    1.5484   -1.6759 H   0  0  0  0  0  0  0  0  0  0  0  0
    0.7595    1.7996   -0.7476 H   0  0  0  0  0  0  0  0  0  0  0  0
   -3.2859   -2.0876    0.8578 H   0  0  0  0  0  0  0  0  0  0  0  0
   -3.3430   -0.8556    2.1289 H   0  0  0  0  0  0  0  0  0  0  0  0
   -5.5623   -2.2972    0.7295 H   0  0  0  0  0  0  0  0  0  0  0  0
   -5.5786   -1.5747    2.3721 H   0  0  0  0  0  0  0  0  0  0  0  0
   -5.9761    1.0542   -0.6066 H   0  0  0  0  0  0  0  0  0  0  0  0
   -6.8250   -0.5320   -0.9071 H   0  0  0  0  0  0  0  0  0  0  0  0
   -4.3752   -0.0955   -1.9717 H   0  0  0  0  0  0  0  0  0  0  0  0
   -4.6578   -1.6180   -1.0677 H   0  0  0  0  0  0  0  0  0  0  0  0
  1  2  1  0
  2  3  1  0
  3  4  2  0
  3  5  1  0
  5  6  1  0
  6  7  1  0
  7  8  2  0
  7  9  2  0
  7 10  1  0
 10 11  2  0
 11 12  1  0
 12 13  2  0
 13 14  1  0
 14 15  1  0
 15 16  2  0
 16 17  1  0
 17 18  2  0
 18 19  1  0
 18 20  1  0
 20 21  2  0
 13 22  1  0
 22 23  2  0
  5 24  1  0
 24 25  1  0
 25 26  1  0
 26 27  1  0
 27 28  1  0
 28  5  1  0
 23 10  1  0
 21 15  1  0
  1 29  1  0
  2 30  1  0
  6 31  1  0
  6 32  1  0
 11 33  1  0
 12 34  1  0
 16 35  1  0
 17 36  1  0
 20 37  1  0
 21 38  1  0
 22 39  1  0
 23 40  1  0
 24 41  1  0
 24 42  1  0
 25 43  1  0
 25 44  1  0
 27 45  1  0
 27 46  1  0
 28 47  1  0
 28 48  1  0
M  END
$$$$
