@<TRIPOS>MOLECULE
*****
 48 50 0 0 0
SMALL
GASTEIGER

@<TRIPOS>ATOM
      1 O          -3.8360    3.5013   -0.4314 O.3     1  UNL1       -0.2952
      2 N          -3.6667    2.1529   -0.6150 N.am    1  UNL1       -0.1970
      3 C          -3.8079    1.2483    0.4817 C.2     1  UNL1        0.2433
      4 O          -4.0938    1.8341    1.5785 O.2     1  UNL1       -0.2731
      5 C          -3.5848   -0.1593    0.0675 C.3     1  UNL1        0.0726
      6 C          -2.2038   -0.3734   -0.5007 C.3     1  UNL1        0.0849
      7 S          -0.9430    0.0143    0.6517 S.O2    1  UNL1       -0.0021
      8 O          -1.0760    1.4540    1.0499 O.2     1  UNL1       -0.1693
      9 O          -1.0204   -0.7878    1.9082 O.2     1  UNL1       -0.1693
     10 C           0.6573   -0.2310   -0.0021 C.ar    1  UNL1        0.0884
     11 C           1.3444   -1.4391    0.0964 C.ar    1  UNL1       -0.0334
     12 C           2.6183   -1.5711   -0.4458 C.ar    1  UNL1       -0.0175
     13 C           3.2029   -0.5026   -1.0829 C.ar    1  UNL1        0.1285
     14 O           4.4643   -0.5410   -1.6516 O.3     1  UNL1       -0.4560
     15 C           5.5778   -0.2038   -0.9008 C.ar    1  UNL1        0.1285
     16 C           6.7845   -0.2644   -1.5266 C.ar    1  UNL1       -0.0180
     17 C           7.9275    0.0608   -0.8267 C.ar    1  UNL1       -0.0399
     18 C           7.9297    0.4557    0.5070 C.ar    1  UNL1        0.0412
     19 CL          9.4183    0.8530    1.3302 Cl      1  UNL1       -0.0835
     20 C           6.6880    0.5042    1.1044 C.ar    1  UNL1       -0.0399
     21 C           5.5240    0.1829    0.4248 C.ar    1  UNL1       -0.0180
     22 C           2.5207    0.6971   -1.1808 C.ar    1  UNL1       -0.0175
     23 C           1.2560    0.8552   -0.6518 C.ar    1  UNL1       -0.0334
     24 C          -3.8254   -1.1555    1.1813 C.3     1  UNL1       -0.0138
     25 C          -5.2969   -1.3809    1.3024 C.3     1  UNL1        0.0487
     26 O          -6.0333   -0.2597    0.9243 O.3     1  UNL1       -0.3797
     27 C          -5.9475   -0.0371   -0.4546 C.3     1  UNL1        0.0487
     28 C          -4.6215   -0.5191   -1.0040 C.3     1  UNL1       -0.0138
     29 H          -3.3955    3.6730    0.4613 H       1  UNL1        0.2414
     30 H          -3.4420    2.0153   -1.6271 H       1  UNL1        0.1822
     31 H          -2.0855    0.3004   -1.3747 H       1  UNL1        0.0514
     32 H          -2.1672   -1.4484   -0.7979 H       1  UNL1        0.0514
     33 H           0.8642   -2.2652    0.6020 H       1  UNL1        0.0638
     34 H           3.1718   -2.4953   -0.3833 H       1  UNL1        0.0655
     35 H           6.8632   -0.5644   -2.5676 H       1  UNL1        0.0655
     36 H           8.9054    0.0192   -1.3084 H       1  UNL1        0.0633
     37 H           6.6494    0.8066    2.1396 H       1  UNL1        0.0633
     38 H           4.5648    0.2289    0.9151 H       1  UNL1        0.0655
     39 H           2.9592    1.5484   -1.6759 H       1  UNL1        0.0655
     40 H           0.7595    1.7996   -0.7476 H       1  UNL1        0.0638
     41 H          -3.2859   -2.0876    0.8578 H       1  UNL1        0.0298
     42 H          -3.3430   -0.8556    2.1289 H       1  UNL1        0.0298
     43 H          -5.5623   -2.2972    0.7295 H       1  UNL1        0.0560
     44 H          -5.5786   -1.5747    2.3721 H       1  UNL1        0.0560
     45 H          -5.9761    1.0542   -0.6066 H       1  UNL1        0.0560
     46 H          -6.8250   -0.5320   -0.9071 H       1  UNL1        0.0560
     47 H          -4.3752   -0.0955   -1.9717 H       1  UNL1        0.0298
     48 H          -4.6578   -1.6180   -1.0677 H       1  UNL1        0.0298
@<TRIPOS>BOND
     1     1     2    1
     2     2     3   am
     3     3     4    2
     4     3     5    1
     5     5     6    1
     6     6     7    1
     7     7     8    2
     8     7     9    2
     9     7    10    1
    10    10    11   ar
    11    11    12   ar
    12    12    13   ar
    13    13    14    1
    14    14    15    1
    15    15    16   ar
    16    16    17   ar
    17    17    18   ar
    18    18    19    1
    19    18    20   ar
    20    20    21   ar
    21    13    22   ar
    22    22    23   ar
    23     5    24    1
    24    24    25    1
    25    25    26    1
    26    26    27    1
    27    27    28    1
    28    28     5    1
    29    23    10   ar
    30    21    15   ar
    31     1    29    1
    32     2    30    1
    33     6    31    1
    34     6    32    1
    35    11    33    1
    36    12    34    1
    37    16    35    1
    38    17    36    1
    39    20    37    1
    40    21    38    1
    41    22    39    1
    42    23    40    1
    43    24    41    1
    44    24    42    1
    45    25    43    1
    46    25    44    1
    47    27    45    1
    48    27    46    1
    49    28    47    1
    50    28    48    1
