@<TRIPOS>MOLECULE
*****
 51 55 0 0 0
SMALL
GASTEIGER

@<TRIPOS>ATOM
      1 C           7.3240    1.5311    1.3100 C.3     1  UNL1       -0.0205
      2 C           6.2271    0.9497    0.4846 C.ar    1  UNL1        0.0625
      3 C           6.4495    0.1848   -0.6368 C.ar    1  UNL1        0.0052
      4 C           5.2194   -0.1840   -1.1487 C.ar    1  UNL1        0.1560
      5 N           4.8892   -0.9362   -2.2390 N.ar    1  UNL1       -0.2357
      6 C           3.5852   -1.1370   -2.5038 C.ar    1  UNL1        0.0361
      7 C           2.6307   -0.5880   -1.6821 C.ar    1  UNL1        0.0074
      8 C           2.9847    0.1579   -0.6013 C.ar    1  UNL1        0.0649
      9 N           4.2816    0.3505   -0.3482 N.ar    1  UNL1       -0.2168
     10 N           4.9100    1.0262    0.6245 N.ar    1  UNL1       -0.1699
     11 C           1.7710    0.6103    0.0852 C.3     1  UNL1        0.0423
     12 N           0.6506   -0.0222   -0.5787 N.3     1  UNL1       -0.2894
     13 C          -0.0542   -0.8107    0.3589 C.3     1  UNL1        0.0126
     14 C          -0.5615    0.0497    1.4764 C.3     1  UNL1       -0.0367
     15 C          -2.0024    0.4013    1.4267 C.3     1  UNL1       -0.0433
     16 C          -2.6503    0.3520    0.0761 C.3     1  UNL1        0.0022
     17 C          -4.1190    0.3556    0.3126 C.ar    1  UNL1       -0.0048
     18 C          -4.8091   -0.7987    0.6215 C.ar    1  UNL1       -0.0174
     19 C          -6.1656   -0.8204    0.8538 C.ar    1  UNL1        0.1588
     20 F          -6.8105   -1.9681    1.1543 F       1  UNL1       -0.2025
     21 C          -6.8834    0.3463    0.7804 C.ar    1  UNL1        0.1611
     22 F          -8.2265    0.3422    1.0073 F       1  UNL1       -0.2024
     23 C          -6.2110    1.5002    0.4747 C.ar    1  UNL1        0.0119
     24 C          -4.8654    1.5197    0.2446 C.ar    1  UNL1        0.1298
     25 F          -4.1991    2.6632   -0.0582 F       1  UNL1       -0.2051
     26 C          -2.2975   -0.8282   -0.7552 C.3     1  UNL1        0.0132
     27 N          -1.9203   -0.3181   -2.0870 N.3     1  UNL1       -0.3266
     28 C          -1.1636   -1.6451   -0.1710 C.3     1  UNL1       -0.0215
     29 C           1.1641   -0.6381   -1.7256 C.3     1  UNL1        0.0279
     30 H           7.8074    2.3130    0.7193 H       1  UNL1        0.0293
     31 H           8.0887    0.7387    1.5606 H       1  UNL1        0.0293
     32 H           6.9303    1.9095    2.2691 H       1  UNL1        0.0293
     33 H           7.4207   -0.0894   -1.0581 H       1  UNL1        0.0673
     34 H           3.2432   -1.7215   -3.3489 H       1  UNL1        0.0834
     35 H           1.6561    1.7108    0.1341 H       1  UNL1        0.0491
     36 H           1.8658    0.2419    1.1499 H       1  UNL1        0.0491
     37 H           0.6838   -1.5249    0.8240 H       1  UNL1        0.0463
     38 H          -0.2953   -0.3640    2.4815 H       1  UNL1        0.0280
     39 H           0.0110    1.0241    1.4301 H       1  UNL1        0.0280
     40 H          -2.1842    1.4442    1.8224 H       1  UNL1        0.0272
     41 H          -2.5618   -0.2775    2.1360 H       1  UNL1        0.0272
     42 H          -2.4354    1.3261   -0.4395 H       1  UNL1        0.0365
     43 H          -4.2897   -1.7553    0.6989 H       1  UNL1        0.0651
     44 H          -6.7925    2.4236    0.4188 H       1  UNL1        0.0676
     45 H          -3.2019   -1.4274   -0.9502 H       1  UNL1        0.0465
     46 H          -2.7742   -0.0485   -2.6247 H       1  UNL1        0.1185
     47 H          -1.5515   -1.1793   -2.5939 H       1  UNL1        0.1185
     48 H          -0.8391   -2.4350   -0.8791 H       1  UNL1        0.0295
     49 H          -1.6015   -2.1985    0.6987 H       1  UNL1        0.0295
     50 H           0.8671   -1.6846   -1.9025 H       1  UNL1        0.0477
     51 H           0.8053   -0.0717   -2.6362 H       1  UNL1        0.0477
@<TRIPOS>BOND
     1     1     2    1
     2     2     3   ar
     3     3     4   ar
     4     4     5   ar
     5     5     6   ar
     6     6     7   ar
     7     7     8   ar
     8     8     9   ar
     9     9    10   ar
    10     8    11    1
    11    11    12    1
    12    12    13    1
    13    13    14    1
    14    14    15    1
    15    15    16    1
    16    16    17    1
    17    17    18   ar
    18    18    19   ar
    19    19    20    1
    20    19    21   ar
    21    21    22    1
    22    21    23   ar
    23    23    24   ar
    24    24    25    1
    25    16    26    1
    26    26    27    1
    27    26    28    1
    28    12    29    1
    29    10     2   ar
    30    28    13    1
    31     9     4   ar
    32    24    17   ar
    33    29     7    1
    34     1    30    1
    35     1    31    1
    36     1    32    1
    37     3    33    1
    38     6    34    1
    39    11    35    1
    40    11    36    1
    41    13    37    1
    42    14    38    1
    43    14    39    1
    44    15    40    1
    45    15    41    1
    46    16    42    1
    47    18    43    1
    48    23    44    1
    49    26    45    1
    50    27    46    1
    51    27    47    1
    52    28    48    1
    53    28    49    1
    54    29    50    1
    55    29    51    1
