@<TRIPOS>MOLECULE
*****
 53 55 0 0 0
SMALL
GASTEIGER

@<TRIPOS>ATOM
      1 C           0.7613    1.9968   -1.8636 C.3     1  UNL1       -0.0240
      2 C           1.0855    0.5886   -1.5480 C.ar    1  UNL1        0.0229
      3 C           2.3519    0.3966   -0.9971 C.ar    1  UNL1        0.0009
      4 C           2.8008   -0.8449   -0.6692 C.ar    1  UNL1        0.1461
      5 O           4.0696   -1.0441   -0.1141 O.3     1  UNL1       -0.4856
      6 C           4.8709    0.1073    0.0920 C.3     1  UNL1        0.1174
      7 C           6.1918   -0.2010    0.6906 C.ar    1  UNL1        0.0250
      8 C           6.4351    0.0673    2.0261 C.ar    1  UNL1       -0.0499
      9 C           7.6637   -0.2095    2.5884 C.ar    1  UNL1       -0.0259
     10 C           8.6755   -0.7600    1.8293 C.ar    1  UNL1        0.1261
     11 F           9.8510   -1.0155    2.3992 F       1  UNL1       -0.2054
     12 C           8.4488   -1.0303    0.5092 C.ar    1  UNL1        0.0092
     13 C           7.2090   -0.7508   -0.0575 C.ar    1  UNL1        0.1325
     14 F           6.9537   -1.0095   -1.3687 F       1  UNL1       -0.2050
     15 C           1.9887   -1.9199   -0.8883 C.ar    1  UNL1        0.1468
     16 CL          2.5158   -3.5333   -0.4893 Cl      1  UNL1       -0.0741
     17 C           0.7408   -1.6915   -1.4356 C.ar    1  UNL1        0.2738
     18 O           0.0446   -2.7419   -1.6110 O.2     1  UNL1       -0.2660
     19 N           0.2813   -0.4583   -1.7654 N.ar    1  UNL1       -0.3069
     20 C          -1.0282   -0.2966   -2.3328 C.3     1  UNL1        0.0514
     21 C          -2.0661   -0.1190   -1.2870 C.ar    1  UNL1       -0.0276
     22 C          -2.7711   -1.2185   -0.7939 C.ar    1  UNL1       -0.0566
     23 C          -3.7394   -1.1102    0.1815 C.ar    1  UNL1       -0.0568
     24 C          -4.0745    0.1276    0.7399 C.ar    1  UNL1       -0.0303
     25 C          -5.0980    0.2385    1.7988 C.3     1  UNL1        0.0369
     26 N          -6.4381    0.3981    1.3731 N.am    1  UNL1       -0.3093
     27 C          -6.9956    1.6152    0.9089 C.2     1  UNL1        0.2388
     28 O          -6.2671    2.6359    0.8654 O.2     1  UNL1       -0.2733
     29 C          -8.4415    1.6848    0.4746 C.3     1  UNL1        0.1202
     30 O          -9.0503    0.4520    0.6063 O.3     1  UNL1       -0.3858
     31 C          -3.3868    1.2160    0.2603 C.ar    1  UNL1       -0.0568
     32 C          -2.4040    1.0901   -0.7330 C.ar    1  UNL1       -0.0566
     33 H           1.6798    2.4701   -2.3123 H       1  UNL1        0.0292
     34 H           0.5602    2.5677   -0.9317 H       1  UNL1        0.0292
     35 H          -0.0381    2.1634   -2.5700 H       1  UNL1        0.0292
     36 H           3.0200    1.2534   -0.8150 H       1  UNL1        0.0672
     37 H           4.3092    0.8533    0.7097 H       1  UNL1        0.0749
     38 H           5.0758    0.6255   -0.8813 H       1  UNL1        0.0749
     39 H           5.6165    0.4961    2.5799 H       1  UNL1        0.0623
     40 H           7.7838    0.0238    3.6251 H       1  UNL1        0.0646
     41 H           9.2267   -1.4593   -0.0961 H       1  UNL1        0.0675
     42 H          -1.2722   -1.2233   -2.9493 H       1  UNL1        0.0542
     43 H          -1.0394    0.5136   -3.0797 H       1  UNL1        0.0542
     44 H          -2.5365   -2.1948   -1.2183 H       1  UNL1        0.0621
     45 H          -4.2783   -1.9710    0.5550 H       1  UNL1        0.0621
     46 H          -4.7469    1.0533    2.4820 H       1  UNL1        0.0512
     47 H          -5.0369   -0.6869    2.4465 H       1  UNL1        0.0512
     48 H          -7.1185   -0.4234    1.3813 H       1  UNL1        0.1491
     49 H          -8.9370    2.4711    1.1174 H       1  UNL1        0.0654
     50 H          -8.4478    2.0869   -0.5501 H       1  UNL1        0.0654
     51 H          -9.4805    0.4029    1.5180 H       1  UNL1        0.2100
     52 H          -3.6064    2.2079    0.6685 H       1  UNL1        0.0621
     53 H          -1.9122    1.9953   -1.0689 H       1  UNL1        0.0621
@<TRIPOS>BOND
     1     1     2    1
     2     2     3   ar
     3     3     4   ar
     4     4     5    1
     5     5     6    1
     6     6     7    1
     7     7     8   ar
     8     8     9   ar
     9     9    10   ar
    10    10    11    1
    11    10    12   ar
    12    12    13   ar
    13    13    14    1
    14     4    15   ar
    15    15    16    1
    16    15    17   ar
    17    17    18    2
    18    17    19   ar
    19    19    20    1
    20    20    21    1
    21    21    22   ar
    22    22    23   ar
    23    23    24   ar
    24    24    25    1
    25    25    26    1
    26    26    27   am
    27    27    28    2
    28    27    29    1
    29    29    30    1
    30    24    31   ar
    31    31    32   ar
    32    19     2   ar
    33    32    21   ar
    34    13     7   ar
    35     1    33    1
    36     1    34    1
    37     1    35    1
    38     3    36    1
    39     6    37    1
    40     6    38    1
    41     8    39    1
    42     9    40    1
    43    12    41    1
    44    20    42    1
    45    20    43    1
    46    22    44    1
    47    23    45    1
    48    25    46    1
    49    25    47    1
    50    26    48    1
    51    29    49    1
    52    29    50    1
    53    30    51    1
    54    31    52    1
    55    32    53    1
