@<TRIPOS>MOLECULE
*****
 71 76 0 0 0
SMALL
GASTEIGER

@<TRIPOS>ATOM
      1 C          -2.1126    7.4449    1.8321 C.3     1  UNL1        0.0804
      2 O          -1.7195    6.1085    1.7844 O.3     1  UNL1       -0.4795
      3 C          -1.1443    5.4792    0.7083 C.ar    1  UNL1        0.2191
      4 C          -0.8076    4.1458    0.8104 C.ar    1  UNL1        0.0404
      5 C          -0.2201    3.4761   -0.2682 C.ar    1  UNL1        0.1364
      6 N           0.1502    2.1130   -0.2390 N.am    1  UNL1       -0.2240
      7 C           1.4304    1.6616    0.1823 C.2     1  UNL1        0.3219
      8 O           2.2652    2.2727    0.9109 O.2     1  UNL1       -0.2512
      9 N           1.6083    0.3539   -0.3830 N.am    1  UNL1       -0.1920
     10 C           2.7410   -0.4940   -0.2354 C.ar    1  UNL1        0.0455
     11 C           3.7534   -0.3884   -1.1648 C.ar    1  UNL1       -0.0392
     12 C           4.8724   -1.1904   -1.0620 C.ar    1  UNL1       -0.0523
     13 C           4.9305   -2.0796   -0.0136 C.ar    1  UNL1       -0.0178
     14 C           6.1002   -2.9282    0.1055 C.ar    1  UNL1       -0.0178
     15 C           7.3095   -2.4458   -0.3206 C.ar    1  UNL1       -0.0528
     16 C           8.4329   -3.2684   -0.2029 C.ar    1  UNL1       -0.0438
     17 C           8.2964   -4.5443    0.3387 C.ar    1  UNL1        0.0518
     18 C           9.4614   -5.3774    0.4528 C.1     1  UNL1        0.0992
     19 N          10.3914   -6.0507    0.5539 N.1     1  UNL1       -0.1909
     20 C           7.0699   -5.0283    0.7688 C.ar    1  UNL1       -0.0438
     21 C           5.9661   -4.1998    0.6450 C.ar    1  UNL1       -0.0528
     22 C           3.9069   -2.1862    0.9262 C.ar    1  UNL1       -0.0523
     23 C           2.7871   -1.3777    0.8156 C.ar    1  UNL1       -0.0392
     24 C           0.4367    0.0317   -1.1371 C.2     1  UNL1        0.2516
     25 O           0.4012   -0.8393   -2.0377 O.2     1  UNL1       -0.2724
     26 C          -0.6080    0.9348   -0.5965 C.3     1  UNL1        0.1240
     27 C          -1.2632    0.3767    0.6364 C.3     1  UNL1       -0.0095
     28 C          -2.7592    0.3236    0.5595 C.3     1  UNL1        0.0017
     29 N          -3.2384   -0.3339   -0.6165 N.3     1  UNL1       -0.2965
     30 C          -4.6455   -0.1909   -0.8136 C.3     1  UNL1        0.0415
     31 C          -5.4516   -0.7512    0.2854 C.ar    1  UNL1        0.0581
     32 N          -6.0313    0.0521    1.1871 N.ar    1  UNL1       -0.2583
     33 C          -6.7722   -0.3994    2.2047 C.ar    1  UNL1        0.0279
     34 C          -6.9637   -1.7565    2.3547 C.ar    1  UNL1       -0.0433
     35 C          -6.3781   -2.5835    1.4422 C.ar    1  UNL1       -0.0557
     36 C          -5.6156   -2.1062    0.3962 C.ar    1  UNL1       -0.0279
     37 C          -5.0103   -3.0763   -0.5568 C.3     1  UNL1       -0.0380
     38 C          -2.4993   -0.0299   -1.8208 C.3     1  UNL1        0.0017
     39 C          -1.6305    1.1941   -1.6484 C.3     1  UNL1       -0.0095
     40 N          -0.0104    4.1923   -1.3777 N.ar    1  UNL1       -0.2200
     41 C          -0.3317    5.4935   -1.4966 C.ar    1  UNL1        0.1219
     42 N          -0.8996    6.1204   -0.4387 N.ar    1  UNL1       -0.2013
     43 H          -3.1934    7.5999    1.8975 H       1  UNL1        0.0660
     44 H          -1.6704    7.8857    2.7730 H       1  UNL1        0.0660
     45 H          -1.6454    8.0473    1.0054 H       1  UNL1        0.0660
     46 H          -0.9702    3.5516    1.7004 H       1  UNL1        0.0705
     47 H           3.6937    0.3129   -1.9802 H       1  UNL1        0.0636
     48 H           5.6409   -1.0755   -1.8107 H       1  UNL1        0.0624
     49 H           7.4104   -1.4431   -0.7451 H       1  UNL1        0.0624
     50 H           9.3663   -2.8752   -0.5400 H       1  UNL1        0.0631
     51 H           6.9553   -6.0155    1.1898 H       1  UNL1        0.0631
     52 H           4.9752   -4.4996    0.9554 H       1  UNL1        0.0624
     53 H           3.9877   -2.8939    1.7336 H       1  UNL1        0.0624
     54 H           1.9926   -1.4633    1.5482 H       1  UNL1        0.0636
     55 H          -0.8740   -0.6470    0.8954 H       1  UNL1        0.0303
     56 H          -1.0056    1.0012    1.5319 H       1  UNL1        0.0303
     57 H          -3.2024    1.3320    0.6927 H       1  UNL1        0.0427
     58 H          -3.1039   -0.2759    1.4417 H       1  UNL1        0.0427
     59 H          -4.8926    0.9042   -0.9397 H       1  UNL1        0.0491
     60 H          -4.9370   -0.6612   -1.7578 H       1  UNL1        0.0491
     61 H          -7.2082    0.3178    2.8931 H       1  UNL1        0.0829
     62 H          -7.5621   -2.1286    3.1760 H       1  UNL1        0.0633
     63 H          -6.5362   -3.6549    1.5702 H       1  UNL1        0.0621
     64 H          -4.0991   -3.4703   -0.0977 H       1  UNL1        0.0278
     65 H          -4.8909   -2.6892   -1.5681 H       1  UNL1        0.0278
     66 H          -5.7276   -3.9391   -0.6301 H       1  UNL1        0.0278
     67 H          -1.9248   -0.9443   -2.0761 H       1  UNL1        0.0427
     68 H          -3.1986    0.1137   -2.6877 H       1  UNL1        0.0427
     69 H          -2.3052    2.0140   -1.3189 H       1  UNL1        0.0303
     70 H          -1.1349    1.4278   -2.6115 H       1  UNL1        0.0303
     71 H          -0.1385    6.0199   -2.4195 H       1  UNL1        0.1049
@<TRIPOS>BOND
     1     1     2    1
     2     2     3    1
     3     3     4   ar
     4     4     5   ar
     5     5     6    1
     6     6     7   am
     7     7     8    2
     8     7     9   am
     9     9    10    1
    10    10    11   ar
    11    11    12   ar
    12    12    13   ar
    13    13    14    1
    14    14    15   ar
    15    15    16   ar
    16    16    17   ar
    17    17    18    1
    18    18    19    3
    19    17    20   ar
    20    20    21   ar
    21    13    22   ar
    22    22    23   ar
    23     9    24   am
    24    24    25    2
    25    24    26    1
    26    26    27    1
    27    27    28    1
    28    28    29    1
    29    29    30    1
    30    30    31    1
    31    31    32   ar
    32    32    33   ar
    33    33    34   ar
    34    34    35   ar
    35    35    36   ar
    36    36    37    1
    37    29    38    1
    38    38    39    1
    39     5    40   ar
    40    40    41   ar
    41    41    42   ar
    42    42     3   ar
    43    26     6    1
    44    36    31   ar
    45    23    10   ar
    46    39    26    1
    47    21    14   ar
    48     1    43    1
    49     1    44    1
    50     1    45    1
    51     4    46    1
    52    11    47    1
    53    12    48    1
    54    15    49    1
    55    16    50    1
    56    20    51    1
    57    21    52    1
    58    22    53    1
    59    23    54    1
    60    27    55    1
    61    27    56    1
    62    28    57    1
    63    28    58    1
    64    30    59    1
    65    30    60    1
    66    33    61    1
    67    34    62    1
    68    35    63    1
    69    37    64    1
    70    37    65    1
    71    37    66    1
    72    38    67    1
    73    38    68    1
    74    39    69    1
    75    39    70    1
    76    41    71    1
