@<TRIPOS>MOLECULE
*****
 43 46 0 0 0
SMALL
GASTEIGER

@<TRIPOS>ATOM
      1 C           5.6788    0.4555   -0.9277 C.3     1  UNL1        0.0302
      2 N           4.4183    0.7906   -0.2913 N.ar    1  UNL1       -0.2741
      3 C           3.1646    0.6290   -0.7733 C.ar    1  UNL1        0.0308
      4 C           2.3202    1.0986    0.2051 C.ar    1  UNL1        0.0185
      5 C           0.8226    1.1744    0.2322 C.3     1  UNL1        0.0869
      6 C           0.2812    0.5515   -0.9886 C.3     1  UNL1       -0.0161
      7 C          -0.2457   -0.8377   -0.7002 C.3     1  UNL1        0.0027
      8 C           0.8951   -1.6805   -0.2062 C.3     1  UNL1        0.0064
      9 S           0.2128   -3.2978    0.2295 S.3     1  UNL1       -0.0907
     10 C          -1.4843   -3.0390    0.7127 C.2     1  UNL1        0.1476
     11 N          -2.2306   -4.2128    1.0767 N.pl3   1  UNL1       -0.3380
     12 N          -1.9662   -1.8740    0.7215 N.2     1  UNL1       -0.2495
     13 C          -1.3032   -0.6365    0.3751 C.3     1  UNL1        0.1185
     14 C          -2.3245    0.2978   -0.1077 C.ar    1  UNL1        0.0178
     15 C          -2.5785    1.5132    0.4889 C.ar    1  UNL1       -0.0507
     16 C          -3.5347    2.3881    0.0352 C.ar    1  UNL1       -0.0259
     17 C          -4.2906    2.0685   -1.0613 C.ar    1  UNL1        0.1261
     18 F          -5.2430    2.9476   -1.5074 F       1  UNL1       -0.2054
     19 C          -4.0665    0.8667   -1.6820 C.ar    1  UNL1        0.0091
     20 C          -3.1044    0.0055   -1.2115 C.ar    1  UNL1        0.1317
     21 F          -2.9326   -1.1819   -1.8800 F       1  UNL1       -0.2050
     22 C          -0.5718   -0.1577    1.5886 C.3     1  UNL1        0.0781
     23 O           0.4220    0.7267    1.4281 O.3     1  UNL1       -0.3691
     24 C           3.0946    1.5343    1.2596 C.ar    1  UNL1        0.0550
     25 N           4.3616    1.3364    0.9328 N.ar    1  UNL1       -0.1796
     26 H           6.3826    1.3186   -0.8241 H       1  UNL1        0.0473
     27 H           5.5561    0.2837   -2.0148 H       1  UNL1        0.0473
     28 H           6.1797   -0.4051   -0.4247 H       1  UNL1        0.0473
     29 H           2.8987    0.2225   -1.7125 H       1  UNL1        0.0830
     30 H           0.6296    2.2919    0.1738 H       1  UNL1        0.0647
     31 H           0.9259    0.5458   -1.8796 H       1  UNL1        0.0297
     32 H          -0.6370    1.1262   -1.3290 H       1  UNL1        0.0297
     33 H          -0.6643   -1.3245   -1.5980 H       1  UNL1        0.0337
     34 H           1.6049   -1.8002   -1.0470 H       1  UNL1        0.0384
     35 H           1.4434   -1.2209    0.6376 H       1  UNL1        0.0384
     36 H          -2.6670   -4.3484    1.9991 H       1  UNL1        0.1442
     37 H          -2.3080   -4.9439    0.3291 H       1  UNL1        0.1442
     38 H          -2.0137    1.8196    1.3572 H       1  UNL1        0.0623
     39 H          -3.6887    3.3402    0.5539 H       1  UNL1        0.0646
     40 H          -4.6503    0.6048   -2.5398 H       1  UNL1        0.0675
     41 H          -1.3613    0.1547    2.3357 H       1  UNL1        0.0588
     42 H          -0.1349   -1.0866    2.0711 H       1  UNL1        0.0588
     43 H           2.7092    1.9549    2.1710 H       1  UNL1        0.0851
@<TRIPOS>BOND
     1     1     2    1
     2     2     3   ar
     3     3     4   ar
     4     4     5    1
     5     5     6    1
     6     6     7    1
     7     7     8    1
     8     8     9    1
     9     9    10    1
    10    10    11    1
    11    10    12    2
    12    12    13    1
    13    13    14    1
    14    14    15   ar
    15    15    16   ar
    16    16    17   ar
    17    17    18    1
    18    17    19   ar
    19    19    20   ar
    20    20    21    1
    21    13    22    1
    22    22    23    1
    23     4    24   ar
    24    24    25   ar
    25    25     2   ar
    26    23     5    1
    27    13     7    1
    28    20    14   ar
    29     1    26    1
    30     1    27    1
    31     1    28    1
    32     3    29    1
    33     5    30    1
    34     6    31    1
    35     6    32    1
    36     7    33    1
    37     8    34    1
    38     8    35    1
    39    11    36    1
    40    11    37    1
    41    15    38    1
    42    16    39    1
    43    19    40    1
    44    22    41    1
    45    22    42    1
    46    24    43    1
