
     RDKit          3D

 27 29  0  0  0  0  0  0  0  0999 V2000
    2.2492   -2.9110    1.0519 O   0  0  0  0  0  0  0  0  0  0  0  0
    1.5844   -2.6466    0.0374 C   0  0  0  0  0  0  0  0  0  0  0  0
    1.4756   -3.5102   -1.0915 N   0  0  0  0  0  0  0  0  0  0  0  0
    0.2684   -3.3692   -1.8688 C   0  0  0  0  0  0  0  0  0  0  0  0
    0.0808   -1.9327   -2.2475 C   0  0  0  0  0  0  0  0  0  0  0  0
    0.1367   -1.0321   -1.0815 C   0  0  0  0  0  0  0  0  0  0  0  0
   -0.4213    0.1900   -0.8210 N   0  0  0  0  0  0  0  0  0  0  0  0
   -0.0729    0.6416    0.3753 C   0  0  0  0  0  0  0  0  0  0  0  0
   -0.4896    1.9207    0.9799 C   0  0  0  0  0  0  0  0  0  0  0  0
   -1.3139    2.7664    0.2910 C   0  0  0  0  0  0  0  0  0  0  0  0
   -1.7045    3.9550    0.8461 C   0  0  0  0  0  0  0  0  0  0  0  0
   -1.2803    4.2932    2.0660 N   0  0  0  0  0  0  0  0  0  0  0  0
   -0.4622    3.4759    2.7744 C   0  0  0  0  0  0  0  0  0  0  0  0
   -0.0566    2.2697    2.2293 C   0  0  0  0  0  0  0  0  0  0  0  0
    0.7484   -0.3162    0.9334 C   0  0  0  0  0  0  0  0  0  0  0  0
    0.8736   -1.3483    0.0284 C   0  0  0  0  0  0  0  0  0  0  0  0
    2.2277   -4.1821   -1.3109 H   0  0  0  0  0  0  0  0  0  0  0  0
    0.2510   -4.0444   -2.7508 H   0  0  0  0  0  0  0  0  0  0  0  0
   -0.5832   -3.6186   -1.1681 H   0  0  0  0  0  0  0  0  0  0  0  0
   -0.9443   -1.8756   -2.7260 H   0  0  0  0  0  0  0  0  0  0  0  0
    0.8374   -1.5869   -2.9973 H   0  0  0  0  0  0  0  0  0  0  0  0
   -1.0366    0.6507   -1.5259 H   0  0  0  0  0  0  0  0  0  0  0  0
   -1.6643    2.4823   -0.7221 H   0  0  0  0  0  0  0  0  0  0  0  0
   -2.3700    4.6166    0.2661 H   0  0  0  0  0  0  0  0  0  0  0  0
   -0.1410    3.7829    3.7551 H   0  0  0  0  0  0  0  0  0  0  0  0
    0.5944    1.6151    2.7884 H   0  0  0  0  0  0  0  0  0  0  0  0
    1.2131   -0.2860    1.8886 H   0  0  0  0  0  0  0  0  0  0  0  0
  1  2  2  0
  2  3  1  0
  3  4  1  0
  4  5  1  0
  5  6  1  0
  6  7  1  0
  7  8  1  0
  8  9  1  0
  9 10  2  0
 10 11  1  0
 11 12  2  0
 12 13  1  0
 13 14  2  0
  8 15  2  0
 15 16  1  0
 16  2  1  0
 16  6  2  0
 14  9  1  0
  3 17  1  0
  4 18  1  0
  4 19  1  0
  5 20  1  0
  5 21  1  0
  7 22  1  0
 10 23  1  0
 11 24  1  0
 13 25  1  0
 14 26  1  0
 15 27  1  0
M  END
$$$$
