@<TRIPOS>MOLECULE
*****
 27 29 0 0 0
SMALL
GASTEIGER

@<TRIPOS>ATOM
      1 O           2.2492   -2.9110    1.0519 O.2     1  UNL1       -0.2701
      2 C           1.5844   -2.6466    0.0374 C.2     1  UNL1        0.2458
      3 N           1.4756   -3.5102   -1.0915 N.am    1  UNL1       -0.3109
      4 C           0.2684   -3.3692   -1.8688 C.3     1  UNL1        0.0172
      5 C           0.0808   -1.9327   -2.2475 C.3     1  UNL1        0.0038
      6 C           0.1367   -1.0321   -1.0815 C.ar    1  UNL1        0.0301
      7 N          -0.4213    0.1900   -0.8210 N.ar    1  UNL1       -0.3573
      8 C          -0.0729    0.6416    0.3753 C.ar    1  UNL1        0.0475
      9 C          -0.4896    1.9207    0.9799 C.ar    1  UNL1        0.0012
     10 C          -1.3139    2.7664    0.2910 C.ar    1  UNL1       -0.0345
     11 C          -1.7045    3.9550    0.8461 C.ar    1  UNL1        0.0282
     12 N          -1.2803    4.2932    2.0660 N.ar    1  UNL1       -0.2632
     13 C          -0.4622    3.4759    2.7744 C.ar    1  UNL1        0.0282
     14 C          -0.0566    2.2697    2.2293 C.ar    1  UNL1       -0.0345
     15 C           0.7484   -0.3162    0.9334 C.ar    1  UNL1       -0.0240
     16 C           0.8736   -1.3483    0.0284 C.ar    1  UNL1        0.0578
     17 H           2.2277   -4.1821   -1.3109 H       1  UNL1        0.1490
     18 H           0.2510   -4.0444   -2.7508 H       1  UNL1        0.0466
     19 H          -0.5832   -3.6186   -1.1681 H       1  UNL1        0.0466
     20 H          -0.9443   -1.8756   -2.7260 H       1  UNL1        0.0343
     21 H           0.8374   -1.5869   -2.9973 H       1  UNL1        0.0343
     22 H          -1.0366    0.6507   -1.5259 H       1  UNL1        0.1656
     23 H          -1.6643    2.4823   -0.7221 H       1  UNL1        0.0639
     24 H          -2.3700    4.6166    0.2661 H       1  UNL1        0.0830
     25 H          -0.1410    3.7829    3.7551 H       1  UNL1        0.0830
     26 H           0.5944    1.6151    2.7884 H       1  UNL1        0.0639
     27 H           1.2131   -0.2860    1.8886 H       1  UNL1        0.0646
@<TRIPOS>BOND
     1     1     2    2
     2     2     3   am
     3     3     4    1
     4     4     5    1
     5     5     6    1
     6     6     7   ar
     7     7     8   ar
     8     8     9    1
     9     9    10   ar
    10    10    11   ar
    11    11    12   ar
    12    12    13   ar
    13    13    14   ar
    14     8    15   ar
    15    15    16   ar
    16    16     2    1
    17    16     6   ar
    18    14     9   ar
    19     3    17    1
    20     4    18    1
    21     4    19    1
    22     5    20    1
    23     5    21    1
    24     7    22    1
    25    10    23    1
    26    11    24    1
    27    13    25    1
    28    14    26    1
    29    15    27    1
