@<TRIPOS>MOLECULE
*****
 60 64 0 0 0
SMALL
GASTEIGER

@<TRIPOS>ATOM
      1 C          -0.9010   -0.3282    2.2424 C.3     1  UNL1       -0.0351
      2 C          -0.8473    0.1924    0.7703 C.3     1  UNL1        0.0935
      3 C           0.4399   -0.3966    0.2207 C.ar    1  UNL1        0.0158
      4 C           1.5746    0.4252    0.2204 C.ar    1  UNL1       -0.0463
      5 C           2.8217   -0.1037   -0.1352 C.ar    1  UNL1       -0.0217
      6 C           4.0371    0.6922   -0.1947 C.2     1  UNL1       -0.0172
      7 C           5.0122    0.4097    0.6033 C.2     1  UNL1        0.1492
      8 F           4.8859   -0.6365    1.5173 F       1  UNL1       -0.2032
      9 C           6.2581    1.1427    0.6100 C.ar    1  UNL1        0.0990
     10 C           7.2124    0.8171    1.7158 C.ar    1  UNL1       -0.0322
     11 C           8.3396    1.6164    1.5815 C.ar    1  UNL1       -0.0408
     12 C           8.6468    2.5139    0.7156 C.ar    1  UNL1        0.0699
     13 C           9.8970    3.2849    0.5860 C.1     1  UNL1        0.1007
     14 N          10.9565    3.9311    0.4555 N.1     1  UNL1       -0.1908
     15 C           7.6893    2.7782   -0.3295 C.ar    1  UNL1        0.0457
     16 N           6.5872    2.0204   -0.2233 N.ar    1  UNL1       -0.2514
     17 C           2.8933   -1.4603   -0.4836 C.ar    1  UNL1       -0.0518
     18 C           1.7867   -2.2306   -0.4852 C.ar    1  UNL1       -0.0255
     19 C           0.5557   -1.7010   -0.1331 C.ar    1  UNL1        0.1289
     20 F          -0.5355   -2.5140   -0.1949 F       1  UNL1       -0.2051
     21 N          -0.5374    1.6348    0.9548 N.2     1  UNL1       -0.2521
     22 C          -1.3929    2.4136    1.3698 C.2     1  UNL1        0.1485
     23 N          -1.2877    3.7948    1.6000 N.pl3   1  UNL1       -0.3380
     24 S          -3.1043    1.7785    1.5960 S.3     1  UNL1       -0.0746
     25 C          -3.2666    0.6424    0.2102 C.3     1  UNL1        0.1054
     26 C          -4.6127    0.2357   -0.2222 C.2     1  UNL1        0.2324
     27 O          -5.4168    1.2345   -0.3871 O.2     1  UNL1       -0.2741
     28 N          -5.1323   -1.0216   -0.4766 N.am    1  UNL1       -0.3001
     29 C          -6.5161   -1.0996   -1.0124 C.3     1  UNL1        0.0173
     30 C          -6.5100   -2.0894   -2.1504 C.3     1  UNL1       -0.0058
     31 C          -5.1691   -2.4352   -2.7059 C.3     1  UNL1        0.1038
     32 F          -4.6309   -1.4033   -3.4619 F       1  UNL1       -0.2454
     33 C          -4.1566   -2.8865   -1.6647 C.3     1  UNL1       -0.0058
     34 C          -4.5591   -2.3232   -0.3086 C.3     1  UNL1        0.0173
     35 C          -2.3804    0.9430   -1.0356 C.3     1  UNL1       -0.0220
     36 C          -2.0365   -0.1270   -0.0386 C.3     1  UNL1        0.0134
     37 H          -1.6876    0.2314    2.7977 H       1  UNL1        0.0256
     38 H          -1.1343   -1.3941    2.2744 H       1  UNL1        0.0256
     39 H           0.1004   -0.0476    2.6872 H       1  UNL1        0.0256
     40 H           1.5302    1.4711    0.4528 H       1  UNL1        0.0628
     41 H           4.0637    1.4772   -0.9171 H       1  UNL1        0.0653
     42 H           6.9425    0.1146    2.3829 H       1  UNL1        0.0640
     43 H           9.1280    1.3527    2.3855 H       1  UNL1        0.0631
     44 H           7.9403    3.4791   -1.0536 H       1  UNL1        0.0843
     45 H           3.8589   -1.8529   -0.7250 H       1  UNL1        0.0624
     46 H           1.8546   -3.2841   -0.7911 H       1  UNL1        0.0646
     47 H          -0.3518    4.1626    1.9597 H       1  UNL1        0.1442
     48 H          -2.0301    4.4714    1.4266 H       1  UNL1        0.1442
     49 H          -7.1294   -1.4793   -0.1851 H       1  UNL1        0.0465
     50 H          -6.8950   -0.1251   -1.3253 H       1  UNL1        0.0465
     51 H          -7.1278   -1.6350   -3.0004 H       1  UNL1        0.0308
     52 H          -7.0903   -2.9871   -1.8354 H       1  UNL1        0.0308
     53 H          -5.2966   -3.2679   -3.4195 H       1  UNL1        0.0652
     54 H          -4.1203   -3.9863   -1.6514 H       1  UNL1        0.0308
     55 H          -3.1954   -2.4616   -1.9541 H       1  UNL1        0.0308
     56 H          -3.8380   -2.4588    0.4778 H       1  UNL1        0.0465
     57 H          -5.4260   -3.0182    0.0033 H       1  UNL1        0.0465
     58 H          -2.7551    0.7540   -2.0248 H       1  UNL1        0.0287
     59 H          -1.8326    1.9327   -0.9455 H       1  UNL1        0.0287
     60 H          -2.1089   -1.1932   -0.3636 H       1  UNL1        0.0346
@<TRIPOS>BOND
     1     2     1    1
     2     2     3    1
     3     3     4   ar
     4     4     5   ar
     5     5     6    1
     6     6     7    2
     7     7     8    1
     8     7     9    1
     9     9    10   ar
    10    10    11   ar
    11    11    12   ar
    12    12    13    1
    13    13    14    3
    14    12    15   ar
    15    15    16   ar
    16     5    17   ar
    17    17    18   ar
    18    18    19   ar
    19    19    20    1
    20     2    21    1
    21    21    22    2
    22    22    23    1
    23    22    24    1
    24    24    25    1
    25    25    26    1
    26    26    27    2
    27    26    28   am
    28    28    29    1
    29    29    30    1
    30    30    31    1
    31    31    32    1
    32    31    33    1
    33    33    34    1
    34    25    35    1
    35    35    36    1
    36    36     2    1
    37    19     3   ar
    38    36    25    1
    39    16     9   ar
    40    34    28    1
    41     1    37    1
    42     1    38    1
    43     1    39    1
    44     4    40    1
    45     6    41    1
    46    10    42    1
    47    11    43    1
    48    15    44    1
    49    17    45    1
    50    18    46    1
    51    23    47    1
    52    23    48    1
    53    29    49    1
    54    29    50    1
    55    30    51    1
    56    30    52    1
    57    31    53    1
    58    33    54    1
    59    33    55    1
    60    34    56    1
    61    34    57    1
    62    35    58    1
    63    35    59    1
    64    36    60    1
