
     RDKit          3D

 39 38  0  0  0  0  0  0  0  0999 V2000
   -3.8581   -2.1738    0.3965 C   0  0  0  0  0  0  0  0  0  0  0  0
   -3.7745   -0.7054    0.0994 C   0  0  0  0  0  0  0  0  0  0  0  0
   -4.1586   -0.1050   -1.1976 C   0  0  0  0  0  0  0  0  0  0  0  0
   -3.3289    0.0732    1.0700 C   0  0  0  0  0  0  0  0  0  0  0  0
   -3.1521    1.5317    1.0384 C   0  0  0  0  0  0  0  0  0  0  0  0
   -1.7016    1.8805    1.2889 C   0  0  0  0  0  0  0  0  0  0  0  0
   -0.7889    1.2997    0.2807 C   0  0  0  0  0  0  0  0  0  0  0  0
   -0.9055    1.6250   -1.1615 C   0  0  0  0  0  0  0  0  0  0  0  0
    0.1936    0.4542    0.5751 C   0  0  0  0  0  0  0  0  0  0  0  0
    1.1667   -0.1903   -0.3411 C   0  0  0  0  0  0  0  0  0  0  0  0
    2.4367    0.2150    0.0733 O   0  0  0  0  0  0  0  0  0  0  0  0
    3.5887   -0.4934   -0.9412 P   0  0  1  0  0  5  0  0  0  0  0  0
    3.6430   -1.9985   -0.7327 O   0  0  0  0  0  0  0  0  0  0  0  0
    3.2123   -0.1553   -2.5477 O   0  0  0  0  0  0  0  0  0  0  0  0
    5.1217    0.0961   -0.5621 O   0  0  0  0  0  0  0  0  0  0  0  0
    5.7985   -0.8867    0.6414 P   0  0  0  0  0  0  0  0  0  0  0  0
    5.4674   -2.3513    0.4106 O   0  0  0  0  0  0  0  0  0  0  0  0
    5.2848   -0.3922    2.1885 O   0  0  0  0  0  0  0  0  0  0  0  0
    7.4799   -0.7196    0.5854 O   0  0  0  0  0  0  0  0  0  0  0  0
   -4.5583   -2.2829    1.2425 H   0  0  0  0  0  0  0  0  0  0  0  0
   -4.2290   -2.7368   -0.4816 H   0  0  0  0  0  0  0  0  0  0  0  0
   -2.8486   -2.5509    0.7129 H   0  0  0  0  0  0  0  0  0  0  0  0
   -3.2232    0.0048   -1.8032 H   0  0  0  0  0  0  0  0  0  0  0  0
   -4.8047   -0.8046   -1.7845 H   0  0  0  0  0  0  0  0  0  0  0  0
   -4.6560    0.8742   -1.0946 H   0  0  0  0  0  0  0  0  0  0  0  0
   -3.0289   -0.2874    2.0442 H   0  0  0  0  0  0  0  0  0  0  0  0
   -3.7178    2.0130    1.8841 H   0  0  0  0  0  0  0  0  0  0  0  0
   -3.4763    2.0173    0.1144 H   0  0  0  0  0  0  0  0  0  0  0  0
   -1.4098    1.4453    2.2874 H   0  0  0  0  0  0  0  0  0  0  0  0
   -1.5642    2.9791    1.4019 H   0  0  0  0  0  0  0  0  0  0  0  0
   -0.8473    0.7689   -1.8353 H   0  0  0  0  0  0  0  0  0  0  0  0
   -1.9046    2.1006   -1.3717 H   0  0  0  0  0  0  0  0  0  0  0  0
   -0.1192    2.3487   -1.4360 H   0  0  0  0  0  0  0  0  0  0  0  0
    0.3399    0.1679    1.6235 H   0  0  0  0  0  0  0  0  0  0  0  0
    1.1351   -1.2870   -0.2417 H   0  0  0  0  0  0  0  0  0  0  0  0
    1.0439    0.1448   -1.3863 H   0  0  0  0  0  0  0  0  0  0  0  0
    4.0188    0.2452   -2.9918 H   0  0  0  0  0  0  0  0  0  0  0  0
    4.3034   -0.5363    2.2639 H   0  0  0  0  0  0  0  0  0  0  0  0
    7.8215   -0.5658   -0.3122 H   0  0  0  0  0  0  0  0  0  0  0  0
  1  2  1  0
  2  3  1  0
  2  4  2  3
  4  5  1  0
  5  6  1  0
  6  7  1  0
  7  8  1  0
  7  9  2  0
  9 10  1  0
 10 11  1  0
 12 11  1  1
 12 13  2  0
 12 14  1  0
 12 15  1  0
 15 16  1  0
 16 17  2  0
 16 18  1  0
 16 19  1  0
  1 20  1  0
  1 21  1  0
  1 22  1  0
  3 23  1  0
  3 24  1  0
  3 25  1  0
  4 26  1  0
  5 27  1  0
  5 28  1  0
  6 29  1  0
  6 30  1  0
  8 31  1  0
  8 32  1  0
  8 33  1  0
  9 34  1  0
 10 35  1  0
 10 36  1  0
 14 37  1  0
 18 38  1  0
 19 39  1  0
M  END
$$$$
