@<TRIPOS>MOLECULE
*****
 73 78 0 0 0
SMALL
GASTEIGER

@<TRIPOS>ATOM
      1 C          -3.0593    7.1802    1.3506 C.3     1  UNL1        0.0804
      2 O          -2.4779    5.8961    1.5573 O.3     1  UNL1       -0.4795
      3 C          -1.9102    5.1931    0.4853 C.ar    1  UNL1        0.2191
      4 C          -1.3643    3.9688    0.7259 C.ar    1  UNL1        0.0404
      5 C          -0.7984    3.2485   -0.2956 C.ar    1  UNL1        0.1364
      6 N          -0.2094    1.9702   -0.1006 N.am    1  UNL1       -0.2240
      7 C           1.1734    1.7225    0.2250 C.2     1  UNL1        0.3219
      8 O           1.9396    2.6034    0.7297 O.2     1  UNL1       -0.2512
      9 N           1.5381    0.3827   -0.0948 N.am    1  UNL1       -0.1920
     10 C           2.8006   -0.2482    0.0808 C.ar    1  UNL1        0.0455
     11 C           3.7999   -0.2415   -0.8667 C.ar    1  UNL1       -0.0392
     12 C           5.0276   -0.8490   -0.7197 C.ar    1  UNL1       -0.0522
     13 C           5.2979   -1.5157    0.4466 C.ar    1  UNL1       -0.0170
     14 C           6.5671   -2.1894    0.6643 C.ar    1  UNL1       -0.0039
     15 C           7.4035   -1.8140    1.7150 C.ar    1  UNL1       -0.0532
     16 C           8.6360   -2.3953    1.9245 C.ar    1  UNL1       -0.0611
     17 C           9.0750   -3.3776    1.0840 C.ar    1  UNL1       -0.0609
     18 C           8.2725   -3.7603    0.0508 C.ar    1  UNL1       -0.0472
     19 C           7.0173   -3.1813   -0.1761 C.ar    1  UNL1        0.0665
     20 C           6.2354   -3.7138   -1.2685 C.2     1  UNL1        0.3374
     21 O           6.7641   -4.6031   -2.0056 O.2     1  UNL1       -0.2451
     22 O           4.9441   -3.3542   -1.6040 O.3     1  UNL1       -0.4771
     23 C           4.3252   -1.5487    1.4256 C.ar    1  UNL1       -0.0522
     24 C           3.1014   -0.9353    1.2630 C.ar    1  UNL1       -0.0392
     25 C           0.3351   -0.1925   -0.6302 C.2     1  UNL1        0.2516
     26 O           0.2590   -1.2111   -1.3422 O.2     1  UNL1       -0.2724
     27 C          -0.8163    0.6550   -0.1772 C.3     1  UNL1        0.1240
     28 C          -1.2732    0.1250    1.1371 C.3     1  UNL1       -0.0095
     29 C          -2.7130   -0.4098    0.9408 C.3     1  UNL1        0.0017
     30 N          -2.6941   -1.3724   -0.0900 N.3     1  UNL1       -0.2965
     31 C          -3.7401   -2.3356   -0.1556 C.3     1  UNL1        0.0415
     32 C          -5.0563   -1.8753   -0.6071 C.ar    1  UNL1        0.0581
     33 N          -5.3856   -2.0504   -1.9231 N.ar    1  UNL1       -0.2583
     34 C          -6.5414   -1.6461   -2.4435 C.ar    1  UNL1        0.0279
     35 C          -7.4754   -1.0188   -1.6545 C.ar    1  UNL1       -0.0433
     36 C          -7.1719   -0.8320   -0.3365 C.ar    1  UNL1       -0.0557
     37 C          -5.9625   -1.2581    0.1985 C.ar    1  UNL1       -0.0279
     38 C          -5.7446   -1.0345    1.6567 C.3     1  UNL1       -0.0380
     39 C          -2.4902   -0.7218   -1.3798 C.3     1  UNL1        0.0017
     40 C          -1.8796    0.6216   -1.2199 C.3     1  UNL1       -0.0095
     41 N          -0.8223    3.8305   -1.5322 N.ar    1  UNL1       -0.2200
     42 C          -1.3627    5.0367   -1.7579 C.ar    1  UNL1        0.1219
     43 N          -1.9122    5.7328   -0.7571 N.ar    1  UNL1       -0.2013
     44 H          -2.5178    7.8735    2.0474 H       1  UNL1        0.0660
     45 H          -4.1136    7.1110    1.6777 H       1  UNL1        0.0660
     46 H          -2.9414    7.4958    0.2901 H       1  UNL1        0.0660
     47 H          -1.3415    3.4944    1.7169 H       1  UNL1        0.0705
     48 H           3.5950    0.2888   -1.8052 H       1  UNL1        0.0636
     49 H           5.7781   -0.7849   -1.5336 H       1  UNL1        0.0624
     50 H           7.0764   -1.0397    2.3915 H       1  UNL1        0.0624
     51 H           9.2757   -2.0903    2.7497 H       1  UNL1        0.0618
     52 H          10.0500   -3.8720    1.2079 H       1  UNL1        0.0618
     53 H           8.6418   -4.5502   -0.6133 H       1  UNL1        0.0626
     54 H           4.7383   -3.1384   -2.5925 H       1  UNL1        0.2954
     55 H           4.4876   -2.0647    2.3736 H       1  UNL1        0.0624
     56 H           2.3380   -0.9593    2.0277 H       1  UNL1        0.0636
     57 H          -0.6378   -0.7067    1.4934 H       1  UNL1        0.0303
     58 H          -1.3063    0.8666    1.9427 H       1  UNL1        0.0303
     59 H          -2.9994   -0.8552    1.9304 H       1  UNL1        0.0427
     60 H          -3.3411    0.4556    0.7048 H       1  UNL1        0.0427
     61 H          -3.3886   -3.1404   -0.8586 H       1  UNL1        0.0491
     62 H          -3.7920   -2.8361    0.8381 H       1  UNL1        0.0491
     63 H          -6.7848   -1.7982   -3.5092 H       1  UNL1        0.0829
     64 H          -8.4081   -0.7002   -2.1085 H       1  UNL1        0.0633
     65 H          -7.9005   -0.3366    0.3005 H       1  UNL1        0.0621
     66 H          -5.3983   -0.0253    1.9051 H       1  UNL1        0.0278
     67 H          -5.1476   -1.8542    2.1051 H       1  UNL1        0.0278
     68 H          -6.7659   -1.1111    2.1389 H       1  UNL1        0.0278
     69 H          -3.5099   -0.6048   -1.8260 H       1  UNL1        0.0427
     70 H          -1.9503   -1.3909   -2.0644 H       1  UNL1        0.0427
     71 H          -2.6280    1.4273   -1.0459 H       1  UNL1        0.0303
     72 H          -1.3906    0.8908   -2.1996 H       1  UNL1        0.0303
     73 H          -1.3693    5.4739   -2.7404 H       1  UNL1        0.1049
@<TRIPOS>BOND
     1     1     2    1
     2     2     3    1
     3     3     4   ar
     4     4     5   ar
     5     5     6    1
     6     6     7   am
     7     7     8    2
     8     7     9   am
     9     9    10    1
    10    10    11   ar
    11    11    12   ar
    12    12    13   ar
    13    13    14    1
    14    14    15   ar
    15    15    16   ar
    16    16    17   ar
    17    17    18   ar
    18    18    19   ar
    19    19    20    1
    20    20    21    2
    21    20    22    1
    22    13    23   ar
    23    23    24   ar
    24     9    25   am
    25    25    26    2
    26    25    27    1
    27    27    28    1
    28    28    29    1
    29    29    30    1
    30    30    31    1
    31    31    32    1
    32    32    33   ar
    33    33    34   ar
    34    34    35   ar
    35    35    36   ar
    36    36    37   ar
    37    37    38    1
    38    30    39    1
    39    39    40    1
    40     5    41   ar
    41    41    42   ar
    42    42    43   ar
    43    43     3   ar
    44    27     6    1
    45    37    32   ar
    46    24    10   ar
    47    40    27    1
    48    19    14   ar
    49     1    44    1
    50     1    45    1
    51     1    46    1
    52     4    47    1
    53    11    48    1
    54    12    49    1
    55    15    50    1
    56    16    51    1
    57    17    52    1
    58    18    53    1
    59    22    54    1
    60    23    55    1
    61    24    56    1
    62    28    57    1
    63    28    58    1
    64    29    59    1
    65    29    60    1
    66    31    61    1
    67    31    62    1
    68    34    63    1
    69    35    64    1
    70    36    65    1
    71    38    66    1
    72    38    67    1
    73    38    68    1
    74    39    69    1
    75    39    70    1
    76    40    71    1
    77    40    72    1
    78    42    73    1
