@<TRIPOS>MOLECULE
*****
 37 37 0 0 0
SMALL
GASTEIGER

@<TRIPOS>ATOM
      1 C           4.6271   -2.3676    0.2458 C.3     1  UNL1       -0.0543
      2 C           3.4215   -2.2853    1.1702 C.3     1  UNL1        0.0063
      3 C           2.5906   -1.1134    0.8588 C.1     1  UNL1       -0.1022
      4 C           1.9041   -0.1558    0.5923 C.1     1  UNL1       -0.0976
      5 C           1.0781    1.0280    0.2481 C.3     1  UNL1        0.0405
      6 C           1.6449    1.7924   -0.9278 C.3     1  UNL1       -0.0500
      7 C          -0.3273    0.5998    0.0011 C.3     1  UNL1        0.1401
      8 C          -0.4413   -0.3950   -1.1390 C.3     1  UNL1       -0.0114
      9 C          -1.8907   -0.7411   -1.2823 C.2     1  UNL1       -0.0896
     10 C          -2.2463   -2.0119   -1.1288 C.2     1  UNL1       -0.1026
     11 C          -0.8461    0.0165    1.2694 C.2     1  UNL1        0.2369
     12 O          -0.0479   -0.4365    2.1364 O.2     1  UNL1       -0.2742
     13 N          -2.2351   -0.0568    1.5584 N.am    1  UNL1       -0.2388
     14 C          -3.1168    0.8356    0.8935 C.2     1  UNL1        0.3146
     15 O          -4.3514    0.7966    1.1269 O.2     1  UNL1       -0.2518
     16 N          -2.5636    1.7795   -0.0480 N.am    1  UNL1       -0.2279
     17 C          -3.4737    2.7013   -0.7350 C.3     1  UNL1        0.0124
     18 C          -1.1504    1.7929   -0.2869 C.2     1  UNL1        0.2393
     19 O          -0.7616    2.9167   -0.7508 O.2     1  UNL1       -0.2740
     20 H           4.3407   -2.7196   -0.7568 H       1  UNL1        0.0239
     21 H           5.0051   -1.3204    0.1463 H       1  UNL1        0.0239
     22 H           5.4051   -2.9841    0.7286 H       1  UNL1        0.0239
     23 H           3.8430   -2.1340    2.1916 H       1  UNL1        0.0395
     24 H           2.7858   -3.2013    1.1059 H       1  UNL1        0.0395
     25 H           1.0705    1.7137    1.1196 H       1  UNL1        0.0445
     26 H           1.0018    1.8117   -1.8133 H       1  UNL1        0.0242
     27 H           2.5855    1.2495   -1.2251 H       1  UNL1        0.0242
     28 H           1.9717    2.8205   -0.6257 H       1  UNL1        0.0242
     29 H          -0.0420    0.0778   -2.0531 H       1  UNL1        0.0322
     30 H           0.1610   -1.3001   -0.9308 H       1  UNL1        0.0322
     31 H          -2.9449   -0.9352   -1.3956 H       1  UNL1        0.0567
     32 H          -1.6593   -2.9083   -0.9059 H       1  UNL1        0.0532
     33 H          -1.6432   -2.9059   -0.9041 H       1  UNL1        0.0532
     34 H          -2.5506   -0.7608    2.2451 H       1  UNL1        0.1591
     35 H          -4.4228    2.7305   -0.1769 H       1  UNL1        0.0434
     36 H          -3.0097    3.7067   -0.8266 H       1  UNL1        0.0434
     37 H          -3.7119    2.3633   -1.7660 H       1  UNL1        0.0434
@<TRIPOS>BOND
     1     1     2    1
     2     2     3    1
     3     3     4    3
     4     4     5    1
     5     5     6    1
     6     5     7    1
     7     7     8    1
     8     8     9    1
     9     9    10    2
    10     7    11    1
    11    11    12    2
    12    11    13   am
    13    13    14   am
    14    14    15    2
    15    14    16   am
    16    16    17    1
    17    16    18   am
    18    18    19    2
    19    18     7    1
    20     1    20    1
    21     1    21    1
    22     1    22    1
    23     2    23    1
    24     2    24    1
    25     5    25    1
    26     6    26    1
    27     6    27    1
    28     6    28    1
    29     8    29    1
    30     8    30    1
    31     9    31    1
    32    10    32    1
    33    10    33    1
    34    13    34    1
    35    17    35    1
    36    17    36    1
    37    17    37    1
