@<TRIPOS>MOLECULE
*****
 50 53 0 0 0
SMALL
GASTEIGER

@<TRIPOS>ATOM
      1 C           1.8881   -1.9943    0.6210 C.3     1  UNL1        0.0093
      2 N           1.7953   -1.1402   -0.4711 N.3     1  UNL1       -0.1749
      3 C           0.6964   -0.2447   -0.5991 C.3     1  UNL1        0.0498
      4 C           0.4000    0.5165    0.6452 C.3     1  UNL1       -0.0287
      5 C          -0.7239   -0.0229    1.4692 C.3     1  UNL1       -0.0105
      6 C          -1.9075   -0.1528    0.5625 C.ar    1  UNL1        0.0237
      7 C          -3.2545    0.0730    0.8053 C.ar    1  UNL1       -0.0082
      8 C          -3.9335    0.4836    2.0515 C.3     1  UNL1        0.0721
      9 C          -3.7012    1.9093    2.4048 C.2     1  UNL1        0.3091
     10 O          -3.7734    2.3023    3.5998 O.2     1  UNL1       -0.2507
     11 O          -3.3987    2.8463    1.4323 O.3     1  UNL1       -0.4804
     12 C          -3.9099   -0.1814   -0.3799 C.ar    1  UNL1        0.0066
     13 C          -5.2329   -0.1502   -0.8036 C.ar    1  UNL1       -0.0521
     14 C          -5.6355   -0.4649   -2.0703 C.ar    1  UNL1       -0.0584
     15 C          -4.6784   -0.8434   -3.0158 C.ar    1  UNL1       -0.0244
     16 C          -3.3690   -0.8786   -2.6179 C.ar    1  UNL1        0.1473
     17 F          -2.4006   -1.2331   -3.5149 F       1  UNL1       -0.2033
     18 C          -2.9960   -0.5588   -1.3421 C.ar    1  UNL1        0.0853
     19 N          -1.7695   -0.5264   -0.7105 N.ar    1  UNL1       -0.3397
     20 C          -0.4838   -0.8572   -1.2883 C.3     1  UNL1        0.0409
     21 S           3.1859   -0.8264   -1.3608 S.O2    1  UNL1        0.0609
     22 O           3.8001   -2.0585   -1.9659 O.2     1  UNL1       -0.1528
     23 O           2.8922    0.1290   -2.5068 O.2     1  UNL1       -0.1528
     24 C           4.3792   -0.0567   -0.3281 C.ar    1  UNL1        0.1056
     25 C           4.3838    1.3165   -0.2643 C.ar    1  UNL1       -0.0326
     26 C           5.3071    1.9755    0.5276 C.ar    1  UNL1       -0.0246
     27 C           6.2416    1.2869    1.2687 C.ar    1  UNL1        0.1235
     28 F           7.1713    1.9066    2.0694 F       1  UNL1       -0.2055
     29 C           6.2055   -0.0885    1.1787 C.ar    1  UNL1       -0.0246
     30 C           5.2901   -0.7613    0.3935 C.ar    1  UNL1       -0.0326
     31 H           2.0424   -1.3950    1.5584 H       1  UNL1        0.0408
     32 H           1.0885   -2.7475    0.7488 H       1  UNL1        0.0408
     33 H           2.8385   -2.6008    0.5114 H       1  UNL1        0.0408
     34 H           1.0731    0.5421   -1.3422 H       1  UNL1        0.0497
     35 H           1.3422    0.5957    1.2354 H       1  UNL1        0.0285
     36 H           0.1146    1.5645    0.3826 H       1  UNL1        0.0285
     37 H          -0.9401    0.7788    2.2405 H       1  UNL1        0.0328
     38 H          -0.5058   -0.9114    2.0630 H       1  UNL1        0.0328
     39 H          -5.0294    0.3201    1.9590 H       1  UNL1        0.0427
     40 H          -3.5526   -0.1467    2.9003 H       1  UNL1        0.0427
     41 H          -3.6302    3.8270    1.4913 H       1  UNL1        0.2951
     42 H          -5.9442    0.1546   -0.0207 H       1  UNL1        0.0624
     43 H          -6.6812   -0.4166   -2.3202 H       1  UNL1        0.0619
     44 H          -4.9993   -1.0984   -4.0345 H       1  UNL1        0.0647
     45 H          -0.3974   -1.9948   -1.2858 H       1  UNL1        0.0508
     46 H          -0.4957   -0.6356   -2.4035 H       1  UNL1        0.0508
     47 H           3.6707    1.9168   -0.8213 H       1  UNL1        0.0638
     48 H           5.3351    3.0531    0.5938 H       1  UNL1        0.0647
     49 H           6.9369   -0.6717    1.7481 H       1  UNL1        0.0647
     50 H           5.2655   -1.8397    0.3290 H       1  UNL1        0.0638
@<TRIPOS>BOND
     1     1     2    1
     2     2     3    1
     3     3     4    1
     4     4     5    1
     5     5     6    1
     6     6     7   ar
     7     7     8    1
     8     8     9    1
     9     9    10    2
    10     9    11    1
    11     7    12   ar
    12    12    13   ar
    13    13    14   ar
    14    14    15   ar
    15    15    16   ar
    16    16    17    1
    17    16    18   ar
    18    18    19   ar
    19    19    20    1
    20     2    21    1
    21    21    22    2
    22    21    23    2
    23    21    24    1
    24    24    25   ar
    25    25    26   ar
    26    26    27   ar
    27    27    28    1
    28    27    29   ar
    29    29    30   ar
    30    20     3    1
    31    30    24   ar
    32    19     6   ar
    33    18    12   ar
    34     1    31    1
    35     1    32    1
    36     1    33    1
    37     3    34    1
    38     4    35    1
    39     4    36    1
    40     5    37    1
    41     5    38    1
    42     8    39    1
    43     8    40    1
    44    11    41    1
    45    13    42    1
    46    14    43    1
    47    15    44    1
    48    20    45    1
    49    20    46    1
    50    25    47    1
    51    26    48    1
    52    29    49    1
    53    30    50    1
