
     RDKit          3D

 50 53  0  0  0  0  0  0  0  0999 V2000
    1.8881   -1.9943    0.6210 C   0  0  0  0  0  0  0  0  0  0  0  0
    1.7953   -1.1402   -0.4711 N   0  0  0  0  0  0  0  0  0  0  0  0
    0.6964   -0.2447   -0.5991 C   0  0  2  0  0  0  0  0  0  0  0  0
    0.4000    0.5165    0.6452 C   0  0  0  0  0  0  0  0  0  0  0  0
   -0.7239   -0.0229    1.4692 C   0  0  0  0  0  0  0  0  0  0  0  0
   -1.9075   -0.1528    0.5625 C   0  0  0  0  0  0  0  0  0  0  0  0
   -3.2545    0.0730    0.8053 C   0  0  0  0  0  0  0  0  0  0  0  0
   -3.9335    0.4836    2.0515 C   0  0  0  0  0  0  0  0  0  0  0  0
   -3.7012    1.9093    2.4048 C   0  0  0  0  0  0  0  0  0  0  0  0
   -3.7734    2.3023    3.5998 O   0  0  0  0  0  0  0  0  0  0  0  0
   -3.3987    2.8463    1.4323 O   0  0  0  0  0  0  0  0  0  0  0  0
   -3.9099   -0.1814   -0.3799 C   0  0  0  0  0  0  0  0  0  0  0  0
   -5.2329   -0.1502   -0.8036 C   0  0  0  0  0  0  0  0  0  0  0  0
   -5.6355   -0.4649   -2.0703 C   0  0  0  0  0  0  0  0  0  0  0  0
   -4.6784   -0.8434   -3.0158 C   0  0  0  0  0  0  0  0  0  0  0  0
   -3.3690   -0.8786   -2.6179 C   0  0  0  0  0  0  0  0  0  0  0  0
   -2.4006   -1.2331   -3.5149 F   0  0  0  0  0  0  0  0  0  0  0  0
   -2.9960   -0.5588   -1.3421 C   0  0  0  0  0  0  0  0  0  0  0  0
   -1.7695   -0.5264   -0.7105 N   0  0  0  0  0  0  0  0  0  0  0  0
   -0.4838   -0.8572   -1.2883 C   0  0  0  0  0  0  0  0  0  0  0  0
    3.1859   -0.8264   -1.3608 S   0  0  0  0  0  6  0  0  0  0  0  0
    3.8001   -2.0585   -1.9659 O   0  0  0  0  0  0  0  0  0  0  0  0
    2.8922    0.1290   -2.5068 O   0  0  0  0  0  0  0  0  0  0  0  0
    4.3792   -0.0567   -0.3281 C   0  0  0  0  0  0  0  0  0  0  0  0
    4.3838    1.3165   -0.2643 C   0  0  0  0  0  0  0  0  0  0  0  0
    5.3071    1.9755    0.5276 C   0  0  0  0  0  0  0  0  0  0  0  0
    6.2416    1.2869    1.2687 C   0  0  0  0  0  0  0  0  0  0  0  0
    7.1713    1.9066    2.0694 F   0  0  0  0  0  0  0  0  0  0  0  0
    6.2055   -0.0885    1.1787 C   0  0  0  0  0  0  0  0  0  0  0  0
    5.2901   -0.7613    0.3935 C   0  0  0  0  0  0  0  0  0  0  0  0
    2.0424   -1.3950    1.5584 H   0  0  0  0  0  0  0  0  0  0  0  0
    1.0885   -2.7475    0.7488 H   0  0  0  0  0  0  0  0  0  0  0  0
    2.8385   -2.6008    0.5114 H   0  0  0  0  0  0  0  0  0  0  0  0
    1.0731    0.5421   -1.3422 H   0  0  0  0  0  0  0  0  0  0  0  0
    1.3422    0.5957    1.2354 H   0  0  0  0  0  0  0  0  0  0  0  0
    0.1146    1.5645    0.3826 H   0  0  0  0  0  0  0  0  0  0  0  0
   -0.9401    0.7788    2.2405 H   0  0  0  0  0  0  0  0  0  0  0  0
   -0.5058   -0.9114    2.0630 H   0  0  0  0  0  0  0  0  0  0  0  0
   -5.0294    0.3201    1.9590 H   0  0  0  0  0  0  0  0  0  0  0  0
   -3.5526   -0.1467    2.9003 H   0  0  0  0  0  0  0  0  0  0  0  0
   -3.6302    3.8270    1.4913 H   0  0  0  0  0  0  0  0  0  0  0  0
   -5.9442    0.1546   -0.0207 H   0  0  0  0  0  0  0  0  0  0  0  0
   -6.6812   -0.4166   -2.3202 H   0  0  0  0  0  0  0  0  0  0  0  0
   -4.9993   -1.0984   -4.0345 H   0  0  0  0  0  0  0  0  0  0  0  0
   -0.3974   -1.9948   -1.2858 H   0  0  0  0  0  0  0  0  0  0  0  0
   -0.4957   -0.6356   -2.4035 H   0  0  0  0  0  0  0  0  0  0  0  0
    3.6707    1.9168   -0.8213 H   0  0  0  0  0  0  0  0  0  0  0  0
    5.3351    3.0531    0.5938 H   0  0  0  0  0  0  0  0  0  0  0  0
    6.9369   -0.6717    1.7481 H   0  0  0  0  0  0  0  0  0  0  0  0
    5.2655   -1.8397    0.3290 H   0  0  0  0  0  0  0  0  0  0  0  0
  1  2  1  0
  2  3  1  0
  3  4  1  0
  4  5  1  0
  5  6  1  0
  6  7  2  0
  7  8  1  0
  8  9  1  0
  9 10  2  0
  9 11  1  0
  7 12  1  0
 12 13  2  0
 13 14  1  0
 14 15  2  0
 15 16  1  0
 16 17  1  0
 16 18  2  0
 18 19  1  0
 19 20  1  0
  2 21  1  0
 21 22  2  0
 21 23  2  0
 21 24  1  0
 24 25  2  0
 25 26  1  0
 26 27  2  0
 27 28  1  0
 27 29  1  0
 29 30  2  0
 20  3  1  0
 30 24  1  0
 19  6  1  0
 18 12  1  0
  1 31  1  0
  1 32  1  0
  1 33  1  0
  3 34  1  6
  4 35  1  0
  4 36  1  0
  5 37  1  0
  5 38  1  0
  8 39  1  0
  8 40  1  0
 11 41  1  0
 13 42  1  0
 14 43  1  0
 15 44  1  0
 20 45  1  0
 20 46  1  0
 25 47  1  0
 26 48  1  0
 29 49  1  0
 30 50  1  0
M  END
$$$$
