@<TRIPOS>MOLECULE
*****
 110 114 0 0 0
SMALL
GASTEIGER

@<TRIPOS>ATOM
      1 N           4.3562    5.3463   -3.4310 N.pl3   1  UNL1       -0.3375
      2 C           3.2397    4.8763   -2.5632 C.ar    1  UNL1        0.1557
      3 N           2.4853    4.0741   -2.3801 N.ar    1  UNL1       -0.2300
      4 C           1.5446    3.8962   -1.4676 C.ar    1  UNL1        0.0527
      5 C           0.5948    2.7050   -1.4004 C.3     1  UNL1        0.0172
      6 C           1.2495    1.6398   -0.5498 C.3     1  UNL1        0.1048
      7 N           2.5224    1.3113   -1.2419 N.am    1  UNL1       -0.3023
      8 C           3.7432    1.3795   -0.5483 C.2     1  UNL1        0.2326
      9 O           3.6707    1.7266    0.6848 O.2     1  UNL1       -0.2740
     10 C           5.0238    1.0769   -1.1797 C.3     1  UNL1        0.1097
     11 C           5.9349    2.3142   -1.1439 C.3     1  UNL1       -0.0021
     12 C           6.2339    2.7672    0.2205 C.ar    1  UNL1       -0.0454
     13 C           5.5002    3.7373    0.8539 C.ar    1  UNL1       -0.0585
     14 C           5.7831    4.1500    2.1421 C.ar    1  UNL1       -0.0615
     15 C           6.8285    3.5844    2.8304 C.ar    1  UNL1       -0.0617
     16 C           7.5959    2.5966    2.2203 C.ar    1  UNL1       -0.0615
     17 C           7.2880    2.2033    0.9270 C.ar    1  UNL1       -0.0585
     18 N           4.9252    0.6930   -2.5370 N.3     1  UNL1       -0.1675
     19 S           5.6999   -0.7966   -2.8489 S.O2    1  UNL1        0.0978
     20 O           5.6065   -1.0480   -4.3414 O.2     1  UNL1       -0.1411
     21 O           7.1848   -0.7004   -2.5532 O.2     1  UNL1       -0.1411
     22 N           4.9803   -2.0450   -1.9454 N.3     1  UNL1       -0.1622
     23 C           5.8273   -2.5756   -0.8928 C.3     1  UNL1        0.0450
     24 C           6.4015   -3.9234   -1.1856 C.3     1  UNL1        0.0621
     25 O           5.5538   -4.8293   -1.7572 O.3     1  UNL1       -0.3771
     26 C           4.2702   -4.3807   -1.9586 C.3     1  UNL1        0.0621
     27 C           4.3792   -3.0857   -2.7448 C.3     1  UNL1        0.0450
     28 C           0.4584    0.3925   -0.5297 C.2     1  UNL1        0.2340
     29 O           0.9071   -0.6432   -1.0495 O.2     1  UNL1       -0.2738
     30 N          -0.8077    0.3841    0.0834 N.am    1  UNL1       -0.3082
     31 C          -1.6012   -0.8648    0.1055 C.3     1  UNL1        0.0555
     32 C          -1.8052   -1.2604    1.5518 C.3     1  UNL1       -0.0290
     33 C          -0.4780   -1.4735    2.2552 C.3     1  UNL1       -0.0393
     34 C           0.3611   -2.5392    1.6574 C.3     1  UNL1       -0.0502
     35 C           0.4819   -3.6857    2.6370 C.3     1  UNL1       -0.0528
     36 C          -0.9014   -4.1096    3.0432 C.3     1  UNL1       -0.0530
     37 C          -1.5316   -3.0171    3.8559 C.3     1  UNL1       -0.0528
     38 C          -0.7270   -1.7586    3.7065 C.3     1  UNL1       -0.0502
     39 C          -2.9228   -0.4774   -0.4947 C.3     1  UNL1        0.1453
     40 O          -2.7716   -0.0000   -1.8038 O.3     1  UNL1       -0.3835
     41 C          -4.0028   -1.4854   -0.4838 C.3     1  UNL1        0.3494
     42 F          -4.3477   -1.8593    0.7916 F       1  UNL1       -0.1924
     43 F          -3.6761   -2.6408   -1.1785 F       1  UNL1       -0.1924
     44 C          -5.2195   -0.8491   -1.0864 C.2     1  UNL1        0.2853
     45 O          -5.7169   -1.3765   -2.1019 O.2     1  UNL1       -0.2692
     46 N          -5.7647    0.3044   -0.5079 N.am    1  UNL1       -0.3091
     47 C          -6.9285    0.9477   -1.0422 C.3     1  UNL1        0.0245
     48 C          -8.1009    0.0089   -0.9892 C.3     1  UNL1        0.0146
     49 N          -8.3289   -0.3510    0.3964 N.3     1  UNL1       -0.2965
     50 C          -8.7966    0.7401    1.1968 C.3     1  UNL1        0.0225
     51 C         -10.0605    1.2829    0.5594 C.3     1  UNL1        0.0604
     52 O         -10.8203    0.3024   -0.0393 O.3     1  UNL1       -0.3772
     53 C         -10.6882   -0.9347    0.5783 C.3     1  UNL1        0.0604
     54 C          -9.2662   -1.4436    0.5280 C.3     1  UNL1        0.0225
     55 C           1.5098    4.9387   -0.5613 C.ar    1  UNL1        0.0003
     56 S           2.8238    6.0608   -1.1094 S.2     1  UNL1       -0.0608
     57 H           5.3193    5.0814   -3.2442 H       1  UNL1        0.1442
     58 H           4.0771    5.9381   -4.2021 H       1  UNL1        0.1442
     59 H           0.3749    2.3802   -2.4175 H       1  UNL1        0.0351
     60 H          -0.3557    3.0670   -0.9522 H       1  UNL1        0.0351
     61 H           1.4688    2.0109    0.4705 H       1  UNL1        0.0598
     62 H           2.3675    1.0468   -2.2288 H       1  UNL1        0.1495
     63 H           5.5648    0.2539   -0.6083 H       1  UNL1        0.0576
     64 H           5.3808    3.1601   -1.6428 H       1  UNL1        0.0334
     65 H           6.8653    2.1534   -1.7178 H       1  UNL1        0.0334
     66 H           4.6648    4.2340    0.3735 H       1  UNL1        0.0620
     67 H           5.2040    4.9111    2.6347 H       1  UNL1        0.0618
     68 H           7.1016    3.8720    3.8531 H       1  UNL1        0.0618
     69 H           8.4092    2.1741    2.7908 H       1  UNL1        0.0618
     70 H           7.8882    1.4368    0.4656 H       1  UNL1        0.0620
     71 H           4.0286    0.7775   -2.9928 H       1  UNL1        0.1500
     72 H           6.6462   -1.8215   -0.7282 H       1  UNL1        0.0467
     73 H           5.2314   -2.6108    0.0425 H       1  UNL1        0.0467
     74 H           7.3328   -3.7504   -1.8013 H       1  UNL1        0.0573
     75 H           6.7950   -4.3160   -0.2050 H       1  UNL1        0.0573
     76 H           3.7469   -5.1252   -2.6118 H       1  UNL1        0.0573
     77 H           3.7082   -4.1977   -1.0439 H       1  UNL1        0.0573
     78 H           5.0114   -3.2180   -3.6508 H       1  UNL1        0.0467
     79 H           3.3959   -2.7292   -3.0993 H       1  UNL1        0.0467
     80 H          -1.2230    1.2222    0.5275 H       1  UNL1        0.1491
     81 H          -1.0336   -1.6022   -0.4603 H       1  UNL1        0.0526
     82 H          -2.3369   -0.4512    2.0616 H       1  UNL1        0.0287
     83 H          -2.3853   -2.1942    1.6354 H       1  UNL1        0.0287
     84 H           0.0927   -0.5041    2.1866 H       1  UNL1        0.0301
     85 H          -0.0502   -2.9713    0.7198 H       1  UNL1        0.0268
     86 H           1.4040   -2.1560    1.4986 H       1  UNL1        0.0268
     87 H           1.1374   -3.4700    3.4898 H       1  UNL1        0.0265
     88 H           0.9519   -4.5666    2.1153 H       1  UNL1        0.0265
     89 H          -0.8889   -5.0269    3.6755 H       1  UNL1        0.0265
     90 H          -1.4932   -4.3520    2.1281 H       1  UNL1        0.0265
     91 H          -1.6274   -3.3129    4.9370 H       1  UNL1        0.0265
     92 H          -2.5763   -2.8404    3.5211 H       1  UNL1        0.0265
     93 H          -1.2892   -0.9182    4.1923 H       1  UNL1        0.0268
     94 H           0.2352   -1.8218    4.2742 H       1  UNL1        0.0268
     95 H          -3.2770    0.4260    0.0996 H       1  UNL1        0.0677
     96 H          -2.3341    0.8682   -1.8657 H       1  UNL1        0.2101
     97 H          -5.3076    0.7055    0.3370 H       1  UNL1        0.1489
     98 H          -6.6874    1.2445   -2.0965 H       1  UNL1        0.0474
     99 H          -7.1342    1.8961   -0.4981 H       1  UNL1        0.0474
    100 H          -8.9644    0.5741   -1.4111 H       1  UNL1        0.0442
    101 H          -7.8733   -0.8998   -1.5471 H       1  UNL1        0.0442
    102 H          -8.0663    1.5246    1.3928 H       1  UNL1        0.0449
    103 H          -9.0914    0.3156    2.1867 H       1  UNL1        0.0449
    104 H         -10.6064    1.8503    1.3462 H       1  UNL1        0.0572
    105 H          -9.7541    2.0201   -0.2086 H       1  UNL1        0.0572
    106 H         -11.3246   -1.6539    0.0157 H       1  UNL1        0.0572
    107 H         -11.0892   -0.9321    1.6174 H       1  UNL1        0.0572
    108 H          -9.1152   -2.1801   -0.2875 H       1  UNL1        0.0449
    109 H          -9.0578   -1.9345    1.5024 H       1  UNL1        0.0449
    110 H           0.8377    5.1262    0.3499 H       1  UNL1        0.0712
@<TRIPOS>BOND
     1     1     2    1
     2     2     3   ar
     3     3     4   ar
     4     4     5    1
     5     5     6    1
     6     6     7    1
     7     7     8   am
     8     8     9    2
     9     8    10    1
    10    10    11    1
    11    11    12    1
    12    12    13   ar
    13    13    14   ar
    14    14    15   ar
    15    15    16   ar
    16    16    17   ar
    17    10    18    1
    18    18    19    1
    19    19    20    2
    20    19    21    2
    21    19    22    1
    22    22    23    1
    23    23    24    1
    24    24    25    1
    25    25    26    1
    26    26    27    1
    27     6    28    1
    28    28    29    2
    29    28    30   am
    30    30    31    1
    31    31    32    1
    32    32    33    1
    33    33    34    1
    34    34    35    1
    35    35    36    1
    36    36    37    1
    37    37    38    1
    38    31    39    1
    39    39    40    1
    40    39    41    1
    41    41    42    1
    42    41    43    1
    43    41    44    1
    44    44    45    2
    45    44    46   am
    46    46    47    1
    47    47    48    1
    48    48    49    1
    49    49    50    1
    50    50    51    1
    51    51    52    1
    52    52    53    1
    53    53    54    1
    54     4    55   ar
    55    55    56   ar
    56    56     2   ar
    57    17    12   ar
    58    27    22    1
    59    38    33    1
    60    54    49    1
    61     1    57    1
    62     1    58    1
    63     5    59    1
    64     5    60    1
    65     6    61    1
    66     7    62    1
    67    10    63    1
    68    11    64    1
    69    11    65    1
    70    13    66    1
    71    14    67    1
    72    15    68    1
    73    16    69    1
    74    17    70    1
    75    18    71    1
    76    23    72    1
    77    23    73    1
    78    24    74    1
    79    24    75    1
    80    26    76    1
    81    26    77    1
    82    27    78    1
    83    27    79    1
    84    30    80    1
    85    31    81    1
    86    32    82    1
    87    32    83    1
    88    33    84    1
    89    34    85    1
    90    34    86    1
    91    35    87    1
    92    35    88    1
    93    36    89    1
    94    36    90    1
    95    37    91    1
    96    37    92    1
    97    38    93    1
    98    38    94    1
    99    39    95    1
   100    40    96    1
   101    46    97    1
   102    47    98    1
   103    47    99    1
   104    48   100    1
   105    48   101    1
   106    50   102    1
   107    50   103    1
   108    51   104    1
   109    51   105    1
   110    53   106    1
   111    53   107    1
   112    54   108    1
   113    54   109    1
   114    55   110    1
