
     RDKit          3D

110114  0  0  0  0  0  0  0  0999 V2000
    4.3562    5.3463   -3.4310 N   0  0  0  0  0  0  0  0  0  0  0  0
    3.2397    4.8763   -2.5632 C   0  0  0  0  0  0  0  0  0  0  0  0
    2.4853    4.0741   -2.3801 N   0  0  0  0  0  0  0  0  0  0  0  0
    1.5446    3.8962   -1.4676 C   0  0  0  0  0  0  0  0  0  0  0  0
    0.5948    2.7050   -1.4004 C   0  0  0  0  0  0  0  0  0  0  0  0
    1.2495    1.6398   -0.5498 C   0  0  2  0  0  0  0  0  0  0  0  0
    2.5224    1.3113   -1.2419 N   0  0  0  0  0  0  0  0  0  0  0  0
    3.7432    1.3795   -0.5483 C   0  0  0  0  0  0  0  0  0  0  0  0
    3.6707    1.7266    0.6848 O   0  0  0  0  0  0  0  0  0  0  0  0
    5.0238    1.0769   -1.1797 C   0  0  2  0  0  0  0  0  0  0  0  0
    5.9349    2.3142   -1.1439 C   0  0  0  0  0  0  0  0  0  0  0  0
    6.2339    2.7672    0.2205 C   0  0  0  0  0  0  0  0  0  0  0  0
    5.5002    3.7373    0.8539 C   0  0  0  0  0  0  0  0  0  0  0  0
    5.7831    4.1500    2.1421 C   0  0  0  0  0  0  0  0  0  0  0  0
    6.8285    3.5844    2.8304 C   0  0  0  0  0  0  0  0  0  0  0  0
    7.5959    2.5966    2.2203 C   0  0  0  0  0  0  0  0  0  0  0  0
    7.2880    2.2033    0.9270 C   0  0  0  0  0  0  0  0  0  0  0  0
    4.9252    0.6930   -2.5370 N   0  0  0  0  0  0  0  0  0  0  0  0
    5.6999   -0.7966   -2.8489 S   0  0  0  0  0  6  0  0  0  0  0  0
    5.6065   -1.0480   -4.3414 O   0  0  0  0  0  0  0  0  0  0  0  0
    7.1848   -0.7004   -2.5532 O   0  0  0  0  0  0  0  0  0  0  0  0
    4.9803   -2.0450   -1.9454 N   0  0  0  0  0  0  0  0  0  0  0  0
    5.8273   -2.5756   -0.8928 C   0  0  0  0  0  0  0  0  0  0  0  0
    6.4015   -3.9234   -1.1856 C   0  0  0  0  0  0  0  0  0  0  0  0
    5.5538   -4.8293   -1.7572 O   0  0  0  0  0  0  0  0  0  0  0  0
    4.2702   -4.3807   -1.9586 C   0  0  0  0  0  0  0  0  0  0  0  0
    4.3792   -3.0857   -2.7448 C   0  0  0  0  0  0  0  0  0  0  0  0
    0.4584    0.3925   -0.5297 C   0  0  0  0  0  0  0  0  0  0  0  0
    0.9071   -0.6432   -1.0495 O   0  0  0  0  0  0  0  0  0  0  0  0
   -0.8077    0.3841    0.0834 N   0  0  0  0  0  0  0  0  0  0  0  0
   -1.6012   -0.8648    0.1055 C   0  0  1  0  0  0  0  0  0  0  0  0
   -1.8052   -1.2604    1.5518 C   0  0  0  0  0  0  0  0  0  0  0  0
   -0.4780   -1.4735    2.2552 C   0  0  0  0  0  0  0  0  0  0  0  0
    0.3611   -2.5392    1.6574 C   0  0  0  0  0  0  0  0  0  0  0  0
    0.4819   -3.6857    2.6370 C   0  0  0  0  0  0  0  0  0  0  0  0
   -0.9014   -4.1096    3.0432 C   0  0  0  0  0  0  0  0  0  0  0  0
   -1.5316   -3.0171    3.8559 C   0  0  0  0  0  0  0  0  0  0  0  0
   -0.7270   -1.7586    3.7065 C   0  0  0  0  0  0  0  0  0  0  0  0
   -2.9228   -0.4774   -0.4947 C   0  0  1  0  0  0  0  0  0  0  0  0
   -2.7716   -0.0000   -1.8038 O   0  0  0  0  0  0  0  0  0  0  0  0
   -4.0028   -1.4854   -0.4838 C   0  0  0  0  0  0  0  0  0  0  0  0
   -4.3477   -1.8593    0.7916 F   0  0  0  0  0  0  0  0  0  0  0  0
   -3.6761   -2.6408   -1.1785 F   0  0  0  0  0  0  0  0  0  0  0  0
   -5.2195   -0.8491   -1.0864 C   0  0  0  0  0  0  0  0  0  0  0  0
   -5.7169   -1.3765   -2.1019 O   0  0  0  0  0  0  0  0  0  0  0  0
   -5.7647    0.3044   -0.5079 N   0  0  0  0  0  0  0  0  0  0  0  0
   -6.9285    0.9477   -1.0422 C   0  0  0  0  0  0  0  0  0  0  0  0
   -8.1009    0.0089   -0.9892 C   0  0  0  0  0  0  0  0  0  0  0  0
   -8.3289   -0.3510    0.3964 N   0  0  0  0  0  0  0  0  0  0  0  0
   -8.7966    0.7401    1.1968 C   0  0  0  0  0  0  0  0  0  0  0  0
  -10.0605    1.2829    0.5594 C   0  0  0  0  0  0  0  0  0  0  0  0
  -10.8203    0.3024   -0.0393 O   0  0  0  0  0  0  0  0  0  0  0  0
  -10.6882   -0.9347    0.5783 C   0  0  0  0  0  0  0  0  0  0  0  0
   -9.2662   -1.4436    0.5280 C   0  0  0  0  0  0  0  0  0  0  0  0
    1.5098    4.9387   -0.5613 C   0  0  0  0  0  0  0  0  0  0  0  0
    2.8238    6.0608   -1.1094 S   0  0  0  0  0  0  0  0  0  0  0  0
    5.3193    5.0814   -3.2442 H   0  0  0  0  0  0  0  0  0  0  0  0
    4.0771    5.9381   -4.2021 H   0  0  0  0  0  0  0  0  0  0  0  0
    0.3749    2.3802   -2.4175 H   0  0  0  0  0  0  0  0  0  0  0  0
   -0.3557    3.0670   -0.9522 H   0  0  0  0  0  0  0  0  0  0  0  0
    1.4688    2.0109    0.4705 H   0  0  0  0  0  0  0  0  0  0  0  0
    2.3675    1.0468   -2.2288 H   0  0  0  0  0  0  0  0  0  0  0  0
    5.5648    0.2539   -0.6083 H   0  0  0  0  0  0  0  0  0  0  0  0
    5.3808    3.1601   -1.6428 H   0  0  0  0  0  0  0  0  0  0  0  0
    6.8653    2.1534   -1.7178 H   0  0  0  0  0  0  0  0  0  0  0  0
    4.6648    4.2340    0.3735 H   0  0  0  0  0  0  0  0  0  0  0  0
    5.2040    4.9111    2.6347 H   0  0  0  0  0  0  0  0  0  0  0  0
    7.1016    3.8720    3.8531 H   0  0  0  0  0  0  0  0  0  0  0  0
    8.4092    2.1741    2.7908 H   0  0  0  0  0  0  0  0  0  0  0  0
    7.8882    1.4368    0.4656 H   0  0  0  0  0  0  0  0  0  0  0  0
    4.0286    0.7775   -2.9928 H   0  0  0  0  0  0  0  0  0  0  0  0
    6.6462   -1.8215   -0.7282 H   0  0  0  0  0  0  0  0  0  0  0  0
    5.2314   -2.6108    0.0425 H   0  0  0  0  0  0  0  0  0  0  0  0
    7.3328   -3.7504   -1.8013 H   0  0  0  0  0  0  0  0  0  0  0  0
    6.7950   -4.3160   -0.2050 H   0  0  0  0  0  0  0  0  0  0  0  0
    3.7469   -5.1252   -2.6118 H   0  0  0  0  0  0  0  0  0  0  0  0
    3.7082   -4.1977   -1.0439 H   0  0  0  0  0  0  0  0  0  0  0  0
    5.0114   -3.2180   -3.6508 H   0  0  0  0  0  0  0  0  0  0  0  0
    3.3959   -2.7292   -3.0993 H   0  0  0  0  0  0  0  0  0  0  0  0
   -1.2230    1.2222    0.5275 H   0  0  0  0  0  0  0  0  0  0  0  0
   -1.0336   -1.6022   -0.4603 H   0  0  0  0  0  0  0  0  0  0  0  0
   -2.3369   -0.4512    2.0616 H   0  0  0  0  0  0  0  0  0  0  0  0
   -2.3853   -2.1942    1.6354 H   0  0  0  0  0  0  0  0  0  0  0  0
    0.0927   -0.5041    2.1866 H   0  0  0  0  0  0  0  0  0  0  0  0
   -0.0502   -2.9713    0.7198 H   0  0  0  0  0  0  0  0  0  0  0  0
    1.4040   -2.1560    1.4986 H   0  0  0  0  0  0  0  0  0  0  0  0
    1.1374   -3.4700    3.4898 H   0  0  0  0  0  0  0  0  0  0  0  0
    0.9519   -4.5666    2.1153 H   0  0  0  0  0  0  0  0  0  0  0  0
   -0.8889   -5.0269    3.6755 H   0  0  0  0  0  0  0  0  0  0  0  0
   -1.4932   -4.3520    2.1281 H   0  0  0  0  0  0  0  0  0  0  0  0
   -1.6274   -3.3129    4.9370 H   0  0  0  0  0  0  0  0  0  0  0  0
   -2.5763   -2.8404    3.5211 H   0  0  0  0  0  0  0  0  0  0  0  0
   -1.2892   -0.9182    4.1923 H   0  0  0  0  0  0  0  0  0  0  0  0
    0.2352   -1.8218    4.2742 H   0  0  0  0  0  0  0  0  0  0  0  0
   -3.2770    0.4260    0.0996 H   0  0  0  0  0  0  0  0  0  0  0  0
   -2.3341    0.8682   -1.8657 H   0  0  0  0  0  0  0  0  0  0  0  0
   -5.3076    0.7055    0.3370 H   0  0  0  0  0  0  0  0  0  0  0  0
   -6.6874    1.2445   -2.0965 H   0  0  0  0  0  0  0  0  0  0  0  0
   -7.1342    1.8961   -0.4981 H   0  0  0  0  0  0  0  0  0  0  0  0
   -8.9644    0.5741   -1.4111 H   0  0  0  0  0  0  0  0  0  0  0  0
   -7.8733   -0.8998   -1.5471 H   0  0  0  0  0  0  0  0  0  0  0  0
   -8.0663    1.5246    1.3928 H   0  0  0  0  0  0  0  0  0  0  0  0
   -9.0914    0.3156    2.1867 H   0  0  0  0  0  0  0  0  0  0  0  0
  -10.6064    1.8503    1.3462 H   0  0  0  0  0  0  0  0  0  0  0  0
   -9.7541    2.0201   -0.2086 H   0  0  0  0  0  0  0  0  0  0  0  0
  -11.3246   -1.6539    0.0157 H   0  0  0  0  0  0  0  0  0  0  0  0
  -11.0892   -0.9321    1.6174 H   0  0  0  0  0  0  0  0  0  0  0  0
   -9.1152   -2.1801   -0.2875 H   0  0  0  0  0  0  0  0  0  0  0  0
   -9.0578   -1.9345    1.5024 H   0  0  0  0  0  0  0  0  0  0  0  0
    0.8377    5.1262    0.3499 H   0  0  0  0  0  0  0  0  0  0  0  0
  1  2  1  0
  2  3  2  0
  3  4  1  0
  4  5  1  0
  5  6  1  0
  6  7  1  0
  7  8  1  0
  8  9  2  0
  8 10  1  0
 10 11  1  0
 11 12  1  0
 12 13  2  0
 13 14  1  0
 14 15  2  0
 15 16  1  0
 16 17  2  0
 10 18  1  0
 18 19  1  0
 19 20  2  0
 19 21  2  0
 19 22  1  0
 22 23  1  0
 23 24  1  0
 24 25  1  0
 25 26  1  0
 26 27  1  0
  6 28  1  0
 28 29  2  0
 28 30  1  0
 30 31  1  0
 31 32  1  0
 32 33  1  0
 33 34  1  0
 34 35  1  0
 35 36  1  0
 36 37  1  0
 37 38  1  0
 31 39  1  0
 39 40  1  0
 39 41  1  0
 41 42  1  0
 41 43  1  0
 41 44  1  0
 44 45  2  0
 44 46  1  0
 46 47  1  0
 47 48  1  0
 48 49  1  0
 49 50  1  0
 50 51  1  0
 51 52  1  0
 52 53  1  0
 53 54  1  0
  4 55  2  0
 55 56  1  0
 56  2  1  0
 17 12  1  0
 27 22  1  0
 38 33  1  0
 54 49  1  0
  1 57  1  0
  1 58  1  0
  5 59  1  0
  5 60  1  0
  6 61  1  1
  7 62  1  0
 10 63  1  1
 11 64  1  0
 11 65  1  0
 13 66  1  0
 14 67  1  0
 15 68  1  0
 16 69  1  0
 17 70  1  0
 18 71  1  0
 23 72  1  0
 23 73  1  0
 24 74  1  0
 24 75  1  0
 26 76  1  0
 26 77  1  0
 27 78  1  0
 27 79  1  0
 30 80  1  0
 31 81  1  6
 32 82  1  0
 32 83  1  0
 33 84  1  0
 34 85  1  0
 34 86  1  0
 35 87  1  0
 35 88  1  0
 36 89  1  0
 36 90  1  0
 37 91  1  0
 37 92  1  0
 38 93  1  0
 38 94  1  0
 39 95  1  1
 40 96  1  0
 46 97  1  0
 47 98  1  0
 47 99  1  0
 48100  1  0
 48101  1  0
 50102  1  0
 50103  1  0
 51104  1  0
 51105  1  0
 53106  1  0
 53107  1  0
 54108  1  0
 54109  1  0
 55110  1  0
M  END
$$$$
