@<TRIPOS>MOLECULE
*****
 59 61 0 0 0
SMALL
GASTEIGER

@<TRIPOS>ATOM
      1 C          -5.7831   -3.0840    0.2927 C.3     1  UNL1       -0.0638
      2 C          -5.4254   -2.1206   -0.8122 C.3     1  UNL1       -0.0350
      3 C          -4.2196   -1.2938   -0.4924 C.3     1  UNL1        0.0817
      4 S          -2.7980   -2.3220   -0.2195 S.O2    1  UNL1        0.0318
      5 O          -3.0946   -3.1745    0.9808 O.2     1  UNL1       -0.1580
      6 O          -2.5409   -3.2419   -1.3764 O.2     1  UNL1       -0.1580
      7 N          -1.4083   -1.3714    0.1475 N.3     1  UNL1       -0.1811
      8 C          -1.0433   -0.4881   -0.9010 C.3     1  UNL1        0.0210
      9 C          -0.5056    0.8376   -0.5389 C.3     1  UNL1       -0.0260
     10 C           0.1434    0.9793    0.8075 C.3     1  UNL1        0.0309
     11 C           1.6402    0.8374    0.6163 C.3     1  UNL1        0.0230
     12 N           2.0642   -0.4040    0.0762 N.am    1  UNL1       -0.3104
     13 C           3.4426   -0.6288   -0.1506 C.2     1  UNL1        0.2455
     14 O           4.2600    0.3099    0.1446 O.2     1  UNL1       -0.2702
     15 C           3.9966   -1.8338   -0.6888 C.ar    1  UNL1        0.0550
     16 C           4.6767   -1.8446   -1.8852 C.ar    1  UNL1       -0.0468
     17 C           5.2116   -3.0220   -2.4015 C.ar    1  UNL1       -0.0426
     18 C           5.0594   -4.1997   -1.7048 C.ar    1  UNL1        0.0424
     19 CL          5.7444   -5.6629   -2.3824 Cl      1  UNL1       -0.0835
     20 C           4.3802   -4.1842   -0.5117 C.ar    1  UNL1       -0.0243
     21 C           3.8468   -3.0151    0.0051 C.ar    1  UNL1        0.0544
     22 CL          3.0017   -3.1193    1.5348 Cl      1  UNL1       -0.0827
     23 C          -0.0746    2.4178    1.2011 C.ar    1  UNL1        0.0528
     24 C          -1.2020    2.7499    1.9014 C.ar    1  UNL1       -0.0395
     25 C          -1.3656    4.0765    2.2357 C.ar    1  UNL1       -0.0550
     26 C          -0.4270    5.0240    1.8755 C.ar    1  UNL1       -0.0000
     27 C           0.7154    4.6579    1.1607 C.ar    1  UNL1        0.2146
     28 O           1.6022    5.5113    0.8122 O.3     1  UNL1       -0.4796
     29 C           2.5496    6.3060    0.4191 C.3     1  UNL1        0.0804
     30 N           0.8306    3.3346    0.8545 N.ar    1  UNL1       -0.2173
     31 C          -0.3817    0.0464    1.8517 C.3     1  UNL1       -0.0260
     32 C          -1.5771   -0.7401    1.4282 C.3     1  UNL1        0.0210
     33 H          -6.8875   -3.1798    0.3093 H       1  UNL1        0.0230
     34 H          -5.2841   -4.0667    0.1855 H       1  UNL1        0.0230
     35 H          -5.4832   -2.6040    1.2520 H       1  UNL1        0.0230
     36 H          -5.2990   -2.6745   -1.7576 H       1  UNL1        0.0279
     37 H          -6.2836   -1.4247   -0.9663 H       1  UNL1        0.0279
     38 H          -4.3984   -0.7399    0.4557 H       1  UNL1        0.0515
     39 H          -4.0691   -0.5785   -1.3216 H       1  UNL1        0.0515
     40 H          -0.4120   -1.0241   -1.6666 H       1  UNL1        0.0444
     41 H          -2.0012   -0.3076   -1.4930 H       1  UNL1        0.0444
     42 H          -1.2912    1.6291   -0.6916 H       1  UNL1        0.0288
     43 H           0.2527    1.1016   -1.3441 H       1  UNL1        0.0288
     44 H           2.0461    1.6520   -0.0138 H       1  UNL1        0.0471
     45 H           2.1503    0.9415    1.6185 H       1  UNL1        0.0471
     46 H           1.3924   -1.1517   -0.1519 H       1  UNL1        0.1490
     47 H           4.8300   -0.9552   -2.4794 H       1  UNL1        0.0626
     48 H           5.7499   -3.0024   -3.3591 H       1  UNL1        0.0632
     49 H           4.2591   -5.0923    0.0323 H       1  UNL1        0.0647
     50 H          -1.8918    1.9735    2.1510 H       1  UNL1        0.0636
     51 H          -2.2589    4.3429    2.7915 H       1  UNL1        0.0620
     52 H          -0.6039    6.0379    2.1605 H       1  UNL1        0.0671
     53 H           2.3432    6.7306   -0.6168 H       1  UNL1        0.0660
     54 H           2.6980    7.1999    1.0960 H       1  UNL1        0.0660
     55 H           3.5592    5.8231    0.2711 H       1  UNL1        0.0660
     56 H           0.4060   -0.7167    2.1352 H       1  UNL1        0.0288
     57 H          -0.6194    0.5411    2.8253 H       1  UNL1        0.0288
     58 H          -1.6931   -1.5782    2.1768 H       1  UNL1        0.0444
     59 H          -2.5292   -0.2144    1.4228 H       1  UNL1        0.0444
@<TRIPOS>BOND
     1     1     2    1
     2     2     3    1
     3     3     4    1
     4     4     5    2
     5     4     6    2
     6     4     7    1
     7     7     8    1
     8     8     9    1
     9     9    10    1
    10    10    11    1
    11    11    12    1
    12    12    13   am
    13    13    14    2
    14    13    15    1
    15    15    16   ar
    16    16    17   ar
    17    17    18   ar
    18    18    19    1
    19    18    20   ar
    20    20    21   ar
    21    21    22    1
    22    10    23    1
    23    23    24   ar
    24    24    25   ar
    25    25    26   ar
    26    26    27   ar
    27    27    28    1
    28    28    29    1
    29    27    30   ar
    30    10    31    1
    31    31    32    1
    32    32     7    1
    33    21    15   ar
    34    30    23   ar
    35     1    33    1
    36     1    34    1
    37     1    35    1
    38     2    36    1
    39     2    37    1
    40     3    38    1
    41     3    39    1
    42     8    40    1
    43     8    41    1
    44     9    42    1
    45     9    43    1
    46    11    44    1
    47    11    45    1
    48    12    46    1
    49    16    47    1
    50    17    48    1
    51    20    49    1
    52    24    50    1
    53    25    51    1
    54    26    52    1
    55    29    53    1
    56    29    54    1
    57    29    55    1
    58    31    56    1
    59    31    57    1
    60    32    58    1
    61    32    59    1
