@<TRIPOS>MOLECULE
*****
 41 43 0 0 0
SMALL
GASTEIGER

@<TRIPOS>ATOM
      1 C           2.1756   -2.2126   -1.8938 C.3     1  UNL1       -0.0471
      2 C           2.2167   -0.6871   -1.9532 C.3     1  UNL1        0.0205
      3 N           2.3780   -0.1156   -0.6403 N.ar    1  UNL1       -0.3459
      4 C           3.6226    0.1237   -0.1343 C.ar    1  UNL1        0.0228
      5 C           3.7925    0.6701    1.1203 C.ar    1  UNL1        0.1220
      6 C           5.1400    0.9105    1.6250 C.2     1  UNL1        0.3420
      7 O           6.2612    0.6052    0.8785 O.3     1  UNL1       -0.4770
      8 O           5.3402    1.4025    2.7533 O.2     1  UNL1       -0.2449
      9 C           2.7179    1.0010    1.9243 C.ar    1  UNL1        0.2034
     10 O           2.8978    1.4902    3.0466 O.2     1  UNL1       -0.2863
     11 C           1.4755    0.7521    1.3960 C.ar    1  UNL1        0.0488
     12 C           0.3832    1.0727    2.1766 C.ar    1  UNL1       -0.0118
     13 C          -0.8962    0.8502    1.7107 C.ar    1  UNL1        0.1451
     14 F          -1.9522    1.1734    2.4959 F       1  UNL1       -0.2035
     15 C          -1.0782    0.3042    0.4573 C.ar    1  UNL1        0.0674
     16 C           0.0355   -0.0059   -0.2999 C.ar    1  UNL1       -0.0136
     17 C           1.3271    0.2039    0.1363 C.ar    1  UNL1        0.0547
     18 N          -2.3776    0.0562   -0.0670 N.pl3   1  UNL1       -0.3252
     19 C          -3.2251   -0.8419    0.6608 C.3     1  UNL1        0.0248
     20 C          -4.5440   -1.1018    0.0167 C.3     1  UNL1        0.0117
     21 N          -5.2112    0.0774   -0.4648 N.3     1  UNL1       -0.3130
     22 C          -4.3359    1.1668   -0.8087 C.3     1  UNL1        0.0117
     23 C          -3.0287    0.5757   -1.2650 C.3     1  UNL1        0.0248
     24 H           1.3023   -2.5670   -1.3379 H       1  UNL1        0.0247
     25 H           2.1297   -2.5455   -2.9658 H       1  UNL1        0.0247
     26 H           3.1542   -2.5007   -1.4419 H       1  UNL1        0.0247
     27 H           3.1708   -0.4660   -2.5171 H       1  UNL1        0.0489
     28 H           1.4281   -0.2482   -2.5630 H       1  UNL1        0.0489
     29 H           4.4906   -0.1205   -0.7304 H       1  UNL1        0.0818
     30 H           7.1047    1.1762    0.8794 H       1  UNL1        0.2954
     31 H           0.5043    1.5008    3.1602 H       1  UNL1        0.0654
     32 H          -0.1362   -0.4272   -1.2659 H       1  UNL1        0.0658
     33 H          -3.3031   -0.5126    1.7179 H       1  UNL1        0.0476
     34 H          -2.6983   -1.8261    0.7163 H       1  UNL1        0.0476
     35 H          -4.4634   -1.8196   -0.8109 H       1  UNL1        0.0439
     36 H          -5.2095   -1.5650    0.7903 H       1  UNL1        0.0439
     37 H          -5.8688   -0.0965   -1.2311 H       1  UNL1        0.1220
     38 H          -4.8271    1.7739   -1.5973 H       1  UNL1        0.0439
     39 H          -4.2262    1.8237    0.0728 H       1  UNL1        0.0439
     40 H          -3.2757   -0.2956   -1.9043 H       1  UNL1        0.0476
     41 H          -2.3908    1.2449   -1.8424 H       1  UNL1        0.0476
@<TRIPOS>BOND
     1     1     2    1
     2     2     3    1
     3     3     4   ar
     4     4     5   ar
     5     5     6    1
     6     6     7    1
     7     6     8    2
     8     5     9   ar
     9     9    10    2
    10     9    11   ar
    11    11    12   ar
    12    12    13   ar
    13    13    14    1
    14    13    15   ar
    15    15    16   ar
    16    16    17   ar
    17    15    18    1
    18    18    19    1
    19    19    20    1
    20    20    21    1
    21    21    22    1
    22    22    23    1
    23    17     3   ar
    24    23    18    1
    25    17    11   ar
    26     1    24    1
    27     1    25    1
    28     1    26    1
    29     2    27    1
    30     2    28    1
    31     4    29    1
    32     7    30    1
    33    12    31    1
    34    16    32    1
    35    19    33    1
    36    19    34    1
    37    20    35    1
    38    20    36    1
    39    21    37    1
    40    22    38    1
    41    22    39    1
    42    23    40    1
    43    23    41    1
