
     RDKit          3D

 44 47  0  0  0  0  0  0  0  0999 V2000
   -3.2309   -2.6649   -1.9298 C   0  0  0  0  0  0  0  0  0  0  0  0
   -2.4785   -1.8225   -1.0018 N   0  0  0  0  0  0  0  0  0  0  0  0
   -2.5491   -0.3893   -0.9082 C   0  0  0  0  0  0  0  0  0  0  0  0
   -3.2971    0.3151   -1.6509 O   0  0  0  0  0  0  0  0  0  0  0  0
   -1.6171   -0.0040    0.1664 C   0  0  0  0  0  0  0  0  0  0  0  0
   -2.2517    0.7174    1.2909 C   0  0  0  0  0  0  0  0  0  0  0  0
   -3.4467    1.3735    1.1821 C   0  0  0  0  0  0  0  0  0  0  0  0
   -3.9846    2.0400    2.2960 C   0  0  0  0  0  0  0  0  0  0  0  0
   -3.3419    2.0439    3.4733 N   0  0  0  0  0  0  0  0  0  0  0  0
   -2.1725    1.4096    3.6031 C   0  0  0  0  0  0  0  0  0  0  0  0
   -1.6200    0.7418    2.5116 C   0  0  0  0  0  0  0  0  0  0  0  0
   -0.4702    0.7959   -0.3677 C   0  0  0  0  0  0  0  0  0  0  0  0
   -0.6598    2.0051   -1.0031 C   0  0  0  0  0  0  0  0  0  0  0  0
    0.4273    2.7396   -1.4942 C   0  0  0  0  0  0  0  0  0  0  0  0
    1.7209    2.2281   -1.3314 C   0  0  0  0  0  0  0  0  0  0  0  0
    1.9120    1.0287   -0.7015 C   0  0  0  0  0  0  0  0  0  0  0  0
    3.2380    0.4614   -0.5116 C   0  0  0  0  0  0  0  0  0  0  0  0
    4.2977    1.2273   -0.0757 C   0  0  0  0  0  0  0  0  0  0  0  0
    5.5275    0.6557    0.0892 C   0  0  0  0  0  0  0  0  0  0  0  0
    5.7928   -0.6729   -0.1571 C   0  0  0  0  0  0  0  0  0  0  0  0
    4.6986   -1.4140   -0.5955 C   0  0  0  0  0  0  0  0  0  0  0  0
    4.8810   -2.7408   -0.8605 F   0  0  0  0  0  0  0  0  0  0  0  0
    3.4510   -0.8724   -0.7717 C   0  0  0  0  0  0  0  0  0  0  0  0
    2.4170   -1.6763   -1.2101 F   0  0  0  0  0  0  0  0  0  0  0  0
    0.8135    0.3486   -0.2388 C   0  0  0  0  0  0  0  0  0  0  0  0
   -1.0715   -1.2749    0.6115 N   0  0  0  0  0  0  0  0  0  0  0  0
   -1.5457   -2.2679   -0.0298 C   0  0  0  0  0  0  0  0  0  0  0  0
   -1.2192   -3.6582    0.1618 N   0  0  0  0  0  0  0  0  0  0  0  0
   -2.4743   -3.1215   -2.6068 H   0  0  0  0  0  0  0  0  0  0  0  0
   -3.9476   -2.0252   -2.4871 H   0  0  0  0  0  0  0  0  0  0  0  0
   -3.8311   -3.4328   -1.4019 H   0  0  0  0  0  0  0  0  0  0  0  0
   -3.9810    1.3880    0.2605 H   0  0  0  0  0  0  0  0  0  0  0  0
   -4.9317    2.5358    2.1357 H   0  0  0  0  0  0  0  0  0  0  0  0
   -1.6525    1.4077    4.5363 H   0  0  0  0  0  0  0  0  0  0  0  0
   -0.6749    0.2342    2.6349 H   0  0  0  0  0  0  0  0  0  0  0  0
   -1.6624    2.3825   -1.1192 H   0  0  0  0  0  0  0  0  0  0  0  0
    0.2859    3.6723   -1.9843 H   0  0  0  0  0  0  0  0  0  0  0  0
    2.5526    2.8034   -1.7143 H   0  0  0  0  0  0  0  0  0  0  0  0
    4.1299    2.2981    0.1337 H   0  0  0  0  0  0  0  0  0  0  0  0
    6.3729    1.2629    0.4354 H   0  0  0  0  0  0  0  0  0  0  0  0
    6.7676   -1.1348   -0.0283 H   0  0  0  0  0  0  0  0  0  0  0  0
    0.9810   -0.5970    0.2568 H   0  0  0  0  0  0  0  0  0  0  0  0
   -0.6076   -4.1365   -0.5608 H   0  0  0  0  0  0  0  0  0  0  0  0
   -1.5479   -4.2107    0.9628 H   0  0  0  0  0  0  0  0  0  0  0  0
  1  2  1  0
  2  3  1  0
  3  4  2  0
  3  5  1  0
  5  6  1  0
  6  7  2  0
  7  8  1  0
  8  9  2  0
  9 10  1  0
 10 11  2  0
  5 12  1  0
 12 13  2  0
 13 14  1  0
 14 15  2  0
 15 16  1  0
 16 17  1  0
 17 18  2  0
 18 19  1  0
 19 20  2  0
 20 21  1  0
 21 22  1  0
 21 23  2  0
 23 24  1  0
 16 25  2  0
  5 26  1  0
 26 27  2  0
 27 28  1  0
 27  2  1  0
 11  6  1  0
 25 12  1  0
 23 17  1  0
  1 29  1  0
  1 30  1  0
  1 31  1  0
  7 32  1  0
  8 33  1  0
 10 34  1  0
 11 35  1  0
 13 36  1  0
 14 37  1  0
 15 38  1  0
 18 39  1  0
 19 40  1  0
 20 41  1  0
 25 42  1  0
 28 43  1  0
 28 44  1  0
M  END
$$$$
