@<TRIPOS>MOLECULE
*****
 44 47 0 0 0
SMALL
GASTEIGER

@<TRIPOS>ATOM
      1 C          -3.2309   -2.6649   -1.9298 C.3     1  UNL1        0.0573
      2 N          -2.4785   -1.8225   -1.0018 N.am    1  UNL1       -0.1614
      3 C          -2.5491   -0.3893   -0.9082 C.2     1  UNL1        0.3303
      4 O          -3.2971    0.3151   -1.6509 O.2     1  UNL1       -0.2520
      5 C          -1.6171   -0.0040    0.1664 C.3     1  UNL1        0.2647
      6 C          -2.2517    0.7174    1.2909 C.ar    1  UNL1        0.0135
      7 C          -3.4467    1.3735    1.1821 C.ar    1  UNL1       -0.0359
      8 C          -3.9846    2.0400    2.2960 C.ar    1  UNL1        0.0280
      9 N          -3.3419    2.0439    3.4733 N.ar    1  UNL1       -0.2632
     10 C          -2.1725    1.4096    3.6031 C.ar    1  UNL1        0.0280
     11 C          -1.6200    0.7418    2.5116 C.ar    1  UNL1       -0.0359
     12 C          -0.4702    0.7959   -0.3677 C.ar    1  UNL1        0.0112
     13 C          -0.6598    2.0051   -1.0031 C.ar    1  UNL1       -0.0540
     14 C           0.4273    2.7396   -1.4942 C.ar    1  UNL1       -0.0608
     15 C           1.7209    2.2281   -1.3314 C.ar    1  UNL1       -0.0539
     16 C           1.9120    1.0287   -0.7015 C.ar    1  UNL1       -0.0147
     17 C           3.2380    0.4614   -0.5116 C.ar    1  UNL1        0.0202
     18 C           4.2977    1.2273   -0.0757 C.ar    1  UNL1       -0.0511
     19 C           5.5275    0.6557    0.0892 C.ar    1  UNL1       -0.0583
     20 C           5.7928   -0.6729   -0.1571 C.ar    1  UNL1       -0.0236
     21 C           4.6986   -1.4140   -0.5955 C.ar    1  UNL1        0.1590
     22 F           4.8810   -2.7408   -0.8605 F       1  UNL1       -0.2025
     23 C           3.4510   -0.8724   -0.7717 C.ar    1  UNL1        0.1660
     24 F           2.4170   -1.6763   -1.2101 F       1  UNL1       -0.2018
     25 C           0.8135    0.3486   -0.2388 C.ar    1  UNL1       -0.0462
     26 N          -1.0715   -1.2749    0.6115 N.2     1  UNL1       -0.0891
     27 C          -1.5457   -2.2679   -0.0298 C.2     1  UNL1        0.3731
     28 N          -1.2192   -3.6582    0.1618 N.pl3   1  UNL1       -0.2512
     29 H          -2.4743   -3.1215   -2.6068 H       1  UNL1        0.0602
     30 H          -3.9476   -2.0252   -2.4871 H       1  UNL1        0.0602
     31 H          -3.8311   -3.4328   -1.4019 H       1  UNL1        0.0602
     32 H          -3.9810    1.3880    0.2605 H       1  UNL1        0.0637
     33 H          -4.9317    2.5358    2.1357 H       1  UNL1        0.0829
     34 H          -1.6525    1.4077    4.5363 H       1  UNL1        0.0829
     35 H          -0.6749    0.2342    2.6349 H       1  UNL1        0.0637
     36 H          -1.6624    2.3825   -1.1192 H       1  UNL1        0.0622
     37 H           0.2859    3.6723   -1.9843 H       1  UNL1        0.0618
     38 H           2.5526    2.8034   -1.7143 H       1  UNL1        0.0624
     39 H           4.1299    2.2981    0.1337 H       1  UNL1        0.0625
     40 H           6.3729    1.2629    0.4354 H       1  UNL1        0.0619
     41 H           6.7676   -1.1348   -0.0283 H       1  UNL1        0.0647
     42 H           0.9810   -0.5970    0.2568 H       1  UNL1        0.0628
     43 H          -0.6076   -4.1365   -0.5608 H       1  UNL1        0.2412
     44 H          -1.5479   -4.2107    0.9628 H       1  UNL1        0.2412
@<TRIPOS>BOND
     1     1     2    1
     2     2     3   am
     3     3     4    2
     4     3     5    1
     5     5     6    1
     6     6     7   ar
     7     7     8   ar
     8     8     9   ar
     9     9    10   ar
    10    10    11   ar
    11     5    12    1
    12    12    13   ar
    13    13    14   ar
    14    14    15   ar
    15    15    16   ar
    16    16    17    1
    17    17    18   ar
    18    18    19   ar
    19    19    20   ar
    20    20    21   ar
    21    21    22    1
    22    21    23   ar
    23    23    24    1
    24    16    25   ar
    25     5    26    1
    26    26    27    2
    27    27    28    1
    28    27     2    1
    29    11     6   ar
    30    25    12   ar
    31    23    17   ar
    32     1    29    1
    33     1    30    1
    34     1    31    1
    35     7    32    1
    36     8    33    1
    37    10    34    1
    38    11    35    1
    39    13    36    1
    40    14    37    1
    41    15    38    1
    42    18    39    1
    43    19    40    1
    44    20    41    1
    45    25    42    1
    46    28    43    1
    47    28    44    1
