@<TRIPOS>MOLECULE
*****
 51 55 0 0 0
SMALL
GASTEIGER

@<TRIPOS>ATOM
      1 C          -0.1554   -2.4907    2.0858 C.3     1  UNL1       -0.0364
      2 C          -1.2934   -1.7049    1.5535 C.ar    1  UNL1       -0.0074
      3 C          -2.6172   -2.1515    1.6974 C.ar    1  UNL1        0.1276
      4 F          -2.8704   -3.3186    2.3314 F       1  UNL1       -0.2052
      5 C          -3.6221   -1.3683    1.1773 C.ar    1  UNL1       -0.0140
      6 C          -3.3914   -0.1787    0.5288 C.ar    1  UNL1        0.0400
      7 C          -4.4555    0.6550   -0.0244 C.2     1  UNL1        0.2444
      8 O          -4.1102    1.7267   -0.5976 O.2     1  UNL1       -0.2702
      9 N          -5.8248    0.3232    0.0514 N.am    1  UNL1       -0.3085
     10 C          -6.8854    1.1474   -0.4963 C.3     1  UNL1        0.0235
     11 C          -8.2523    1.0704    0.0854 C.3     1  UNL1       -0.0328
     12 C          -7.9686    0.3816   -1.2150 C.3     1  UNL1       -0.0328
     13 C          -2.0505    0.2248    0.4104 C.ar    1  UNL1       -0.0413
     14 C          -1.0199   -0.5240    0.9133 C.ar    1  UNL1       -0.0062
     15 C           0.3537   -0.0911    0.7812 C.ar    1  UNL1        0.0519
     16 C           1.0112    0.6873    1.6844 C.ar    1  UNL1       -0.0027
     17 C           2.3277    1.0220    1.4221 C.ar    1  UNL1        0.1772
     18 N           3.2071    1.7521    2.1040 N.ar    1  UNL1       -0.1276
     19 N           4.3481    1.7873    1.4455 N.ar    1  UNL1       -0.1269
     20 C           4.2288    1.0744    0.3143 C.ar    1  UNL1        0.1877
     21 C           5.3200    0.9190   -0.6355 C.ar    1  UNL1        0.0743
     22 C           5.5085    1.8051   -1.6779 C.ar    1  UNL1        0.1355
     23 F           4.6344    2.8589   -1.8300 F       1  UNL1       -0.2047
     24 C           6.5580    1.6366   -2.5544 C.ar    1  UNL1       -0.0257
     25 C           7.4497    0.5889   -2.4256 C.ar    1  UNL1       -0.0576
     26 C           7.2535   -0.2903   -1.3821 C.ar    1  UNL1       -0.0425
     27 C           6.2073   -0.1296   -0.5013 C.ar    1  UNL1        0.0545
     28 CL          6.0155   -1.3001    0.8191 Cl      1  UNL1       -0.0827
     29 N           2.9783    0.6020    0.3020 N.ar    1  UNL1       -0.2099
     30 N           2.3466   -0.1519   -0.5758 N.ar    1  UNL1       -0.2447
     31 C           3.0182   -0.6230   -1.7949 C.3     1  UNL1        0.0326
     32 C           1.0846   -0.4821   -0.3404 C.ar    1  UNL1        0.2737
     33 O           0.4852   -1.2092   -1.1932 O.2     1  UNL1       -0.2656
     34 H           0.7659   -2.3215    1.5256 H       1  UNL1        0.0279
     35 H          -0.4363   -3.5832    2.1150 H       1  UNL1        0.0279
     36 H          -0.0085   -2.2200    3.1727 H       1  UNL1        0.0279
     37 H          -4.6381   -1.7048    1.2842 H       1  UNL1        0.0654
     38 H          -6.0992   -0.5591    0.5240 H       1  UNL1        0.1493
     39 H          -6.6071    2.0972   -1.0065 H       1  UNL1        0.0498
     40 H          -8.4250    0.4826    1.0054 H       1  UNL1        0.0284
     41 H          -8.8771    1.9768    0.0014 H       1  UNL1        0.0284
     42 H          -7.9881   -0.7242   -1.1582 H       1  UNL1        0.0284
     43 H          -8.3939    0.7890   -2.1553 H       1  UNL1        0.0284
     44 H          -1.8543    1.1477   -0.0913 H       1  UNL1        0.0631
     45 H           0.4889    1.0154    2.5682 H       1  UNL1        0.0663
     46 H           6.6800    2.3520   -3.3661 H       1  UNL1        0.0646
     47 H           8.2570    0.4910   -3.1305 H       1  UNL1        0.0619
     48 H           7.9506   -1.1096   -1.2812 H       1  UNL1        0.0632
     49 H           3.2858    0.1875   -2.4741 H       1  UNL1        0.0473
     50 H           2.2684   -1.2436   -2.3709 H       1  UNL1        0.0473
     51 H           3.8111   -1.3218   -1.5199 H       1  UNL1        0.0473
@<TRIPOS>BOND
     1     1     2    1
     2     2     3   ar
     3     3     4    1
     4     3     5   ar
     5     5     6   ar
     6     6     7    1
     7     7     8    2
     8     7     9   am
     9     9    10    1
    10    10    11    1
    11    11    12    1
    12     6    13   ar
    13    13    14   ar
    14    14    15    1
    15    15    16   ar
    16    16    17   ar
    17    17    18   ar
    18    18    19   ar
    19    19    20   ar
    20    20    21    1
    21    21    22   ar
    22    22    23    1
    23    22    24   ar
    24    24    25   ar
    25    25    26   ar
    26    26    27   ar
    27    27    28    1
    28    20    29   ar
    29    29    30   ar
    30    30    31    1
    31    30    32   ar
    32    32    33    2
    33    14     2   ar
    34    32    15   ar
    35    12    10    1
    36    29    17   ar
    37    27    21   ar
    38     1    34    1
    39     1    35    1
    40     1    36    1
    41     5    37    1
    42     9    38    1
    43    10    39    1
    44    11    40    1
    45    11    41    1
    46    12    42    1
    47    12    43    1
    48    13    44    1
    49    16    45    1
    50    24    46    1
    51    25    47    1
    52    26    48    1
    53    31    49    1
    54    31    50    1
    55    31    51    1
