@<TRIPOS>MOLECULE
*****
 59 63 0 0 0
SMALL
GASTEIGER

@<TRIPOS>ATOM
      1 O          -2.7806   -1.4940    1.9642 O.2     1  UNL1       -0.2699
      2 C          -2.5329   -1.4663    0.7299 C.2     1  UNL1        0.2483
      3 N          -3.5186   -1.6958   -0.2507 N.am    1  UNL1       -0.2785
      4 C          -4.8979   -1.9854   -0.0568 C.ar    1  UNL1        0.0772
      5 C          -5.8706   -1.0032    0.0231 C.ar    1  UNL1        0.1605
      6 O          -5.4831    0.2427   -0.0873 O.2     1  UNL1       -0.4495
      7 C          -6.3774    1.2257   -0.0177 C.ar    1  UNL1        0.1796
      8 C          -7.7111    0.9025    0.1719 C.ar    1  UNL1        0.0319
      9 C          -8.1211   -0.4241    0.2891 C.ar    1  UNL1        0.1932
     10 O          -9.3274   -0.7131    0.4605 O.2     1  UNL1       -0.2870
     11 C          -7.1640   -1.4270    0.2123 C.ar    1  UNL1        0.0658
     12 C          -7.4984   -2.7587    0.3198 C.ar    1  UNL1       -0.0473
     13 C          -6.4965   -3.7278    0.2355 C.ar    1  UNL1       -0.0591
     14 C          -5.2013   -3.3415    0.0479 C.ar    1  UNL1       -0.0368
     15 C          -6.0805    2.6458   -0.1246 C.ar    1  UNL1        0.2392
     16 N          -6.4710    3.1917   -1.3067 N.ar    1  UNL1       -0.1299
     17 N          -6.1686    4.4803   -1.3289 N.ar    1  UNL1       -0.1760
     18 N          -5.5837    4.7628   -0.1613 N.ar    1  UNL1       -0.0484
     19 N          -5.5337    3.6635    0.5543 N.ar    1  UNL1       -0.1048
     20 C          -1.1499   -1.1794    0.3619 C.ar    1  UNL1        0.0373
     21 C          -0.2217   -0.9614    1.3724 C.ar    1  UNL1       -0.0462
     22 C           1.1190   -0.6818    1.0922 C.ar    1  UNL1       -0.0192
     23 C           1.5259   -0.6219   -0.2276 C.ar    1  UNL1        0.1205
     24 O           2.8256   -0.3521   -0.5639 O.3     1  UNL1       -0.4920
     25 C           3.3673   -0.2627   -1.8431 C.3     1  UNL1        0.0896
     26 C           4.8550    0.0564   -1.7205 C.3     1  UNL1       -0.0183
     27 C           5.5873   -1.0130   -0.9538 C.3     1  UNL1       -0.0460
     28 C           7.0631   -0.7028   -0.8285 C.3     1  UNL1       -0.0276
     29 C           7.2804    0.5811   -0.1186 C.ar    1  UNL1       -0.0474
     30 C           7.4126    0.5739    1.2527 C.ar    1  UNL1       -0.0586
     31 C           7.6193    1.7173    2.0204 C.ar    1  UNL1       -0.0615
     32 C           7.6923    2.9226    1.3366 C.ar    1  UNL1       -0.0617
     33 C           7.5624    2.9627   -0.0502 C.ar    1  UNL1       -0.0615
     34 C           7.3586    1.7854   -0.7477 C.ar    1  UNL1       -0.0586
     35 C           0.6264   -0.8340   -1.2510 C.ar    1  UNL1       -0.0192
     36 C          -0.6830   -1.1061   -0.9296 C.ar    1  UNL1       -0.0462
     37 H          -3.3166   -1.6734   -1.2685 H       1  UNL1        0.1552
     38 H          -8.4906    1.6628    0.2372 H       1  UNL1        0.0694
     39 H          -8.5525   -2.9803    0.4681 H       1  UNL1        0.0626
     40 H          -6.7820   -4.7570    0.3222 H       1  UNL1        0.0618
     41 H          -4.4214   -4.1108   -0.0170 H       1  UNL1        0.0637
     42 H          -6.3266    5.1875   -2.0737 H       1  UNL1        0.2143
     43 H          -0.4604   -0.9907    2.4366 H       1  UNL1        0.0626
     44 H           1.8465   -0.5110    1.8827 H       1  UNL1        0.0654
     45 H           3.1820   -1.1069   -2.5090 H       1  UNL1        0.0696
     46 H           2.9221    0.6379   -2.3502 H       1  UNL1        0.0696
     47 H           5.0291    1.0176   -1.2339 H       1  UNL1        0.0298
     48 H           5.2238    0.1465   -2.7676 H       1  UNL1        0.0298
     49 H           5.1664   -1.0238    0.0757 H       1  UNL1        0.0269
     50 H           5.4759   -2.0086   -1.4182 H       1  UNL1        0.0269
     51 H           7.5503   -0.6895   -1.8170 H       1  UNL1        0.0313
     52 H           7.5333   -1.5031   -0.2261 H       1  UNL1        0.0313
     53 H           7.3512   -0.3883    1.7663 H       1  UNL1        0.0620
     54 H           7.7106    1.6080    3.0910 H       1  UNL1        0.0618
     55 H           7.8562    3.8103    1.9672 H       1  UNL1        0.0618
     56 H           7.6262    3.9252   -0.5398 H       1  UNL1        0.0618
     57 H           7.2599    1.8370   -1.8265 H       1  UNL1        0.0620
     58 H           0.9653   -0.7827   -2.2825 H       1  UNL1        0.0654
     59 H          -1.3707   -1.2686   -1.7299 H       1  UNL1        0.0626
@<TRIPOS>BOND
     1     1     2    2
     2     2     3   am
     3     3     4    1
     4     4     5   ar
     5     5     6   ar
     6     6     7   ar
     7     7     8   ar
     8     8     9   ar
     9     9    10    2
    10     9    11   ar
    11    11    12   ar
    12    12    13   ar
    13    13    14   ar
    14     7    15    1
    15    15    16   ar
    16    16    17   ar
    17    17    18   ar
    18    18    19   ar
    19     2    20    1
    20    20    21   ar
    21    21    22   ar
    22    22    23   ar
    23    23    24    1
    24    24    25    1
    25    25    26    1
    26    26    27    1
    27    27    28    1
    28    28    29    1
    29    29    30   ar
    30    30    31   ar
    31    31    32   ar
    32    32    33   ar
    33    33    34   ar
    34    23    35   ar
    35    35    36   ar
    36    14     4   ar
    37    19    15   ar
    38    36    20   ar
    39    11     5   ar
    40    34    29   ar
    41     3    37    1
    42     8    38    1
    43    12    39    1
    44    13    40    1
    45    14    41    1
    46    17    42    1
    47    21    43    1
    48    22    44    1
    49    25    45    1
    50    25    46    1
    51    26    47    1
    52    26    48    1
    53    27    49    1
    54    27    50    1
    55    28    51    1
    56    28    52    1
    57    30    53    1
    58    31    54    1
    59    32    55    1
    60    33    56    1
    61    34    57    1
    62    35    58    1
    63    36    59    1
