@<TRIPOS>MOLECULE
*****
 37 40 0 0 0
SMALL
GASTEIGER

@<TRIPOS>ATOM
      1 O          -0.0605   -0.6683   -0.2157 O.2     1  UNL1       -0.2751
      2 C           0.2033    0.1251    0.7219 C.2     1  UNL1        0.2219
      3 C          -0.6911    1.2654    1.0518 C.3     1  UNL1        0.0500
      4 C          -1.8504    1.2483    0.1094 C.ar    1  UNL1       -0.0295
      5 C          -1.8579    2.1674   -0.9134 C.ar    1  UNL1       -0.0574
      6 C          -2.9040    2.2043   -1.8203 C.ar    1  UNL1       -0.0594
      7 C          -3.9410    1.2857   -1.6629 C.ar    1  UNL1       -0.0357
      8 C          -3.9390    0.3662   -0.6445 C.ar    1  UNL1        0.0712
      9 N          -4.9675   -0.4886   -0.5509 N.ar    1  UNL1       -0.2550
     10 C          -5.0010   -1.4016    0.4309 C.ar    1  UNL1        0.0283
     11 C          -3.9659   -1.4364    1.3265 C.ar    1  UNL1       -0.0430
     12 C          -2.8859   -0.5618    1.2537 C.ar    1  UNL1       -0.0509
     13 C          -2.8864    0.3500    0.2451 C.ar    1  UNL1        0.0040
     14 N           1.3933   -0.1085    1.4586 N.am    1  UNL1       -0.2791
     15 C           2.2970   -1.1662    1.2111 C.ar    1  UNL1        0.0839
     16 S           2.0657   -2.7743    1.9355 S.2     1  UNL1       -0.0797
     17 C           3.5086   -3.5345    1.2076 C.ar    1  UNL1       -0.0035
     18 C           4.0522   -2.5078    0.4727 C.ar    1  UNL1        0.0605
     19 CL          5.5586   -2.8612   -0.4427 Cl      1  UNL1       -0.0822
     20 C           3.4114   -1.3172    0.4971 C.ar    1  UNL1        0.0658
     21 C           3.9642   -0.1435   -0.2551 C.ar    1  UNL1        0.1652
     22 N           5.0636   -0.1029   -1.0295 N.ar    1  UNL1       -0.1295
     23 N           5.2488    1.1060   -1.5165 N.ar    1  UNL1       -0.1377
     24 C           4.2680    1.8911   -1.0689 C.ar    1  UNL1        0.1175
     25 N           3.4820    1.0878   -0.2853 N.ar    1  UNL1       -0.3276
     26 H          -1.0239    1.1337    2.1007 H       1  UNL1        0.0407
     27 H          -0.1453    2.2228    1.0101 H       1  UNL1        0.0407
     28 H          -1.0636    2.8932   -1.0588 H       1  UNL1        0.0621
     29 H          -2.8956    2.9246   -2.6099 H       1  UNL1        0.0618
     30 H          -4.7441    1.3264   -2.3729 H       1  UNL1        0.0639
     31 H          -5.8038   -2.1140    0.5540 H       1  UNL1        0.0830
     32 H          -3.9821   -2.1642    2.1178 H       1  UNL1        0.0633
     33 H          -2.0757   -0.6079    1.9756 H       1  UNL1        0.0625
     34 H           1.6120    0.5476    2.2353 H       1  UNL1        0.1553
     35 H           3.8361   -4.5735    1.3464 H       1  UNL1        0.0709
     36 H           4.0828    2.9464   -1.2535 H       1  UNL1        0.1046
     37 H           2.6371    1.4408    0.2035 H       1  UNL1        0.1683
@<TRIPOS>BOND
     1     1     2    2
     2     2     3    1
     3     3     4    1
     4     4     5   ar
     5     5     6   ar
     6     6     7   ar
     7     7     8   ar
     8     8     9   ar
     9     9    10   ar
    10    10    11   ar
    11    11    12   ar
    12    12    13   ar
    13     2    14   am
    14    14    15    1
    15    15    16   ar
    16    16    17   ar
    17    17    18   ar
    18    18    19    1
    19    18    20   ar
    20    20    21    1
    21    21    22   ar
    22    22    23   ar
    23    23    24   ar
    24    24    25   ar
    25    13     4   ar
    26    20    15   ar
    27    25    21   ar
    28    13     8   ar
    29     3    26    1
    30     3    27    1
    31     5    28    1
    32     6    29    1
    33     7    30    1
    34    10    31    1
    35    11    32    1
    36    12    33    1
    37    14    34    1
    38    17    35    1
    39    24    36    1
    40    25    37    1
