
     RDKit          3D

 37 40  0  0  0  0  0  0  0  0999 V2000
   -0.0605   -0.6683   -0.2157 O   0  0  0  0  0  0  0  0  0  0  0  0
    0.2033    0.1251    0.7219 C   0  0  0  0  0  0  0  0  0  0  0  0
   -0.6911    1.2654    1.0518 C   0  0  0  0  0  0  0  0  0  0  0  0
   -1.8504    1.2483    0.1094 C   0  0  0  0  0  0  0  0  0  0  0  0
   -1.8579    2.1674   -0.9134 C   0  0  0  0  0  0  0  0  0  0  0  0
   -2.9040    2.2043   -1.8203 C   0  0  0  0  0  0  0  0  0  0  0  0
   -3.9410    1.2857   -1.6629 C   0  0  0  0  0  0  0  0  0  0  0  0
   -3.9390    0.3662   -0.6445 C   0  0  0  0  0  0  0  0  0  0  0  0
   -4.9675   -0.4886   -0.5509 N   0  0  0  0  0  0  0  0  0  0  0  0
   -5.0010   -1.4016    0.4309 C   0  0  0  0  0  0  0  0  0  0  0  0
   -3.9659   -1.4364    1.3265 C   0  0  0  0  0  0  0  0  0  0  0  0
   -2.8859   -0.5618    1.2537 C   0  0  0  0  0  0  0  0  0  0  0  0
   -2.8864    0.3500    0.2451 C   0  0  0  0  0  0  0  0  0  0  0  0
    1.3933   -0.1085    1.4586 N   0  0  0  0  0  0  0  0  0  0  0  0
    2.2970   -1.1662    1.2111 C   0  0  0  0  0  0  0  0  0  0  0  0
    2.0657   -2.7743    1.9355 S   0  0  0  0  0  0  0  0  0  0  0  0
    3.5086   -3.5345    1.2076 C   0  0  0  0  0  0  0  0  0  0  0  0
    4.0522   -2.5078    0.4727 C   0  0  0  0  0  0  0  0  0  0  0  0
    5.5586   -2.8612   -0.4427 Cl  0  0  0  0  0  0  0  0  0  0  0  0
    3.4114   -1.3172    0.4971 C   0  0  0  0  0  0  0  0  0  0  0  0
    3.9642   -0.1435   -0.2551 C   0  0  0  0  0  0  0  0  0  0  0  0
    5.0636   -0.1029   -1.0295 N   0  0  0  0  0  0  0  0  0  0  0  0
    5.2488    1.1060   -1.5165 N   0  0  0  0  0  0  0  0  0  0  0  0
    4.2680    1.8911   -1.0689 C   0  0  0  0  0  0  0  0  0  0  0  0
    3.4820    1.0878   -0.2853 N   0  0  0  0  0  0  0  0  0  0  0  0
   -1.0239    1.1337    2.1007 H   0  0  0  0  0  0  0  0  0  0  0  0
   -0.1453    2.2228    1.0101 H   0  0  0  0  0  0  0  0  0  0  0  0
   -1.0636    2.8932   -1.0588 H   0  0  0  0  0  0  0  0  0  0  0  0
   -2.8956    2.9246   -2.6099 H   0  0  0  0  0  0  0  0  0  0  0  0
   -4.7441    1.3264   -2.3729 H   0  0  0  0  0  0  0  0  0  0  0  0
   -5.8038   -2.1140    0.5540 H   0  0  0  0  0  0  0  0  0  0  0  0
   -3.9821   -2.1642    2.1178 H   0  0  0  0  0  0  0  0  0  0  0  0
   -2.0757   -0.6079    1.9756 H   0  0  0  0  0  0  0  0  0  0  0  0
    1.6120    0.5476    2.2353 H   0  0  0  0  0  0  0  0  0  0  0  0
    3.8361   -4.5735    1.3464 H   0  0  0  0  0  0  0  0  0  0  0  0
    4.0828    2.9464   -1.2535 H   0  0  0  0  0  0  0  0  0  0  0  0
    2.6371    1.4408    0.2035 H   0  0  0  0  0  0  0  0  0  0  0  0
  1  2  2  0
  2  3  1  0
  3  4  1  0
  4  5  2  0
  5  6  1  0
  6  7  2  0
  7  8  1  0
  8  9  2  0
  9 10  1  0
 10 11  2  0
 11 12  1  0
 12 13  2  0
  2 14  1  0
 14 15  1  0
 15 16  1  0
 16 17  1  0
 17 18  2  0
 18 19  1  0
 18 20  1  0
 20 21  1  0
 21 22  2  0
 22 23  1  0
 23 24  2  0
 24 25  1  0
 13  4  1  0
 20 15  2  0
 25 21  1  0
 13  8  1  0
  3 26  1  0
  3 27  1  0
  5 28  1  0
  6 29  1  0
  7 30  1  0
 10 31  1  0
 11 32  1  0
 12 33  1  0
 14 34  1  0
 17 35  1  0
 24 36  1  0
 25 37  1  0
M  END
$$$$
