
     RDKit          3D

 19 19  0  0  0  0  0  0  0  0999 V2000
    3.4050    0.2974    0.2266 N   0  0  0  0  0  0  0  0  0  0  0  0
    2.0036    0.0968    0.0687 C   0  0  0  0  0  0  0  0  0  0  0  0
    1.3413   -0.8163    0.8889 C   0  0  0  0  0  0  0  0  0  0  0  0
   -0.0207   -1.0311    0.7571 C   0  0  0  0  0  0  0  0  0  0  0  0
   -0.7507   -0.3514   -0.1826 C   0  0  0  0  0  0  0  0  0  0  0  0
   -0.1185    0.5710   -1.0210 C   0  0  0  0  0  0  0  0  0  0  0  0
    1.2515    0.7659   -0.8653 C   0  0  0  0  0  0  0  0  0  0  0  0
   -2.4719   -0.5325   -0.4478 S   0  0  0  0  0  0  0  0  0  0  0  0
   -3.2811    0.6115    0.5686 N   0  0  0  0  0  0  0  0  0  0  0  0
   -2.8276   -0.2680   -1.8842 O   0  0  0  0  0  0  0  0  0  0  0  0
   -2.9204   -1.8982    0.0013 O   0  0  0  0  0  0  0  0  0  0  0  0
    4.1310    0.4784   -0.4753 H   0  0  0  0  0  0  0  0  0  0  0  0
    3.7927    0.2608    1.2055 H   0  0  0  0  0  0  0  0  0  0  0  0
    1.8963   -1.3703    1.6441 H   0  0  0  0  0  0  0  0  0  0  0  0
   -0.5641   -1.7319    1.3771 H   0  0  0  0  0  0  0  0  0  0  0  0
   -0.6543    1.1295   -1.7759 H   0  0  0  0  0  0  0  0  0  0  0  0
    1.7240    1.4876   -1.5273 H   0  0  0  0  0  0  0  0  0  0  0  0
   -2.6797    0.7733    1.4076 H   0  0  0  0  0  0  0  0  0  0  0  0
   -3.2563    1.5273    0.0338 H   0  0  0  0  0  0  0  0  0  0  0  0
  1  2  1  0
  2  3  2  0
  3  4  1  0
  4  5  2  0
  5  6  1  0
  6  7  2  0
  5  8  1  0
  8  9  1  0
  8 10  2  0
  8 11  2  0
  7  2  1  0
  1 12  1  0
  1 13  1  0
  3 14  1  0
  4 15  1  0
  6 16  1  0
  7 17  1  0
  9 18  1  0
  9 19  1  0
M  END
$$$$
