@<TRIPOS>MOLECULE
*****
 97 98 0 0 0
SMALL
GASTEIGER

@<TRIPOS>ATOM
      1 C          -5.9940    2.6844   -2.3515 C.3     1  UNL1       -0.0650
      2 C          -5.3778    3.3347   -1.1438 C.3     1  UNL1       -0.0512
      3 C          -5.2700    2.4196    0.0483 C.3     1  UNL1       -0.0170
      4 C          -4.6563    3.1175    1.2357 C.3     1  UNL1       -0.0603
      5 C          -4.5531    1.1154   -0.2486 C.3     1  UNL1        0.1050
      6 N          -4.5600    0.3846    1.0095 N.am    1  UNL1       -0.2696
      7 C          -5.4338   -0.7271    1.1451 C.2     1  UNL1        0.4012
      8 O          -6.1646   -1.0271    0.1615 O.2     1  UNL1       -0.2265
      9 O          -5.5437   -1.4961    2.2608 O.3     1  UNL1       -0.4456
     10 C          -6.3716   -2.6002    2.4923 C.3     1  UNL1        0.1191
     11 C          -6.1829   -3.7417    1.5881 C.ar    1  UNL1       -0.0103
     12 C          -6.9356   -3.9189    0.4564 C.ar    1  UNL1       -0.0554
     13 C          -6.6855   -5.0169   -0.3417 C.ar    1  UNL1       -0.0614
     14 C          -5.7052   -5.9312   -0.0283 C.ar    1  UNL1       -0.0617
     15 C          -4.9514   -5.7423    1.1178 C.ar    1  UNL1       -0.0614
     16 C          -5.2020   -4.6500    1.9082 C.ar    1  UNL1       -0.0554
     17 C          -3.2213    1.2636   -0.8151 C.2     1  UNL1        0.2343
     18 O          -3.0727    1.8357   -1.9178 O.2     1  UNL1       -0.2738
     19 N          -1.9997    0.7986   -0.2112 N.am    1  UNL1       -0.3025
     20 C          -0.7209    0.9842   -0.8492 C.3     1  UNL1        0.0997
     21 C           0.0463    2.0506   -0.0482 C.3     1  UNL1       -0.0220
     22 C          -0.8207    3.3020   -0.1133 C.3     1  UNL1       -0.0255
     23 C          -0.2348    4.4266    0.6110 C.ar    1  UNL1       -0.0473
     24 C           0.6123    5.2986   -0.0354 C.ar    1  UNL1       -0.0586
     25 C           1.1673    6.3716    0.6583 C.ar    1  UNL1       -0.0615
     26 C           0.8795    6.5735    1.9851 C.ar    1  UNL1       -0.0617
     27 C           0.0371    5.7000    2.6138 C.ar    1  UNL1       -0.0615
     28 C          -0.5304    4.6189    1.9412 C.ar    1  UNL1       -0.0586
     29 C           0.0851   -0.2669   -0.9308 C.2     1  UNL1        0.2339
     30 O          -0.3458   -1.3365   -0.4342 O.2     1  UNL1       -0.2738
     31 N           1.3549   -0.2490   -1.5783 N.am    1  UNL1       -0.3027
     32 C           2.1020   -1.4926   -1.6269 C.3     1  UNL1        0.0966
     33 C           2.2523   -1.8404   -3.0896 C.3     1  UNL1       -0.0381
     34 C           3.4360   -1.3553   -1.0267 C.2     1  UNL1        0.2335
     35 O           3.8410   -0.2533   -0.5273 O.2     1  UNL1       -0.2738
     36 N           4.3221   -2.4638   -0.9829 N.am    1  UNL1       -0.3075
     37 C           5.6426   -2.4063   -0.3946 C.3     1  UNL1        0.0432
     38 C           5.6013   -2.5076    1.0735 C.2     1  UNL1       -0.0464
     39 C           6.6977   -2.5319    1.8025 C.2     1  UNL1        0.0495
     40 S           6.6190   -2.6544    3.5702 S.O2    1  UNL1       -0.0127
     41 C           6.3017   -1.0695    4.3030 C.3     1  UNL1        0.0589
     42 O           7.8777   -3.2480    4.0970 O.2     1  UNL1       -0.1702
     43 O           5.4855   -3.5932    3.9162 O.2     1  UNL1       -0.1702
     44 C           6.5231   -1.3074   -0.9130 C.3     1  UNL1       -0.0285
     45 C           6.8409   -1.3831   -2.3758 C.3     1  UNL1       -0.0448
     46 C           5.6787   -1.3379   -3.3039 C.3     1  UNL1       -0.0626
     47 C           7.7782   -0.2108   -2.6958 C.3     1  UNL1       -0.0626
     48 H          -6.9026    3.2949   -2.6406 H       1  UNL1        0.0230
     49 H          -6.4167    1.6748   -2.1403 H       1  UNL1        0.0230
     50 H          -5.3038    2.6840   -3.2005 H       1  UNL1        0.0230
     51 H          -6.0300    4.2172   -0.8751 H       1  UNL1        0.0266
     52 H          -4.3592    3.7121   -1.4520 H       1  UNL1        0.0266
     53 H          -6.3106    2.1362    0.3363 H       1  UNL1        0.0321
     54 H          -5.3587    3.1208    2.1217 H       1  UNL1        0.0233
     55 H          -4.5556    4.1853    0.9634 H       1  UNL1        0.0233
     56 H          -3.7381    2.6437    1.6071 H       1  UNL1        0.0233
     57 H          -5.2016    0.5767   -0.9565 H       1  UNL1        0.0598
     58 H          -3.9574    0.6282    1.8251 H       1  UNL1        0.1528
     59 H          -6.3310   -2.8850    3.5658 H       1  UNL1        0.0749
     60 H          -7.4286   -2.2238    2.3503 H       1  UNL1        0.0749
     61 H          -7.7351   -3.2137    0.1778 H       1  UNL1        0.0621
     62 H          -7.2798   -5.1674   -1.2460 H       1  UNL1        0.0618
     63 H          -5.5286   -6.7860   -0.6724 H       1  UNL1        0.0618
     64 H          -4.1707   -6.4576    1.3800 H       1  UNL1        0.0618
     65 H          -4.6007   -4.4960    2.8240 H       1  UNL1        0.0621
     66 H          -2.0994    0.3260    0.7053 H       1  UNL1        0.1495
     67 H          -0.8195    1.4309   -1.8572 H       1  UNL1        0.0595
     68 H           0.1742    1.6760    0.9736 H       1  UNL1        0.0291
     69 H           1.0494    2.2058   -0.4776 H       1  UNL1        0.0291
     70 H          -0.9477    3.5185   -1.2148 H       1  UNL1        0.0314
     71 H          -1.8220    3.0148    0.2355 H       1  UNL1        0.0314
     72 H           0.8901    5.2104   -1.0767 H       1  UNL1        0.0620
     73 H           1.8263    7.0380    0.1290 H       1  UNL1        0.0618
     74 H           1.3144    7.4079    2.5138 H       1  UNL1        0.0618
     75 H          -0.1934    5.8521    3.6551 H       1  UNL1        0.0618
     76 H          -1.1832    3.9854    2.5225 H       1  UNL1        0.0620
     77 H           1.7160    0.6332   -1.9946 H       1  UNL1        0.1495
     78 H           1.5523   -2.2820   -1.0832 H       1  UNL1        0.0592
     79 H           1.2431   -1.8833   -3.5869 H       1  UNL1        0.0252
     80 H           2.8151   -1.0847   -3.6510 H       1  UNL1        0.0252
     81 H           2.7761   -2.8178   -3.1989 H       1  UNL1        0.0252
     82 H           3.9456   -3.3578   -1.4192 H       1  UNL1        0.1493
     83 H           6.1566   -3.3578   -0.7726 H       1  UNL1        0.0543
     84 H           4.6419   -2.5667    1.5822 H       1  UNL1        0.0603
     85 H           7.6543   -2.4783    1.3311 H       1  UNL1        0.0816
     86 H           7.2769   -0.5478    4.4382 H       1  UNL1        0.0468
     87 H           5.5791   -0.4769    3.7083 H       1  UNL1        0.0468
     88 H           5.8455   -1.2109    5.3055 H       1  UNL1        0.0468
     89 H           6.1391   -0.2844   -0.6998 H       1  UNL1        0.0289
     90 H           7.5068   -1.4108   -0.3704 H       1  UNL1        0.0289
     91 H           7.4527   -2.2944   -2.5802 H       1  UNL1        0.0296
     92 H           5.0632   -0.4288   -3.1719 H       1  UNL1        0.0232
     93 H           5.0806   -2.2485   -3.2313 H       1  UNL1        0.0232
     94 H           6.0723   -1.2393   -4.3612 H       1  UNL1        0.0232
     95 H           8.5203   -0.1916   -1.8880 H       1  UNL1        0.0232
     96 H           8.2023   -0.3950   -3.7031 H       1  UNL1        0.0232
     97 H           7.1309    0.6926   -2.7414 H       1  UNL1        0.0232
@<TRIPOS>BOND
     1     1     2    1
     2     2     3    1
     3     3     4    1
     4     3     5    1
     5     5     6    1
     6     6     7   am
     7     7     8    2
     8     7     9    1
     9     9    10    1
    10    10    11    1
    11    11    12   ar
    12    12    13   ar
    13    13    14   ar
    14    14    15   ar
    15    15    16   ar
    16     5    17    1
    17    17    18    2
    18    17    19   am
    19    19    20    1
    20    20    21    1
    21    21    22    1
    22    22    23    1
    23    23    24   ar
    24    24    25   ar
    25    25    26   ar
    26    26    27   ar
    27    27    28   ar
    28    20    29    1
    29    29    30    2
    30    29    31   am
    31    31    32    1
    32    32    33    1
    33    32    34    1
    34    34    35    2
    35    34    36   am
    36    36    37    1
    37    37    38    1
    38    38    39    2
    39    39    40    1
    40    40    41    1
    41    40    42    2
    42    40    43    2
    43    37    44    1
    44    44    45    1
    45    45    46    1
    46    45    47    1
    47    16    11   ar
    48    28    23   ar
    49     1    48    1
    50     1    49    1
    51     1    50    1
    52     2    51    1
    53     2    52    1
    54     3    53    1
    55     4    54    1
    56     4    55    1
    57     4    56    1
    58     5    57    1
    59     6    58    1
    60    10    59    1
    61    10    60    1
    62    12    61    1
    63    13    62    1
    64    14    63    1
    65    15    64    1
    66    16    65    1
    67    19    66    1
    68    20    67    1
    69    21    68    1
    70    21    69    1
    71    22    70    1
    72    22    71    1
    73    24    72    1
    74    25    73    1
    75    26    74    1
    76    27    75    1
    77    28    76    1
    78    31    77    1
    79    32    78    1
    80    33    79    1
    81    33    80    1
    82    33    81    1
    83    36    82    1
    84    37    83    1
    85    38    84    1
    86    39    85    1
    87    41    86    1
    88    41    87    1
    89    41    88    1
    90    44    89    1
    91    44    90    1
    92    45    91    1
    93    46    92    1
    94    46    93    1
    95    46    94    1
    96    47    95    1
    97    47    96    1
    98    47    97    1
