
     RDKit          3D

 53 55  0  0  0  0  0  0  0  0999 V2000
   -5.1497   -0.0565    1.4684 C   0  0  0  0  0  0  0  0  0  0  0  0
   -4.3241   -0.9531    0.7269 N   0  0  0  0  0  0  0  0  0  0  0  0
   -3.1356   -0.3411    0.1947 C   0  0  0  0  0  0  0  0  0  0  0  0
   -2.1887    0.0348    1.2896 C   0  0  0  0  0  0  0  0  0  0  0  0
   -0.9279    0.6796    0.7840 C   0  0  1  0  0  0  0  0  0  0  0  0
   -0.1624   -0.0936   -0.0729 O   0  0  0  0  0  0  0  0  0  0  0  0
    1.1832   -0.3291   -0.0516 C   0  0  0  0  0  0  0  0  0  0  0  0
    2.0115    0.2232    0.8848 C   0  0  0  0  0  0  0  0  0  0  0  0
    3.3840   -0.0564    0.8495 C   0  0  0  0  0  0  0  0  0  0  0  0
    3.9544   -0.8764   -0.0996 C   0  0  0  0  0  0  0  0  0  0  0  0
    5.3858   -1.1507   -0.1369 C   0  0  0  0  0  0  0  0  0  0  0  0
    5.8869   -2.3356   -0.5843 C   0  0  0  0  0  0  0  0  0  0  0  0
    7.2448   -2.5823   -0.6218 C   0  0  0  0  0  0  0  0  0  0  0  0
    8.1287   -1.5932   -0.1899 C   0  0  0  0  0  0  0  0  0  0  0  0
    7.6509   -0.3873    0.2672 C   0  0  0  0  0  0  0  0  0  0  0  0
    6.2999   -0.1833    0.2877 C   0  0  0  0  0  0  0  0  0  0  0  0
    3.0958   -1.4239   -1.0356 C   0  0  0  0  0  0  0  0  0  0  0  0
    1.7451   -1.1554   -1.0099 C   0  0  0  0  0  0  0  0  0  0  0  0
   -1.2409    2.0255    0.1622 C   0  0  0  0  0  0  0  0  0  0  0  0
   -1.1767    3.1929    0.8877 C   0  0  0  0  0  0  0  0  0  0  0  0
   -1.4444    4.4276    0.3459 C   0  0  0  0  0  0  0  0  0  0  0  0
   -1.7928    4.5135   -0.9778 C   0  0  0  0  0  0  0  0  0  0  0  0
   -2.0468    5.7458   -1.4763 F   0  0  0  0  0  0  0  0  0  0  0  0
   -1.8689    3.3713   -1.7382 C   0  0  0  0  0  0  0  0  0  0  0  0
   -1.5936    2.1361   -1.1678 C   0  0  0  0  0  0  0  0  0  0  0  0
   -5.0987   -1.6363   -0.2543 C   0  0  0  0  0  0  0  0  0  0  0  0
   -6.0682   -2.6048    0.3140 C   0  0  0  0  0  0  0  0  0  0  0  0
   -6.1700   -2.8774    1.5411 O   0  0  0  0  0  0  0  0  0  0  0  0
   -6.9652   -3.3032   -0.5084 O   0  0  0  0  0  0  0  0  0  0  0  0
   -4.6555    0.4545    2.3123 H   0  0  0  0  0  0  0  0  0  0  0  0
   -6.0246   -0.6064    1.8621 H   0  0  0  0  0  0  0  0  0  0  0  0
   -5.4677    0.7540    0.7769 H   0  0  0  0  0  0  0  0  0  0  0  0
   -2.6774   -1.0722   -0.5013 H   0  0  0  0  0  0  0  0  0  0  0  0
   -3.4591    0.5542   -0.4035 H   0  0  0  0  0  0  0  0  0  0  0  0
   -1.9809   -0.8903    1.8669 H   0  0  0  0  0  0  0  0  0  0  0  0
   -2.6891    0.7964    1.9295 H   0  0  0  0  0  0  0  0  0  0  0  0
   -0.3097    0.9474    1.6747 H   0  0  0  0  0  0  0  0  0  0  0  0
    1.6604    0.8779    1.6660 H   0  0  0  0  0  0  0  0  0  0  0  0
    4.0580    0.3774    1.5906 H   0  0  0  0  0  0  0  0  0  0  0  0
    5.1871   -3.1023   -0.9193 H   0  0  0  0  0  0  0  0  0  0  0  0
    7.6186   -3.5267   -0.9805 H   0  0  0  0  0  0  0  0  0  0  0  0
    9.1960   -1.7690   -0.2128 H   0  0  0  0  0  0  0  0  0  0  0  0
    8.3705    0.3720    0.5995 H   0  0  0  0  0  0  0  0  0  0  0  0
    5.9010    0.7563    0.6425 H   0  0  0  0  0  0  0  0  0  0  0  0
    3.5512   -2.0719   -1.7841 H   0  0  0  0  0  0  0  0  0  0  0  0
    1.1119   -1.6102   -1.7656 H   0  0  0  0  0  0  0  0  0  0  0  0
   -0.8989    3.1019    1.9354 H   0  0  0  0  0  0  0  0  0  0  0  0
   -1.3675    5.2916    0.9942 H   0  0  0  0  0  0  0  0  0  0  0  0
   -2.1456    3.4812   -2.7754 H   0  0  0  0  0  0  0  0  0  0  0  0
   -1.6642    1.2728   -1.8035 H   0  0  0  0  0  0  0  0  0  0  0  0
   -5.6661   -0.9600   -0.9275 H   0  0  0  0  0  0  0  0  0  0  0  0
   -4.4021   -2.2610   -0.8913 H   0  0  0  0  0  0  0  0  0  0  0  0
   -7.8629   -3.5783   -0.1374 H   0  0  0  0  0  0  0  0  0  0  0  0
  1  2  1  0
  2  3  1  0
  3  4  1  0
  4  5  1  0
  5  6  1  0
  6  7  1  0
  7  8  2  0
  8  9  1  0
  9 10  2  0
 10 11  1  0
 11 12  2  0
 12 13  1  0
 13 14  2  0
 14 15  1  0
 15 16  2  0
 10 17  1  0
 17 18  2  0
  5 19  1  0
 19 20  2  0
 20 21  1  0
 21 22  2  0
 22 23  1  0
 22 24  1  0
 24 25  2  0
  2 26  1  0
 26 27  1  0
 27 28  2  0
 27 29  1  0
 18  7  1  0
 25 19  1  0
 16 11  1  0
  1 30  1  0
  1 31  1  0
  1 32  1  0
  3 33  1  0
  3 34  1  0
  4 35  1  0
  4 36  1  0
  5 37  1  1
  8 38  1  0
  9 39  1  0
 12 40  1  0
 13 41  1  0
 14 42  1  0
 15 43  1  0
 16 44  1  0
 17 45  1  0
 18 46  1  0
 20 47  1  0
 21 48  1  0
 24 49  1  0
 25 50  1  0
 26 51  1  0
 26 52  1  0
 29 53  1  0
M  END
$$$$
