@<TRIPOS>MOLECULE
*****
 53 55 0 0 0
SMALL
GASTEIGER

@<TRIPOS>ATOM
      1 C          -5.1497   -0.0565    1.4684 C.3     1  UNL1       -0.0122
      2 N          -4.3241   -0.9531    0.7269 N.3     1  UNL1       -0.2954
      3 C          -3.1356   -0.3411    0.1947 C.3     1  UNL1        0.0028
      4 C          -2.1887    0.0348    1.2896 C.3     1  UNL1        0.0013
      5 C          -0.9279    0.6796    0.7840 C.3     1  UNL1        0.1263
      6 O          -0.1624   -0.0936   -0.0729 O.3     1  UNL1       -0.4842
      7 C           1.1832   -0.3291   -0.0516 C.ar    1  UNL1        0.1214
      8 C           2.0115    0.2232    0.8848 C.ar    1  UNL1       -0.0193
      9 C           3.3840   -0.0564    0.8495 C.ar    1  UNL1       -0.0506
     10 C           3.9544   -0.8764   -0.0996 C.ar    1  UNL1       -0.0177
     11 C           5.3858   -1.1507   -0.1369 C.ar    1  UNL1       -0.0179
     12 C           5.8869   -2.3356   -0.5843 C.ar    1  UNL1       -0.0540
     13 C           7.2448   -2.5823   -0.6218 C.ar    1  UNL1       -0.0612
     14 C           8.1287   -1.5932   -0.1899 C.ar    1  UNL1       -0.0617
     15 C           7.6509   -0.3873    0.2672 C.ar    1  UNL1       -0.0612
     16 C           6.2999   -0.1833    0.2877 C.ar    1  UNL1       -0.0540
     17 C           3.0958   -1.4239   -1.0356 C.ar    1  UNL1       -0.0506
     18 C           1.7451   -1.1554   -1.0099 C.ar    1  UNL1       -0.0193
     19 C          -1.2409    2.0255    0.1622 C.ar    1  UNL1       -0.0071
     20 C          -1.1767    3.1929    0.8877 C.ar    1  UNL1       -0.0524
     21 C          -1.4444    4.4276    0.3459 C.ar    1  UNL1       -0.0261
     22 C          -1.7928    4.5135   -0.9778 C.ar    1  UNL1        0.1234
     23 F          -2.0468    5.7458   -1.4763 F       1  UNL1       -0.2055
     24 C          -1.8689    3.3713   -1.7382 C.ar    1  UNL1       -0.0261
     25 C          -1.5936    2.1361   -1.1678 C.ar    1  UNL1       -0.0524
     26 C          -5.0987   -1.6363   -0.2543 C.3     1  UNL1        0.0965
     27 C          -6.0682   -2.6048    0.3140 C.2     1  UNL1        0.3189
     28 O          -6.1700   -2.8774    1.5411 O.2     1  UNL1       -0.2496
     29 O          -6.9652   -3.3032   -0.5084 O.3     1  UNL1       -0.4797
     30 H          -4.6555    0.4545    2.3123 H       1  UNL1        0.0391
     31 H          -6.0246   -0.6064    1.8621 H       1  UNL1        0.0391
     32 H          -5.4677    0.7540    0.7769 H       1  UNL1        0.0391
     33 H          -2.6774   -1.0722   -0.5013 H       1  UNL1        0.0428
     34 H          -3.4591    0.5542   -0.4035 H       1  UNL1        0.0428
     35 H          -1.9809   -0.8903    1.8669 H       1  UNL1        0.0317
     36 H          -2.6891    0.7964    1.9295 H       1  UNL1        0.0317
     37 H          -0.3097    0.9474    1.6747 H       1  UNL1        0.0785
     38 H           1.6604    0.8779    1.6660 H       1  UNL1        0.0654
     39 H           4.0580    0.3774    1.5906 H       1  UNL1        0.0625
     40 H           5.1871   -3.1023   -0.9193 H       1  UNL1        0.0624
     41 H           7.6186   -3.5267   -0.9805 H       1  UNL1        0.0618
     42 H           9.1960   -1.7690   -0.2128 H       1  UNL1        0.0618
     43 H           8.3705    0.3720    0.5995 H       1  UNL1        0.0618
     44 H           5.9010    0.7563    0.6425 H       1  UNL1        0.0624
     45 H           3.5512   -2.0719   -1.7841 H       1  UNL1        0.0625
     46 H           1.1119   -1.6102   -1.7656 H       1  UNL1        0.0654
     47 H          -0.8989    3.1019    1.9354 H       1  UNL1        0.0622
     48 H          -1.3675    5.2916    0.9942 H       1  UNL1        0.0646
     49 H          -2.1456    3.4812   -2.7754 H       1  UNL1        0.0646
     50 H          -1.6642    1.2728   -1.8035 H       1  UNL1        0.0622
     51 H          -5.6661   -0.9600   -0.9275 H       1  UNL1        0.0541
     52 H          -4.4021   -2.2610   -0.8913 H       1  UNL1        0.0541
     53 H          -7.8629   -3.5783   -0.1374 H       1  UNL1        0.2951
@<TRIPOS>BOND
     1     1     2    1
     2     2     3    1
     3     3     4    1
     4     4     5    1
     5     5     6    1
     6     6     7    1
     7     7     8   ar
     8     8     9   ar
     9     9    10   ar
    10    10    11    1
    11    11    12   ar
    12    12    13   ar
    13    13    14   ar
    14    14    15   ar
    15    15    16   ar
    16    10    17   ar
    17    17    18   ar
    18     5    19    1
    19    19    20   ar
    20    20    21   ar
    21    21    22   ar
    22    22    23    1
    23    22    24   ar
    24    24    25   ar
    25     2    26    1
    26    26    27    1
    27    27    28    2
    28    27    29    1
    29    18     7   ar
    30    25    19   ar
    31    16    11   ar
    32     1    30    1
    33     1    31    1
    34     1    32    1
    35     3    33    1
    36     3    34    1
    37     4    35    1
    38     4    36    1
    39     5    37    1
    40     8    38    1
    41     9    39    1
    42    12    40    1
    43    13    41    1
    44    14    42    1
    45    15    43    1
    46    16    44    1
    47    17    45    1
    48    18    46    1
    49    20    47    1
    50    21    48    1
    51    24    49    1
    52    25    50    1
    53    26    51    1
    54    26    52    1
    55    29    53    1
