@<TRIPOS>MOLECULE
*****
 45 49 0 0 0
SMALL
GASTEIGER

@<TRIPOS>ATOM
      1 N          -0.5290    4.8477   -2.6360 N.1     1  UNL1       -0.1892
      2 C          -0.8489    4.4245   -1.6287 C.1     1  UNL1        0.1208
      3 C          -1.2598    3.9079   -0.3382 C.ar    1  UNL1        0.1618
      4 C          -1.8872    4.6439    0.6444 C.ar    1  UNL1        0.0659
      5 N          -2.0985    3.8144    1.6757 N.ar    1  UNL1       -0.2333
      6 C          -1.6172    2.5985    1.3455 C.ar    1  UNL1        0.1555
      7 C          -1.5783    1.4020    2.0338 C.ar    1  UNL1       -0.0153
      8 C          -1.0112    0.3158    1.4201 C.ar    1  UNL1       -0.0290
      9 C          -0.4806    0.3723    0.1481 C.ar    1  UNL1        0.1103
     10 C           0.1245   -0.7982   -0.4874 C.ar    1  UNL1        0.0969
     11 C          -0.5284   -1.9745   -0.7664 C.ar    1  UNL1        0.0983
     12 C          -1.9418   -2.2892   -0.4866 C.ar    1  UNL1        0.0040
     13 C          -2.9769   -1.5965   -1.0789 C.ar    1  UNL1       -0.0497
     14 C          -4.2970   -1.8979   -0.8124 C.ar    1  UNL1       -0.0244
     15 C          -4.6415   -2.9081    0.0607 C.ar    1  UNL1        0.1417
     16 F          -5.9436   -3.2008    0.3195 F       1  UNL1       -0.2040
     17 C          -3.6063   -3.6013    0.6536 C.ar    1  UNL1        0.0767
     18 CL         -4.0507   -4.8911    1.7687 Cl      1  UNL1       -0.0806
     19 C          -2.2819   -3.3001    0.3872 C.ar    1  UNL1       -0.0313
     20 N           0.3431   -2.8240   -1.3534 N.ar    1  UNL1       -0.2351
     21 C           1.5051   -2.1818   -1.4323 C.ar    1  UNL1        0.0974
     22 N           1.3896   -0.9533   -0.9120 N.ar    1  UNL1       -0.3251
     23 C           2.4209    0.0265   -0.8209 C.3     1  UNL1        0.0416
     24 C           2.6882    0.4772    0.5994 C.3     1  UNL1       -0.0265
     25 C           4.1955    0.6748    0.6994 C.3     1  UNL1        0.0127
     26 C           4.7131    0.4751   -0.7191 C.3     1  UNL1        0.2509
     27 F           6.0131    0.0774   -0.7680 F       1  UNL1       -0.2056
     28 F           4.4614    1.5899   -1.5048 F       1  UNL1       -0.2056
     29 C           3.7419   -0.5993   -1.2100 C.3     1  UNL1        0.0316
     30 N          -0.5469    1.5635   -0.4734 N.ar    1  UNL1       -0.1623
     31 N          -1.0962    2.6426    0.1032 N.ar    1  UNL1       -0.2023
     32 H          -2.1618    5.6980    0.5995 H       1  UNL1        0.0859
     33 H          -1.9929    1.3637    3.0240 H       1  UNL1        0.0655
     34 H          -0.9685   -0.6367    1.9403 H       1  UNL1        0.0641
     35 H          -2.7084   -0.7995   -1.7684 H       1  UNL1        0.0625
     36 H          -5.1097   -1.3518   -1.2801 H       1  UNL1        0.0647
     37 H          -1.4973   -3.8558    0.8627 H       1  UNL1        0.0640
     38 H           2.3977   -2.6515   -1.8751 H       1  UNL1        0.1029
     39 H           2.2628    0.9019   -1.4820 H       1  UNL1        0.0530
     40 H           2.2329    1.4973    0.6955 H       1  UNL1        0.0287
     41 H           2.3014   -0.2335    1.3369 H       1  UNL1        0.0287
     42 H           4.6412   -0.1454    1.2995 H       1  UNL1        0.0323
     43 H           4.4679    1.6578    1.1137 H       1  UNL1        0.0323
     44 H           3.8314   -0.7713   -2.3028 H       1  UNL1        0.0343
     45 H           3.9289   -1.5107   -0.6052 H       1  UNL1        0.0343
@<TRIPOS>BOND
     1     1     2    3
     2     2     3    1
     3     3     4   ar
     4     4     5   ar
     5     5     6   ar
     6     6     7   ar
     7     7     8   ar
     8     8     9   ar
     9     9    10    1
    10    10    11   ar
    11    11    12    1
    12    12    13   ar
    13    13    14   ar
    14    14    15   ar
    15    15    16    1
    16    15    17   ar
    17    17    18    1
    18    17    19   ar
    19    11    20   ar
    20    20    21   ar
    21    21    22   ar
    22    22    23    1
    23    23    24    1
    24    24    25    1
    25    25    26    1
    26    26    27    1
    27    26    28    1
    28    26    29    1
    29     9    30   ar
    30    30    31   ar
    31    31     3   ar
    32    31     6   ar
    33    22    10   ar
    34    29    23    1
    35    19    12   ar
    36     4    32    1
    37     7    33    1
    38     8    34    1
    39    13    35    1
    40    14    36    1
    41    19    37    1
    42    21    38    1
    43    23    39    1
    44    24    40    1
    45    24    41    1
    46    25    42    1
    47    25    43    1
    48    29    44    1
    49    29    45    1
