
     RDKit          3D

 45 49  0  0  0  0  0  0  0  0999 V2000
   -0.5290    4.8477   -2.6360 N   0  0  0  0  0  0  0  0  0  0  0  0
   -0.8489    4.4245   -1.6287 C   0  0  0  0  0  0  0  0  0  0  0  0
   -1.2598    3.9079   -0.3382 C   0  0  0  0  0  0  0  0  0  0  0  0
   -1.8872    4.6439    0.6444 C   0  0  0  0  0  0  0  0  0  0  0  0
   -2.0985    3.8144    1.6757 N   0  0  0  0  0  0  0  0  0  0  0  0
   -1.6172    2.5985    1.3455 C   0  0  0  0  0  0  0  0  0  0  0  0
   -1.5783    1.4020    2.0338 C   0  0  0  0  0  0  0  0  0  0  0  0
   -1.0112    0.3158    1.4201 C   0  0  0  0  0  0  0  0  0  0  0  0
   -0.4806    0.3723    0.1481 C   0  0  0  0  0  0  0  0  0  0  0  0
    0.1245   -0.7982   -0.4874 C   0  0  0  0  0  0  0  0  0  0  0  0
   -0.5284   -1.9745   -0.7664 C   0  0  0  0  0  0  0  0  0  0  0  0
   -1.9418   -2.2892   -0.4866 C   0  0  0  0  0  0  0  0  0  0  0  0
   -2.9769   -1.5965   -1.0789 C   0  0  0  0  0  0  0  0  0  0  0  0
   -4.2970   -1.8979   -0.8124 C   0  0  0  0  0  0  0  0  0  0  0  0
   -4.6415   -2.9081    0.0607 C   0  0  0  0  0  0  0  0  0  0  0  0
   -5.9436   -3.2008    0.3195 F   0  0  0  0  0  0  0  0  0  0  0  0
   -3.6063   -3.6013    0.6536 C   0  0  0  0  0  0  0  0  0  0  0  0
   -4.0507   -4.8911    1.7687 Cl  0  0  0  0  0  0  0  0  0  0  0  0
   -2.2819   -3.3001    0.3872 C   0  0  0  0  0  0  0  0  0  0  0  0
    0.3431   -2.8240   -1.3534 N   0  0  0  0  0  0  0  0  0  0  0  0
    1.5051   -2.1818   -1.4323 C   0  0  0  0  0  0  0  0  0  0  0  0
    1.3896   -0.9533   -0.9120 N   0  0  0  0  0  0  0  0  0  0  0  0
    2.4209    0.0265   -0.8209 C   0  0  1  0  0  0  0  0  0  0  0  0
    2.6882    0.4772    0.5994 C   0  0  0  0  0  0  0  0  0  0  0  0
    4.1955    0.6748    0.6994 C   0  0  0  0  0  0  0  0  0  0  0  0
    4.7131    0.4751   -0.7191 C   0  0  0  0  0  0  0  0  0  0  0  0
    6.0131    0.0774   -0.7680 F   0  0  0  0  0  0  0  0  0  0  0  0
    4.4614    1.5899   -1.5048 F   0  0  0  0  0  0  0  0  0  0  0  0
    3.7419   -0.5993   -1.2100 C   0  0  0  0  0  0  0  0  0  0  0  0
   -0.5469    1.5635   -0.4734 N   0  0  0  0  0  0  0  0  0  0  0  0
   -1.0962    2.6426    0.1032 N   0  0  0  0  0  0  0  0  0  0  0  0
   -2.1618    5.6980    0.5995 H   0  0  0  0  0  0  0  0  0  0  0  0
   -1.9929    1.3637    3.0240 H   0  0  0  0  0  0  0  0  0  0  0  0
   -0.9685   -0.6367    1.9403 H   0  0  0  0  0  0  0  0  0  0  0  0
   -2.7084   -0.7995   -1.7684 H   0  0  0  0  0  0  0  0  0  0  0  0
   -5.1097   -1.3518   -1.2801 H   0  0  0  0  0  0  0  0  0  0  0  0
   -1.4973   -3.8558    0.8627 H   0  0  0  0  0  0  0  0  0  0  0  0
    2.3977   -2.6515   -1.8751 H   0  0  0  0  0  0  0  0  0  0  0  0
    2.2628    0.9019   -1.4820 H   0  0  0  0  0  0  0  0  0  0  0  0
    2.2329    1.4973    0.6955 H   0  0  0  0  0  0  0  0  0  0  0  0
    2.3014   -0.2335    1.3369 H   0  0  0  0  0  0  0  0  0  0  0  0
    4.6412   -0.1454    1.2995 H   0  0  0  0  0  0  0  0  0  0  0  0
    4.4679    1.6578    1.1137 H   0  0  0  0  0  0  0  0  0  0  0  0
    3.8314   -0.7713   -2.3028 H   0  0  0  0  0  0  0  0  0  0  0  0
    3.9289   -1.5107   -0.6052 H   0  0  0  0  0  0  0  0  0  0  0  0
  1  2  3  0
  2  3  1  0
  3  4  2  0
  4  5  1  0
  5  6  2  0
  6  7  1  0
  7  8  2  0
  8  9  1  0
  9 10  1  0
 10 11  2  0
 11 12  1  0
 12 13  2  0
 13 14  1  0
 14 15  2  0
 15 16  1  0
 15 17  1  0
 17 18  1  0
 17 19  2  0
 11 20  1  0
 20 21  2  0
 21 22  1  0
 22 23  1  0
 23 24  1  0
 24 25  1  0
 25 26  1  0
 26 27  1  0
 26 28  1  0
 26 29  1  0
  9 30  2  0
 30 31  1  0
 31  3  1  0
 31  6  1  0
 22 10  1  0
 29 23  1  0
 19 12  1  0
  4 32  1  0
  7 33  1  0
  8 34  1  0
 13 35  1  0
 14 36  1  0
 19 37  1  0
 21 38  1  0
 23 39  1  6
 24 40  1  0
 24 41  1  0
 25 42  1  0
 25 43  1  0
 29 44  1  0
 29 45  1  0
M  END
$$$$
