
     RDKit          3D

 50 52  0  0  0  0  0  0  0  0999 V2000
   -8.2994   -2.3940   -0.7826 C   0  0  0  0  0  0  0  0  0  0  0  0
   -7.7298   -1.0290   -0.8424 C   0  0  0  0  0  0  0  0  0  0  0  0
   -6.6920   -0.7138    0.0252 C   0  0  0  0  0  0  0  0  0  0  0  0
   -6.1169    0.5209    0.0267 C   0  0  0  0  0  0  0  0  0  0  0  0
   -5.0219    0.8867    0.9416 C   0  0  0  0  0  0  0  0  0  0  0  0
   -3.7149    0.5456    0.3674 N   0  0  0  0  0  0  0  0  0  0  0  0
   -2.5086    0.8614    1.0294 C   0  0  0  0  0  0  0  0  0  0  0  0
   -2.5857    1.4513    2.1327 O   0  0  0  0  0  0  0  0  0  0  0  0
   -1.2180    0.5143    0.4502 C   0  0  0  0  0  0  0  0  0  0  0  0
   -0.0317    0.8502    1.0816 C   0  0  0  0  0  0  0  0  0  0  0  0
    1.1904    0.5357    0.5338 C   0  0  0  0  0  0  0  0  0  0  0  0
    2.4227    0.9150    1.2136 C   0  0  0  0  0  0  0  0  0  0  0  0
    2.3717    1.4921    2.3255 O   0  0  0  0  0  0  0  0  0  0  0  0
    3.7018    0.6495    0.6491 N   0  0  0  0  0  0  0  0  0  0  0  0
    4.9314    1.0226    1.3119 C   0  0  0  0  0  0  0  0  0  0  0  0
    6.0258    0.1117    0.8221 C   0  0  0  0  0  0  0  0  0  0  0  0
    6.2902   -1.1002    1.4107 C   0  0  0  0  0  0  0  0  0  0  0  0
    7.3017   -1.9097    0.9576 C   0  0  0  0  0  0  0  0  0  0  0  0
    8.0515   -1.4922   -0.0976 C   0  0  0  0  0  0  0  0  0  0  0  0
    9.0556   -2.2579   -0.5756 F   0  0  0  0  0  0  0  0  0  0  0  0
    7.8255   -0.2715   -0.7322 C   0  0  0  0  0  0  0  0  0  0  0  0
    8.6652    0.1617   -1.8808 C   0  0  0  0  0  0  0  0  0  0  0  0
    6.8155    0.4988   -0.2520 C   0  0  0  0  0  0  0  0  0  0  0  0
    1.2019   -0.1123   -0.6409 N   0  0  0  0  0  0  0  0  0  0  0  0
    0.0521   -0.4522   -1.2779 C   0  0  0  0  0  0  0  0  0  0  0  0
   -1.1204   -0.1283   -0.7131 N   0  0  0  0  0  0  0  0  0  0  0  0
   -6.5902    1.4593   -0.8585 C   0  0  0  0  0  0  0  0  0  0  0  0
   -7.6368    1.1525   -1.7381 C   0  0  0  0  0  0  0  0  0  0  0  0
   -8.1994   -0.0923   -1.7226 C   0  0  0  0  0  0  0  0  0  0  0  0
   -9.2229   -0.4239   -2.5666 F   0  0  0  0  0  0  0  0  0  0  0  0
   -7.5121   -3.1098   -0.4476 H   0  0  0  0  0  0  0  0  0  0  0  0
   -9.0890   -2.4004   -0.0127 H   0  0  0  0  0  0  0  0  0  0  0  0
   -8.6610   -2.6750   -1.7958 H   0  0  0  0  0  0  0  0  0  0  0  0
   -6.3314   -1.4495    0.7094 H   0  0  0  0  0  0  0  0  0  0  0  0
   -5.0534    1.9805    1.1543 H   0  0  0  0  0  0  0  0  0  0  0  0
   -5.1086    0.3904    1.9313 H   0  0  0  0  0  0  0  0  0  0  0  0
   -3.6590    0.0561   -0.5541 H   0  0  0  0  0  0  0  0  0  0  0  0
   -0.0330    1.3816    2.0421 H   0  0  0  0  0  0  0  0  0  0  0  0
    3.7064    0.1625   -0.2845 H   0  0  0  0  0  0  0  0  0  0  0  0
    4.8993    0.9412    2.4042 H   0  0  0  0  0  0  0  0  0  0  0  0
    5.2240    2.0750    1.0715 H   0  0  0  0  0  0  0  0  0  0  0  0
    5.6930   -1.4287    2.2478 H   0  0  0  0  0  0  0  0  0  0  0  0
    7.4974   -2.8519    1.4214 H   0  0  0  0  0  0  0  0  0  0  0  0
    8.0902    0.6323   -2.6887 H   0  0  0  0  0  0  0  0  0  0  0  0
    9.3995    0.9067   -1.5154 H   0  0  0  0  0  0  0  0  0  0  0  0
    9.1898   -0.7165   -2.2889 H   0  0  0  0  0  0  0  0  0  0  0  0
    6.6070    1.4503   -0.7159 H   0  0  0  0  0  0  0  0  0  0  0  0
    0.0758   -0.9732   -2.2206 H   0  0  0  0  0  0  0  0  0  0  0  0
   -6.1706    2.4463   -0.8947 H   0  0  0  0  0  0  0  0  0  0  0  0
   -7.9784    1.9303   -2.4196 H   0  0  0  0  0  0  0  0  0  0  0  0
  1  2  1  0
  2  3  2  0
  3  4  1  0
  4  5  1  0
  5  6  1  0
  6  7  1  0
  7  8  2  0
  7  9  1  0
  9 10  2  0
 10 11  1  0
 11 12  1  0
 12 13  2  0
 12 14  1  0
 14 15  1  0
 15 16  1  0
 16 17  2  0
 17 18  1  0
 18 19  2  0
 19 20  1  0
 19 21  1  0
 21 22  1  0
 21 23  2  0
 11 24  2  0
 24 25  1  0
 25 26  2  0
  4 27  2  0
 27 28  1  0
 28 29  2  0
 29 30  1  0
 29  2  1  0
 26  9  1  0
 23 16  1  0
  1 31  1  0
  1 32  1  0
  1 33  1  0
  3 34  1  0
  5 35  1  0
  5 36  1  0
  6 37  1  0
 10 38  1  0
 14 39  1  0
 15 40  1  0
 15 41  1  0
 17 42  1  0
 18 43  1  0
 22 44  1  0
 22 45  1  0
 22 46  1  0
 23 47  1  0
 25 48  1  0
 27 49  1  0
 28 50  1  0
M  END
$$$$
