@<TRIPOS>MOLECULE
*****
 50 52 0 0 0
SMALL
GASTEIGER

@<TRIPOS>ATOM
      1 C          -8.2994   -2.3940   -0.7826 C.3     1  UNL1       -0.0370
      2 C          -7.7298   -1.0290   -0.8424 C.ar    1  UNL1       -0.0150
      3 C          -6.6920   -0.7138    0.0252 C.ar    1  UNL1       -0.0514
      4 C          -6.1169    0.5209    0.0267 C.ar    1  UNL1       -0.0299
      5 C          -5.0219    0.8867    0.9416 C.3     1  UNL1        0.0372
      6 N          -3.7149    0.5456    0.3674 N.am    1  UNL1       -0.3060
      7 C          -2.5086    0.8614    1.0294 C.2     1  UNL1        0.2628
      8 O          -2.5857    1.4513    2.1327 O.2     1  UNL1       -0.2685
      9 C          -1.2180    0.5143    0.4502 C.ar    1  UNL1        0.1292
     10 C          -0.0317    0.8502    1.0816 C.ar    1  UNL1       -0.0006
     11 C           1.1904    0.5357    0.5338 C.ar    1  UNL1        0.1292
     12 C           2.4227    0.9150    1.2136 C.2     1  UNL1        0.2628
     13 O           2.3717    1.4921    2.3255 O.2     1  UNL1       -0.2685
     14 N           3.7018    0.6495    0.6491 N.am    1  UNL1       -0.3060
     15 C           4.9314    1.0226    1.3119 C.3     1  UNL1        0.0372
     16 C           6.0258    0.1117    0.8221 C.ar    1  UNL1       -0.0299
     17 C           6.2902   -1.1002    1.4107 C.ar    1  UNL1       -0.0543
     18 C           7.3017   -1.9097    0.9576 C.ar    1  UNL1       -0.0259
     19 C           8.0515   -1.4922   -0.0976 C.ar    1  UNL1        0.1263
     20 F           9.0556   -2.2579   -0.5756 F       1  UNL1       -0.2052
     21 C           7.8255   -0.2715   -0.7322 C.ar    1  UNL1       -0.0150
     22 C           8.6652    0.1617   -1.8808 C.3     1  UNL1       -0.0370
     23 C           6.8155    0.4988   -0.2520 C.ar    1  UNL1       -0.0514
     24 N           1.2019   -0.1123   -0.6409 N.ar    1  UNL1       -0.2308
     25 C           0.0521   -0.4522   -1.2779 C.ar    1  UNL1        0.1176
     26 N          -1.1204   -0.1283   -0.7131 N.ar    1  UNL1       -0.2308
     27 C          -6.5902    1.4593   -0.8585 C.ar    1  UNL1       -0.0543
     28 C          -7.6368    1.1525   -1.7381 C.ar    1  UNL1       -0.0259
     29 C          -8.1994   -0.0923   -1.7226 C.ar    1  UNL1        0.1263
     30 F          -9.2229   -0.4239   -2.5666 F       1  UNL1       -0.2052
     31 H          -7.5121   -3.1098   -0.4476 H       1  UNL1        0.0278
     32 H          -9.0890   -2.4004   -0.0127 H       1  UNL1        0.0278
     33 H          -8.6610   -2.6750   -1.7958 H       1  UNL1        0.0278
     34 H          -6.3314   -1.4495    0.7094 H       1  UNL1        0.0624
     35 H          -5.0534    1.9805    1.1543 H       1  UNL1        0.0512
     36 H          -5.1086    0.3904    1.9313 H       1  UNL1        0.0512
     37 H          -3.6590    0.0561   -0.5541 H       1  UNL1        0.1494
     38 H          -0.0330    1.3816    2.0421 H       1  UNL1        0.0663
     39 H           3.7064    0.1625   -0.2845 H       1  UNL1        0.1494
     40 H           4.8993    0.9412    2.4042 H       1  UNL1        0.0512
     41 H           5.2240    2.0750    1.0715 H       1  UNL1        0.0512
     42 H           5.6930   -1.4287    2.2478 H       1  UNL1        0.0622
     43 H           7.4974   -2.8519    1.4214 H       1  UNL1        0.0646
     44 H           8.0902    0.6323   -2.6887 H       1  UNL1        0.0278
     45 H           9.3995    0.9067   -1.5154 H       1  UNL1        0.0278
     46 H           9.1898   -0.7165   -2.2889 H       1  UNL1        0.0278
     47 H           6.6070    1.4503   -0.7159 H       1  UNL1        0.0624
     48 H           0.0758   -0.9732   -2.2206 H       1  UNL1        0.1047
     49 H          -6.1706    2.4463   -0.8947 H       1  UNL1        0.0622
     50 H          -7.9784    1.9303   -2.4196 H       1  UNL1        0.0646
@<TRIPOS>BOND
     1     1     2    1
     2     2     3   ar
     3     3     4   ar
     4     4     5    1
     5     5     6    1
     6     6     7   am
     7     7     8    2
     8     7     9    1
     9     9    10   ar
    10    10    11   ar
    11    11    12    1
    12    12    13    2
    13    12    14   am
    14    14    15    1
    15    15    16    1
    16    16    17   ar
    17    17    18   ar
    18    18    19   ar
    19    19    20    1
    20    19    21   ar
    21    21    22    1
    22    21    23   ar
    23    11    24   ar
    24    24    25   ar
    25    25    26   ar
    26     4    27   ar
    27    27    28   ar
    28    28    29   ar
    29    29    30    1
    30    29     2   ar
    31    26     9   ar
    32    23    16   ar
    33     1    31    1
    34     1    32    1
    35     1    33    1
    36     3    34    1
    37     5    35    1
    38     5    36    1
    39     6    37    1
    40    10    38    1
    41    14    39    1
    42    15    40    1
    43    15    41    1
    44    17    42    1
    45    18    43    1
    46    22    44    1
    47    22    45    1
    48    22    46    1
    49    23    47    1
    50    25    48    1
    51    27    49    1
    52    28    50    1
