
     RDKit          3D

 50 52  0  0  0  0  0  0  0  0999 V2000
   -3.9900    2.4639   -2.5277 O   0  0  0  0  0  0  0  0  0  0  0  0
   -3.8883    2.6426   -1.2791 C   0  0  0  0  0  0  0  0  0  0  0  0
   -4.1142    3.9055   -0.7874 O   0  0  0  0  0  0  0  0  0  0  0  0
   -3.5292    1.4936   -0.3715 C   0  0  0  0  0  0  0  0  0  0  0  0
   -2.0700    1.2683   -0.5408 C   0  0  0  0  0  0  0  0  0  0  0  0
   -1.5031    0.1302    0.2954 C   0  0  0  0  0  0  0  0  0  0  0  0
   -2.1660   -1.1493   -0.0487 C   0  0  0  0  0  0  0  0  0  0  0  0
   -3.3072   -1.5348    0.6672 C   0  0  0  0  0  0  0  0  0  0  0  0
   -3.9812   -2.7114    0.3921 C   0  0  0  0  0  0  0  0  0  0  0  0
   -3.5049   -3.5153   -0.6167 C   0  0  0  0  0  0  0  0  0  0  0  0
   -2.3840   -3.1289   -1.3144 C   0  0  0  0  0  0  0  0  0  0  0  0
   -1.6996   -1.9636   -1.0564 C   0  0  0  0  0  0  0  0  0  0  0  0
   -1.7589    0.4361    1.7534 C   0  0  0  0  0  0  0  0  0  0  0  0
   -1.2424   -0.6651    2.6371 C   0  0  0  0  0  0  0  0  0  0  0  0
    0.2375   -0.7337    2.4934 C   0  0  0  0  0  0  0  0  0  0  0  0
    0.7527   -0.2535    1.2576 N   0  0  0  0  0  0  0  0  0  0  0  0
    2.1968   -0.1377    1.1188 C   0  0  0  0  0  0  0  0  0  0  0  0
    2.8531   -0.4769    2.1188 O   0  0  0  0  0  0  0  0  0  0  0  0
    2.7847    0.3217   -0.0551 N   0  0  0  0  0  0  0  0  0  0  0  0
    4.1875    0.4536   -0.2392 C   0  0  0  0  0  0  0  0  0  0  0  0
    4.6485    0.9141   -1.4884 C   0  0  0  0  0  0  0  0  0  0  0  0
    5.9621    1.0698   -1.7465 C   0  0  0  0  0  0  0  0  0  0  0  0
    6.9234    0.7842   -0.7927 C   0  0  0  0  0  0  0  0  0  0  0  0
    8.6381    0.9728   -1.0874 Cl  0  0  0  0  0  0  0  0  0  0  0  0
    6.4930    0.3339    0.4316 C   0  0  0  0  0  0  0  0  0  0  0  0
    5.1415    0.1752    0.6918 C   0  0  0  0  0  0  0  0  0  0  0  0
   -0.0230    0.1394    0.1041 C   0  0  0  0  0  0  0  0  0  0  0  0
   -4.3174    4.7242   -1.3365 H   0  0  0  0  0  0  0  0  0  0  0  0
   -4.1482    0.6438   -0.7232 H   0  0  0  0  0  0  0  0  0  0  0  0
   -3.7787    1.8308    0.6354 H   0  0  0  0  0  0  0  0  0  0  0  0
   -1.7863    1.1779   -1.6027 H   0  0  0  0  0  0  0  0  0  0  0  0
   -1.5476    2.1968   -0.1631 H   0  0  0  0  0  0  0  0  0  0  0  0
   -3.7079   -0.9392    1.4577 H   0  0  0  0  0  0  0  0  0  0  0  0
   -4.8687   -3.0200    0.9395 H   0  0  0  0  0  0  0  0  0  0  0  0
   -4.0380   -4.4416   -0.8323 H   0  0  0  0  0  0  0  0  0  0  0  0
   -2.0029   -3.7588   -2.1112 H   0  0  0  0  0  0  0  0  0  0  0  0
   -0.8306   -1.7168   -1.6400 H   0  0  0  0  0  0  0  0  0  0  0  0
   -2.7657    0.7601    1.9935 H   0  0  0  0  0  0  0  0  0  0  0  0
   -1.0979    1.3290    1.9855 H   0  0  0  0  0  0  0  0  0  0  0  0
   -1.6563   -1.6542    2.4590 H   0  0  0  0  0  0  0  0  0  0  0  0
   -1.5608   -0.3879    3.6835 H   0  0  0  0  0  0  0  0  0  0  0  0
    0.6125   -1.7732    2.7254 H   0  0  0  0  0  0  0  0  0  0  0  0
    0.6725   -0.0891    3.3150 H   0  0  0  0  0  0  0  0  0  0  0  0
    2.1279    0.5929   -0.8666 H   0  0  0  0  0  0  0  0  0  0  0  0
    3.9148    1.1447   -2.2500 H   0  0  0  0  0  0  0  0  0  0  0  0
    6.3584    1.4246   -2.7067 H   0  0  0  0  0  0  0  0  0  0  0  0
    7.2373    0.0984    1.2112 H   0  0  0  0  0  0  0  0  0  0  0  0
    4.8751   -0.1837    1.6841 H   0  0  0  0  0  0  0  0  0  0  0  0
    0.3641   -0.4092   -0.7508 H   0  0  0  0  0  0  0  0  0  0  0  0
    0.2877    1.2158   -0.0827 H   0  0  0  0  0  0  0  0  0  0  0  0
  1  2  2  0
  2  3  1  0
  2  4  1  0
  4  5  1  0
  5  6  1  0
  6  7  1  0
  7  8  2  0
  8  9  1  0
  9 10  2  0
 10 11  1  0
 11 12  2  0
  6 13  1  0
 13 14  1  0
 14 15  1  0
 15 16  1  0
 16 17  1  0
 17 18  2  0
 17 19  1  0
 19 20  1  0
 20 21  2  0
 21 22  1  0
 22 23  2  0
 23 24  1  0
 23 25  1  0
 25 26  2  0
 16 27  1  0
 27  6  1  0
 12  7  1  0
 26 20  1  0
  3 28  1  0
  4 29  1  0
  4 30  1  0
  5 31  1  0
  5 32  1  0
  8 33  1  0
  9 34  1  0
 10 35  1  0
 11 36  1  0
 12 37  1  0
 13 38  1  0
 13 39  1  0
 14 40  1  0
 14 41  1  0
 15 42  1  0
 15 43  1  0
 19 44  1  0
 21 45  1  0
 22 46  1  0
 25 47  1  0
 26 48  1  0
 27 49  1  0
 27 50  1  0
M  END
$$$$
