@<TRIPOS>MOLECULE
*****
 50 52 0 0 0
SMALL
GASTEIGER

@<TRIPOS>ATOM
      1 O          -3.9900    2.4639   -2.5277 O.2     1  UNL1       -0.2510
      2 C          -3.8883    2.6426   -1.2791 C.2     1  UNL1        0.3047
      3 O          -4.1142    3.9055   -0.7874 O.3     1  UNL1       -0.4806
      4 C          -3.5292    1.4936   -0.3715 C.3     1  UNL1        0.0456
      5 C          -2.0700    1.2683   -0.5408 C.3     1  UNL1       -0.0319
      6 C          -1.5031    0.1302    0.2954 C.3     1  UNL1        0.0121
      7 C          -2.1660   -1.1493   -0.0487 C.ar    1  UNL1       -0.0397
      8 C          -3.3072   -1.5348    0.6672 C.ar    1  UNL1       -0.0580
      9 C          -3.9812   -2.7114    0.3921 C.ar    1  UNL1       -0.0615
     10 C          -3.5049   -3.5153   -0.6167 C.ar    1  UNL1       -0.0617
     11 C          -2.3840   -3.1289   -1.3144 C.ar    1  UNL1       -0.0615
     12 C          -1.6996   -1.9636   -1.0564 C.ar    1  UNL1       -0.0580
     13 C          -1.7589    0.4361    1.7534 C.3     1  UNL1       -0.0405
     14 C          -1.2424   -0.6651    2.6371 C.3     1  UNL1       -0.0362
     15 C           0.2375   -0.7337    2.4934 C.3     1  UNL1        0.0162
     16 N           0.7527   -0.2535    1.2576 N.am    1  UNL1       -0.2845
     17 C           2.1968   -0.1377    1.1188 C.2     1  UNL1        0.3065
     18 O           2.8531   -0.4769    2.1188 O.2     1  UNL1       -0.2523
     19 N           2.7847    0.3217   -0.0551 N.am    1  UNL1       -0.2693
     20 C           4.1875    0.4536   -0.2392 C.ar    1  UNL1        0.0349
     21 C           4.6485    0.9141   -1.4884 C.ar    1  UNL1       -0.0391
     22 C           5.9621    1.0698   -1.7465 C.ar    1  UNL1       -0.0416
     23 C           6.9234    0.7842   -0.7927 C.ar    1  UNL1        0.0411
     24 CL          8.6381    0.9728   -1.0874 Cl      1  UNL1       -0.0835
     25 C           6.4930    0.3339    0.4316 C.ar    1  UNL1       -0.0416
     26 C           5.1415    0.1752    0.6918 C.ar    1  UNL1       -0.0391
     27 C          -0.0230    0.1394    0.1041 C.3     1  UNL1        0.0258
     28 H          -4.3174    4.7242   -1.3365 H       1  UNL1        0.2951
     29 H          -4.1482    0.6438   -0.7232 H       1  UNL1        0.0378
     30 H          -3.7787    1.8308    0.6354 H       1  UNL1        0.0378
     31 H          -1.7863    1.1779   -1.6027 H       1  UNL1        0.0279
     32 H          -1.5476    2.1968   -0.1631 H       1  UNL1        0.0279
     33 H          -3.7079   -0.9392    1.4577 H       1  UNL1        0.0620
     34 H          -4.8687   -3.0200    0.9395 H       1  UNL1        0.0618
     35 H          -4.0380   -4.4416   -0.8323 H       1  UNL1        0.0618
     36 H          -2.0029   -3.7588   -2.1112 H       1  UNL1        0.0618
     37 H          -0.8306   -1.7168   -1.6400 H       1  UNL1        0.0620
     38 H          -2.7657    0.7601    1.9935 H       1  UNL1        0.0275
     39 H          -1.0979    1.3290    1.9855 H       1  UNL1        0.0275
     40 H          -1.6563   -1.6542    2.4590 H       1  UNL1        0.0281
     41 H          -1.5608   -0.3879    3.6835 H       1  UNL1        0.0281
     42 H           0.6125   -1.7732    2.7254 H       1  UNL1        0.0465
     43 H           0.6725   -0.0891    3.3150 H       1  UNL1        0.0465
     44 H           2.1279    0.5929   -0.8666 H       1  UNL1        0.1564
     45 H           3.9148    1.1447   -2.2500 H       1  UNL1        0.0636
     46 H           6.3584    1.4246   -2.7067 H       1  UNL1        0.0633
     47 H           7.2373    0.0984    1.2112 H       1  UNL1        0.0633
     48 H           4.8751   -0.1837    1.6841 H       1  UNL1        0.0636
     49 H           0.3641   -0.4092   -0.7508 H       1  UNL1        0.0474
     50 H           0.2877    1.2158   -0.0827 H       1  UNL1        0.0474
@<TRIPOS>BOND
     1     1     2    2
     2     2     3    1
     3     2     4    1
     4     4     5    1
     5     5     6    1
     6     6     7    1
     7     7     8   ar
     8     8     9   ar
     9     9    10   ar
    10    10    11   ar
    11    11    12   ar
    12     6    13    1
    13    13    14    1
    14    14    15    1
    15    15    16    1
    16    16    17   am
    17    17    18    2
    18    17    19   am
    19    19    20    1
    20    20    21   ar
    21    21    22   ar
    22    22    23   ar
    23    23    24    1
    24    23    25   ar
    25    25    26   ar
    26    16    27    1
    27    27     6    1
    28    12     7   ar
    29    26    20   ar
    30     3    28    1
    31     4    29    1
    32     4    30    1
    33     5    31    1
    34     5    32    1
    35     8    33    1
    36     9    34    1
    37    10    35    1
    38    11    36    1
    39    12    37    1
    40    13    38    1
    41    13    39    1
    42    14    40    1
    43    14    41    1
    44    15    42    1
    45    15    43    1
    46    19    44    1
    47    21    45    1
    48    22    46    1
    49    25    47    1
    50    26    48    1
    51    27    49    1
    52    27    50    1
