
     RDKit          3D

 29 30  0  0  0  0  0  0  0  0999 V2000
   -2.5851    1.5037    1.7448 O   0  0  0  0  0  0  0  0  0  0  0  0
   -3.1382    0.8505    0.6350 C   0  0  0  0  0  0  0  0  0  0  0  0
   -2.2521    0.1493   -0.1623 C   0  0  0  0  0  0  0  0  0  0  0  0
   -2.7747   -0.5015   -1.2604 C   0  0  0  0  0  0  0  0  0  0  0  0
   -4.1203   -0.4730   -1.5767 C   0  0  0  0  0  0  0  0  0  0  0  0
   -4.7466   -1.3038   -2.9676 Cl  0  0  0  0  0  0  0  0  0  0  0  0
   -4.9710    0.2380   -0.7556 C   0  0  0  0  0  0  0  0  0  0  0  0
   -4.4862    0.9093    0.3627 C   0  0  0  0  0  0  0  0  0  0  0  0
   -0.8286    0.1053    0.1520 C   0  0  0  0  0  0  0  0  0  0  0  0
   -0.4135    0.7159    1.1622 O   0  0  0  0  0  0  0  0  0  0  0  0
    0.1451   -0.5875   -0.6096 N   0  0  0  0  0  0  0  0  0  0  0  0
    1.5113   -0.5567   -0.2005 C   0  0  0  0  0  0  0  0  0  0  0  0
    2.1813   -1.4163    0.6437 C   0  0  0  0  0  0  0  0  0  0  0  0
    1.1958   -2.7092    1.2834 Cl  0  0  0  0  0  0  0  0  0  0  0  0
    3.5177   -1.2013    0.9078 C   0  0  0  0  0  0  0  0  0  0  0  0
    4.1886   -0.1347    0.3350 C   0  0  0  0  0  0  0  0  0  0  0  0
    3.5279    0.7290   -0.5092 C   0  0  0  0  0  0  0  0  0  0  0  0
    2.1778    0.5209   -0.7827 C   0  0  0  0  0  0  0  0  0  0  0  0
    5.5767    0.0226    0.6580 N   0  0  0  0  0  4  0  0  0  0  0  0
    6.2712   -0.8217    1.4986 O   0  0  0  0  0  1  0  0  0  0  0  0
    6.1777    0.9843    0.1403 O   0  0  0  0  0  0  0  0  0  0  0  0
   -2.4684    2.5231    1.7182 H   0  0  0  0  0  0  0  0  0  0  0  0
   -2.1449   -1.0697   -1.9299 H   0  0  0  0  0  0  0  0  0  0  0  0
   -6.0335    0.2709   -0.9901 H   0  0  0  0  0  0  0  0  0  0  0  0
   -5.1363    1.4783    1.0281 H   0  0  0  0  0  0  0  0  0  0  0  0
   -0.1621   -1.1036   -1.4519 H   0  0  0  0  0  0  0  0  0  0  0  0
    3.9485   -1.9332    1.5824 H   0  0  0  0  0  0  0  0  0  0  0  0
    4.0841    1.5587   -0.9439 H   0  0  0  0  0  0  0  0  0  0  0  0
    1.7580    1.2524   -1.4535 H   0  0  0  0  0  0  0  0  0  0  0  0
  1  2  1  0
  2  3  2  0
  3  4  1  0
  4  5  2  0
  5  6  1  0
  5  7  1  0
  7  8  2  0
  3  9  1  0
  9 10  2  0
  9 11  1  0
 11 12  1  0
 12 13  2  0
 13 14  1  0
 13 15  1  0
 15 16  2  0
 16 17  1  0
 17 18  2  0
 16 19  1  0
 19 20  1  0
 19 21  2  0
  8  2  1  0
 18 12  1  0
  1 22  1  0
  4 23  1  0
  7 24  1  0
  8 25  1  0
 11 26  1  0
 15 27  1  0
 17 28  1  0
 18 29  1  0
M  CHG  2  19   1  20  -1
M  END
$$$$
