@<TRIPOS>MOLECULE
*****
 29 30 0 0 0
SMALL
GASTEIGER

@<TRIPOS>ATOM
      1 O          -2.5851    1.5037    1.7448 O.3     1  UNL1       -0.5060
      2 C          -3.1382    0.8505    0.6350 C.ar    1  UNL1        0.1290
      3 C          -2.2521    0.1493   -0.1623 C.ar    1  UNL1        0.0797
      4 C          -2.7747   -0.5015   -1.2604 C.ar    1  UNL1       -0.0277
      5 C          -4.1203   -0.4730   -1.5767 C.ar    1  UNL1        0.0419
      6 CL         -4.7466   -1.3038   -2.9676 Cl      1  UNL1       -0.0835
      7 C          -4.9710    0.2380   -0.7556 C.ar    1  UNL1       -0.0399
      8 C          -4.4862    0.9093    0.3627 C.ar    1  UNL1       -0.0180
      9 C          -0.8286    0.1053    0.1520 C.2     1  UNL1        0.2519
     10 O          -0.4135    0.7159    1.1622 O.2     1  UNL1       -0.2697
     11 N           0.1451   -0.5875   -0.6096 N.am    1  UNL1       -0.2802
     12 C           1.5113   -0.5567   -0.2005 C.ar    1  UNL1        0.0525
     13 C           2.1813   -1.4163    0.6437 C.ar    1  UNL1        0.0685
     14 CL          1.1958   -2.7092    1.2834 Cl      1  UNL1       -0.0814
     15 C           3.5177   -1.2013    0.9078 C.ar    1  UNL1        0.0357
     16 C           4.1886   -0.1347    0.3350 C.ar    1  UNL1        0.2747
     17 C           3.5279    0.7290   -0.5092 C.ar    1  UNL1        0.0174
     18 C           2.1778    0.5209   -0.7827 C.ar    1  UNL1       -0.0326
     19 N           5.5767    0.0226    0.6580 N.pl3   1  UNL1        0.0796
     20 O           6.2712   -0.8217    1.4986 O.co2   1  UNL1       -0.5760
     21 O           6.1777    0.9843    0.1403 O.2     1  UNL1        0.0414
     22 H          -2.4684    2.5231    1.7182 H       1  UNL1        0.2922
     23 H          -2.1449   -1.0697   -1.9299 H       1  UNL1        0.0641
     24 H          -6.0335    0.2709   -0.9901 H       1  UNL1        0.0633
     25 H          -5.1363    1.4783    1.0281 H       1  UNL1        0.0655
     26 H          -0.1621   -1.1036   -1.4519 H       1  UNL1        0.1552
     27 H           3.9485   -1.9332    1.5824 H       1  UNL1        0.0701
     28 H           4.0841    1.5587   -0.9439 H       1  UNL1        0.0686
     29 H           1.7580    1.2524   -1.4535 H       1  UNL1        0.0639
@<TRIPOS>UNITY_ATOM_ATTR
19 1
charge 1
20 1
charge -1
@<TRIPOS>BOND
     1     1     2    1
     2     2     3   ar
     3     3     4   ar
     4     4     5   ar
     5     5     6    1
     6     5     7   ar
     7     7     8   ar
     8     3     9    1
     9     9    10    2
    10     9    11   am
    11    11    12    1
    12    12    13   ar
    13    13    14    1
    14    13    15   ar
    15    15    16   ar
    16    16    17   ar
    17    17    18   ar
    18    16    19    1
    19    19    20    1
    20    19    21    2
    21     8     2   ar
    22    18    12   ar
    23     1    22    1
    24     4    23    1
    25     7    24    1
    26     8    25    1
    27    11    26    1
    28    15    27    1
    29    17    28    1
    30    18    29    1
