@<TRIPOS>MOLECULE
*****
 86 91 0 0 0
SMALL
GASTEIGER

@<TRIPOS>ATOM
      1 C          10.1778   -0.5690   -0.4546 C.3     1  UNL1        0.0790
      2 O           8.9437   -1.0892   -0.8967 O.3     1  UNL1       -0.4914
      3 C           7.7842   -0.4099   -0.6311 C.ar    1  UNL1        0.1618
      4 C           7.8215    0.7847    0.0666 C.ar    1  UNL1       -0.0128
      5 C           6.6316    1.4253    0.3071 C.ar    1  UNL1       -0.0381
      6 C           5.4453    0.8866   -0.1362 C.ar    1  UNL1       -0.0265
      7 C           5.4292   -0.2888   -0.8206 C.ar    1  UNL1       -0.0116
      8 C           6.6004   -0.9635   -1.0832 C.ar    1  UNL1        0.1618
      9 O           6.6163   -2.1519   -1.7716 O.3     1  UNL1       -0.4914
     10 C           5.4592   -2.7716   -2.2623 C.3     1  UNL1        0.0790
     11 C           4.1953    1.6698    0.1939 C.3     1  UNL1        0.0244
     12 N           4.4266    3.0074   -0.1369 N.3     1  UNL1       -0.2975
     13 C           3.5155    3.7279   -0.9208 C.3     1  UNL1        0.0032
     14 C           2.1924    4.0706   -0.3301 C.3     1  UNL1       -0.0149
     15 C           1.3423    2.9622    0.0865 C.ar    1  UNL1       -0.0460
     16 C           0.4371    2.3323   -0.7311 C.ar    1  UNL1       -0.0568
     17 C          -0.3724    1.2774   -0.2862 C.ar    1  UNL1       -0.0402
     18 C          -0.2907    0.8272    1.0003 C.ar    1  UNL1        0.0337
     19 N          -1.0637   -0.2114    1.5713 N.am    1  UNL1       -0.2815
     20 C          -2.1494   -0.8992    0.9907 C.2     1  UNL1        0.2502
     21 O          -2.5052   -0.5743   -0.1608 O.2     1  UNL1       -0.2698
     22 C          -2.8556   -1.9780    1.7170 C.ar    1  UNL1        0.0619
     23 C          -2.4474   -2.4421    2.9493 C.ar    1  UNL1       -0.0024
     24 C          -3.1167   -3.4772    3.6106 C.ar    1  UNL1        0.1623
     25 O          -2.6843   -3.9267    4.8529 O.3     1  UNL1       -0.4914
     26 C          -1.5347   -3.3146    5.4575 C.3     1  UNL1        0.0790
     27 C          -4.2074   -4.0159    2.9737 C.ar    1  UNL1        0.1633
     28 O          -4.8741   -5.0530    3.6405 O.3     1  UNL1       -0.4914
     29 C          -5.9956   -5.6562    3.0570 C.3     1  UNL1        0.0790
     30 C          -4.6148   -3.5510    1.7417 C.ar    1  UNL1        0.0057
     31 C          -3.9542   -2.5271    1.0865 C.ar    1  UNL1        0.0495
     32 N          -4.3837   -2.0388   -0.1802 N.am    1  UNL1       -0.2807
     33 C          -5.3064   -0.9629   -0.2273 C.2     1  UNL1        0.2498
     34 O          -5.6820   -0.5047    0.9090 O.2     1  UNL1       -0.2698
     35 C          -5.8300   -0.3744   -1.4609 C.ar    1  UNL1        0.0557
     36 C          -5.4735   -0.8637   -2.6957 C.ar    1  UNL1        0.0404
     37 N          -5.9778   -0.3022   -3.8371 N.ar    1  UNL1       -0.2542
     38 C          -6.8270    0.7305   -3.8328 C.ar    1  UNL1        0.0710
     39 C          -7.3235    1.2837   -5.0076 C.ar    1  UNL1       -0.0357
     40 C          -8.2039    2.3572   -5.0036 C.ar    1  UNL1       -0.0597
     41 C          -8.5642    2.8508   -3.7704 C.ar    1  UNL1       -0.0611
     42 C          -8.0760    2.3076   -2.6032 C.ar    1  UNL1       -0.0525
     43 C          -7.2035    1.2444   -2.5991 C.ar    1  UNL1        0.0011
     44 C          -6.7045    0.6897   -1.4400 C.ar    1  UNL1       -0.0390
     45 C           0.6310    1.4633    1.8449 C.ar    1  UNL1       -0.0402
     46 C           1.4091    2.4922    1.3823 C.ar    1  UNL1       -0.0568
     47 C           5.6010    3.6479    0.3044 C.3     1  UNL1        0.0032
     48 C           6.5487    2.7249    1.0454 C.3     1  UNL1       -0.0144
     49 H          10.4365    0.3914   -0.9291 H       1  UNL1        0.0660
     50 H          10.1545   -0.3769    0.6488 H       1  UNL1        0.0660
     51 H          11.0060   -1.2693   -0.6534 H       1  UNL1        0.0660
     52 H           8.7259    1.2311    0.4256 H       1  UNL1        0.0658
     53 H           4.4886   -0.6985   -1.1625 H       1  UNL1        0.0658
     54 H           4.8145   -1.9789   -2.7196 H       1  UNL1        0.0660
     55 H           5.7362   -3.4802   -3.0769 H       1  UNL1        0.0660
     56 H           4.9448   -3.2978   -1.4487 H       1  UNL1        0.0660
     57 H           4.0935    1.5673    1.3044 H       1  UNL1        0.0476
     58 H           3.3390    1.2796   -0.3740 H       1  UNL1        0.0476
     59 H           4.0136    4.7218   -1.1741 H       1  UNL1        0.0430
     60 H           3.4152    3.2148   -1.9136 H       1  UNL1        0.0430
     61 H           2.3486    4.7486    0.5506 H       1  UNL1        0.0326
     62 H           1.5796    4.7045   -1.0330 H       1  UNL1        0.0326
     63 H           0.3274    2.6427   -1.7563 H       1  UNL1        0.0621
     64 H          -1.0541    0.8259   -0.9731 H       1  UNL1        0.0636
     65 H          -0.8021   -0.5194    2.5563 H       1  UNL1        0.1551
     66 H          -1.6035   -2.0365    3.4550 H       1  UNL1        0.0663
     67 H          -1.7823   -2.2454    5.6438 H       1  UNL1        0.0660
     68 H          -0.6701   -3.3210    4.7819 H       1  UNL1        0.0660
     69 H          -1.3320   -3.7624    6.4488 H       1  UNL1        0.0660
     70 H          -6.8802   -5.0169    3.0053 H       1  UNL1        0.0660
     71 H          -6.2662   -6.5245    3.7003 H       1  UNL1        0.0660
     72 H          -5.6610   -6.0410    2.0557 H       1  UNL1        0.0660
     73 H          -5.4808   -3.9838    1.2448 H       1  UNL1        0.0674
     74 H          -4.0353   -2.4564   -1.0656 H       1  UNL1        0.1552
     75 H          -4.7887   -1.6990   -2.7535 H       1  UNL1        0.0837
     76 H          -7.0170    0.8657   -5.9607 H       1  UNL1        0.0639
     77 H          -8.5742    2.7662   -5.9404 H       1  UNL1        0.0618
     78 H          -9.2600    3.7010   -3.7039 H       1  UNL1        0.0618
     79 H          -8.3648    2.7032   -1.6174 H       1  UNL1        0.0624
     80 H          -7.0118    1.1063   -0.4687 H       1  UNL1        0.0632
     81 H           0.7206    1.1361    2.8579 H       1  UNL1        0.0636
     82 H           2.1059    2.9491    2.0778 H       1  UNL1        0.0621
     83 H           6.1689    4.0233   -0.5876 H       1  UNL1        0.0430
     84 H           5.4409    4.5393    0.9524 H       1  UNL1        0.0430
     85 H           6.1789    2.5670    2.0809 H       1  UNL1        0.0326
     86 H           7.5593    3.1761    1.0287 H       1  UNL1        0.0326
@<TRIPOS>BOND
     1     1     2    1
     2     2     3    1
     3     3     4   ar
     4     4     5   ar
     5     5     6   ar
     6     6     7   ar
     7     7     8   ar
     8     8     9    1
     9     9    10    1
    10     6    11    1
    11    11    12    1
    12    12    13    1
    13    13    14    1
    14    14    15    1
    15    15    16   ar
    16    16    17   ar
    17    17    18   ar
    18    18    19    1
    19    19    20   am
    20    20    21    2
    21    20    22    1
    22    22    23   ar
    23    23    24   ar
    24    24    25    1
    25    25    26    1
    26    24    27   ar
    27    27    28    1
    28    28    29    1
    29    27    30   ar
    30    30    31   ar
    31    31    32    1
    32    32    33   am
    33    33    34    2
    34    33    35    1
    35    35    36   ar
    36    36    37   ar
    37    37    38   ar
    38    38    39   ar
    39    39    40   ar
    40    40    41   ar
    41    41    42   ar
    42    42    43   ar
    43    43    44   ar
    44    18    45   ar
    45    45    46   ar
    46    12    47    1
    47    47    48    1
    48     8     3   ar
    49    46    15   ar
    50    48     5    1
    51    31    22   ar
    52    44    35   ar
    53    43    38   ar
    54     1    49    1
    55     1    50    1
    56     1    51    1
    57     4    52    1
    58     7    53    1
    59    10    54    1
    60    10    55    1
    61    10    56    1
    62    11    57    1
    63    11    58    1
    64    13    59    1
    65    13    60    1
    66    14    61    1
    67    14    62    1
    68    16    63    1
    69    17    64    1
    70    19    65    1
    71    23    66    1
    72    26    67    1
    73    26    68    1
    74    26    69    1
    75    29    70    1
    76    29    71    1
    77    29    72    1
    78    30    73    1
    79    32    74    1
    80    36    75    1
    81    39    76    1
    82    40    77    1
    83    41    78    1
    84    42    79    1
    85    44    80    1
    86    45    81    1
    87    46    82    1
    88    47    83    1
    89    47    84    1
    90    48    85    1
    91    48    86    1
