@<TRIPOS>MOLECULE
*****
 32 34 0 0 0
SMALL
GASTEIGER

@<TRIPOS>ATOM
      1 N6          5.3520    0.0927   -1.1628 N.pl3   1    A1       -0.3413
      2 C6          4.2170    0.6348   -0.4812 C.ar    1    A1        0.1472
      3 N1          4.3008    1.7417    0.3072 N.ar    1    A1       -0.2188
      4 C2          3.1899    2.2201    0.9362 C.ar    1    A1        0.1205
      5 N3          2.0166    1.6027    0.7795 N.ar    1    A1       -0.2159
      6 C4          1.8582    0.4976    0.0111 C.ar    1    A1        0.1674
      7 C5          2.9854    0.0416   -0.6056 C.ar    1    A1        0.1473
      8 N7          2.5897   -1.0512   -1.3053 N.ar    1    A1       -0.2306
      9 C8          1.2665   -1.2442   -1.1139 C.ar    1    A1        0.1004
     10 N9          0.8035   -0.3031   -0.3094 N.ar    1    A1       -0.2855
     11 C1*        -0.4949   -0.0517    0.2008 C.3     1    A1        0.1667
     12 O4*        -1.2983   -1.1837    0.3534 O.3     1    A1       -0.3457
     13 C4*        -2.5257   -0.6904    0.7102 C.3     1    A1        0.1126
     14 C5*        -3.6636   -1.5904    0.2333 C.3     1    A1        0.0730
     15 O5*        -3.6808   -1.7359   -1.1412 O.3     1    A1       -0.3924
     16 C3*        -2.6921    0.6599    0.0769 C.3     1    A1        0.1135
     17 O3*        -2.6929    1.6372    1.0680 O.3     1    A1       -0.3864
     18 C2*        -1.3781    0.8054   -0.6825 C.3     1    A1        0.1285
     19 O2*        -1.5742    0.2508   -1.9248 O.3     1    A1       -0.3847
     20 H61         6.0218    0.3738   -1.9076 H       1    A1        0.1438
     21 H62         5.5222   -0.8583   -0.7692 H       1    A1        0.1438
     22 H2          3.2816    3.1023    1.5583 H       1    A1        0.1048
     23 H8          0.6898   -2.0454   -1.5549 H       1    A1        0.1030
     24 H1*        -0.4666    0.4249    1.2014 H       1    A1        0.0866
     25 H4*        -2.5792   -0.6640    1.8130 H       1    A1        0.0647
     26 H5*1       -4.6394   -1.1676    0.5462 H       1    A1        0.0584
     27 H5*2       -3.5756   -2.6000    0.6937 H       1    A1        0.0584
     28 H5*        -4.5957   -2.0517   -1.3890 H       1    A1        0.2095
     29 H3*        -3.5608    0.7200   -0.6039 H       1    A1        0.0647
     30 H3*        -2.3791    1.2609    1.9450 H       1    A1        0.2100
     31 H2*        -1.0413    1.8573   -0.7131 H       1    A1        0.0665
     32 H2*        -1.2567   -0.6858   -1.9049 H       1    A1        0.2101
@<TRIPOS>BOND
     1     1     2    1
     2     2     3   ar
     3     3     4   ar
     4     4     5   ar
     5     5     6   ar
     6     6     7   ar
     7     7     8   ar
     8     8     9   ar
     9     9    10   ar
    10    10    11    1
    11    11    12    1
    12    12    13    1
    13    13    14    1
    14    14    15    1
    15    13    16    1
    16    16    17    1
    17    16    18    1
    18    18    19    1
    19     7     2   ar
    20    18    11    1
    21    10     6   ar
    22     1    20    1
    23     1    21    1
    24     4    22    1
    25     9    23    1
    26    11    24    1
    27    13    25    1
    28    14    26    1
    29    14    27    1
    30    15    28    1
    31    16    29    1
    32    17    30    1
    33    18    31    1
    34    19    32    1
