
     RDKit          3D

 34 34  0  0  0  0  0  0  0  0999 V2000
   -1.0167   -0.7466   -2.6186 O   0  0  0  0  0  0  0  0  0  0  0  0
   -0.7340   -1.1461   -1.3216 C   0  0  1  0  0  0  0  0  0  0  0  0
    0.7458   -1.3929   -1.1068 C   0  0  2  0  0  0  0  0  0  0  0  0
    1.1189   -2.6749   -1.4773 O   0  0  0  0  0  0  0  0  0  0  0  0
    0.8426   -1.1686    0.3978 C   0  0  1  0  0  0  0  0  0  0  0  0
    1.0928   -2.3903    1.0248 O   0  0  0  0  0  0  0  0  0  0  0  0
    1.9592   -0.1699    0.7084 C   0  0  0  0  0  0  0  0  0  0  0  0
    3.1989   -0.6072    0.2790 O   0  0  0  0  0  0  0  0  0  0  0  0
    4.4073    0.5368    0.6459 P   0  0  0  0  0  0  0  0  0  0  0  0
    3.7200    2.0947    0.7040 O   0  0  0  0  0  0  0  0  0  0  0  0
    5.5964    0.4371   -0.5329 O   0  0  0  0  0  0  0  0  0  0  0  0
    5.0067    0.1729    1.9834 O   0  0  0  0  0  0  0  0  0  0  0  0
   -0.3420   -0.6160    0.8027 O   0  0  0  0  0  0  0  0  0  0  0  0
   -0.9346   -0.0281   -0.3137 C   0  0  2  0  0  0  0  0  0  0  0  0
   -2.3904    0.2691   -0.0899 C   0  0  0  0  0  0  0  0  0  0  0  0
   -2.5473    1.1300    0.9657 O   0  0  0  0  0  0  0  0  0  0  0  0
   -4.1316    1.5413    1.3178 P   0  0  0  0  0  0  0  0  0  0  0  0
   -5.2554    0.4169    0.7301 O   0  0  0  0  0  0  0  0  0  0  0  0
   -4.5350    3.1056    0.7697 O   0  0  0  0  0  0  0  0  0  0  0  0
   -4.2367    1.5635    2.8429 O   0  0  0  0  0  0  0  0  0  0  0  0
   -1.4503   -1.5154   -3.0798 H   0  0  0  0  0  0  0  0  0  0  0  0
   -1.3535   -1.9994   -0.9899 H   0  0  0  0  0  0  0  0  0  0  0  0
    1.2743   -0.5985   -1.6536 H   0  0  0  0  0  0  0  0  0  0  0  0
    0.3564   -3.2573   -1.7457 H   0  0  0  0  0  0  0  0  0  0  0  0
    1.7368   -2.9515    0.5388 H   0  0  0  0  0  0  0  0  0  0  0  0
    1.9888   -0.1151    1.8264 H   0  0  0  0  0  0  0  0  0  0  0  0
    1.6533    0.7850    0.2769 H   0  0  0  0  0  0  0  0  0  0  0  0
    4.2113    2.6686    1.3389 H   0  0  0  0  0  0  0  0  0  0  0  0
    5.5776    1.2354   -1.1515 H   0  0  0  0  0  0  0  0  0  0  0  0
   -0.3526    0.8692   -0.5865 H   0  0  0  0  0  0  0  0  0  0  0  0
   -2.7340    0.8141   -1.0149 H   0  0  0  0  0  0  0  0  0  0  0  0
   -2.9968   -0.6481   -0.0573 H   0  0  0  0  0  0  0  0  0  0  0  0
   -5.7843    0.7763   -0.0058 H   0  0  0  0  0  0  0  0  0  0  0  0
   -3.6920    3.6095    0.5925 H   0  0  0  0  0  0  0  0  0  0  0  0
  1  2  1  0
  2  3  1  0
  3  4  1  0
  3  5  1  0
  5  6  1  1
  5  7  1  0
  7  8  1  0
  8  9  1  0
  9 10  1  0
  9 11  1  0
  9 12  2  0
  5 13  1  0
 13 14  1  0
 14 15  1  0
 15 16  1  0
 16 17  1  0
 17 18  1  0
 17 19  1  0
 17 20  2  0
 14  2  1  0
  1 21  1  0
  2 22  1  1
  3 23  1  6
  4 24  1  0
  6 25  1  0
  7 26  1  0
  7 27  1  0
 10 28  1  0
 11 29  1  0
 14 30  1  6
 15 31  1  0
 15 32  1  0
 18 33  1  0
 19 34  1  0
M  END
$$$$
