
     RDKit          3D

 39 40  0  0  0  0  0  0  0  0999 V2000
   -4.0686   -0.0335    1.0033 C   0  0  0  0  0  0  0  0  0  0  0  0
   -3.6861   -0.7489   -0.2464 C   0  0  1  0  0  0  0  0  0  0  0  0
   -4.6607   -0.4214   -1.2703 N   0  0  0  0  0  0  0  0  0  0  0  0
   -2.2764   -0.5165   -0.7117 C   0  0  1  0  0  0  0  0  0  0  0  0
   -1.9493    0.9044   -1.0085 C   0  0  0  0  0  0  0  0  0  0  0  0
   -0.4692    1.2090   -0.7822 C   0  0  0  0  0  0  0  0  0  0  0  0
   -0.1036    0.9456    0.6756 C   0  0  2  0  0  0  0  0  0  0  0  0
    1.4016    0.9753    0.7106 C   0  0  0  0  0  0  0  0  0  0  0  0
    1.9075    1.8365    1.4635 O   0  0  0  0  0  0  0  0  0  0  0  0
    2.1527    0.0749   -0.0686 N   0  0  0  0  0  0  0  0  0  0  0  0
    3.5523    0.0335   -0.0961 C   0  0  0  0  0  0  0  0  0  0  0  0
    4.3719    0.8508    0.6204 C   0  0  0  0  0  0  0  0  0  0  0  0
    5.7581    0.7098    0.5061 C   0  0  0  0  0  0  0  0  0  0  0  0
    6.3479   -0.1971   -0.2796 N   0  0  0  0  0  0  0  0  0  0  0  0
    5.5684   -1.0145   -0.9958 C   0  0  0  0  0  0  0  0  0  0  0  0
    4.2049   -0.9025   -0.9067 C   0  0  0  0  0  0  0  0  0  0  0  0
   -0.6624   -0.3165    1.2155 C   0  0  0  0  0  0  0  0  0  0  0  0
   -1.2549   -1.2005    0.1633 C   0  0  0  0  0  0  0  0  0  0  0  0
   -5.1625    0.1450    1.0896 H   0  0  0  0  0  0  0  0  0  0  0  0
   -3.8045   -0.6811    1.8655 H   0  0  0  0  0  0  0  0  0  0  0  0
   -3.4992    0.9263    1.1716 H   0  0  0  0  0  0  0  0  0  0  0  0
   -3.8181   -1.8500   -0.0579 H   0  0  0  0  0  0  0  0  0  0  0  0
   -5.5860   -0.3357   -0.7910 H   0  0  0  0  0  0  0  0  0  0  0  0
   -4.7427   -1.2160   -1.9447 H   0  0  0  0  0  0  0  0  0  0  0  0
   -2.2084   -1.0614   -1.7057 H   0  0  0  0  0  0  0  0  0  0  0  0
   -2.1210    1.1582   -2.0966 H   0  0  0  0  0  0  0  0  0  0  0  0
   -2.5174    1.6596   -0.4485 H   0  0  0  0  0  0  0  0  0  0  0  0
   -0.3498    2.2973   -0.9535 H   0  0  0  0  0  0  0  0  0  0  0  0
    0.1760    0.6709   -1.4795 H   0  0  0  0  0  0  0  0  0  0  0  0
   -0.4723    1.8111    1.2543 H   0  0  0  0  0  0  0  0  0  0  0  0
    1.6103   -0.6139   -0.6717 H   0  0  0  0  0  0  0  0  0  0  0  0
    4.0344    1.6214    1.2889 H   0  0  0  0  0  0  0  0  0  0  0  0
    6.4061    1.3640    1.0795 H   0  0  0  0  0  0  0  0  0  0  0  0
    6.0709   -1.7336   -1.6186 H   0  0  0  0  0  0  0  0  0  0  0  0
    3.5892   -1.5844   -1.5040 H   0  0  0  0  0  0  0  0  0  0  0  0
    0.0593   -0.9231    1.7989 H   0  0  0  0  0  0  0  0  0  0  0  0
   -1.4831   -0.0910    1.9581 H   0  0  0  0  0  0  0  0  0  0  0  0
   -0.4889   -1.7479   -0.4261 H   0  0  0  0  0  0  0  0  0  0  0  0
   -1.8265   -2.0043    0.7159 H   0  0  0  0  0  0  0  0  0  0  0  0
  1  2  1  0
  2  3  1  0
  2  4  1  0
  4  5  1  0
  5  6  1  0
  6  7  1  0
  7  8  1  0
  8  9  2  0
  8 10  1  0
 10 11  1  0
 11 12  2  0
 12 13  1  0
 13 14  2  0
 14 15  1  0
 15 16  2  0
  7 17  1  0
 17 18  1  0
 18  4  1  0
 16 11  1  0
  1 19  1  0
  1 20  1  0
  1 21  1  0
  2 22  1  1
  3 23  1  0
  3 24  1  0
  4 25  1  6
  5 26  1  0
  5 27  1  0
  6 28  1  0
  6 29  1  0
  7 30  1  1
 10 31  1  0
 12 32  1  0
 13 33  1  0
 15 34  1  0
 16 35  1  0
 17 36  1  0
 17 37  1  0
 18 38  1  0
 18 39  1  0
M  END
$$$$
