@<TRIPOS>MOLECULE
*****
 39 40 0 0 0
SMALL
GASTEIGER

@<TRIPOS>ATOM
      1 C          -4.0686   -0.0335    1.0033 C.3     1  UNL1       -0.0496
      2 C          -3.6861   -0.7489   -0.2464 C.3     1  UNL1        0.0048
      3 N          -4.6607   -0.4214   -1.2703 N.3     1  UNL1       -0.3272
      4 C          -2.2764   -0.5165   -0.7117 C.3     1  UNL1       -0.0260
      5 C          -1.9493    0.9044   -1.0085 C.3     1  UNL1       -0.0481
      6 C          -0.4692    1.2090   -0.7822 C.3     1  UNL1       -0.0416
      7 C          -0.1036    0.9456    0.6756 C.3     1  UNL1        0.0359
      8 C           1.4016    0.9753    0.7106 C.2     1  UNL1        0.2203
      9 O           1.9075    1.8365    1.4635 O.2     1  UNL1       -0.2752
     10 N           2.1527    0.0749   -0.0686 N.am    1  UNL1       -0.2852
     11 C           3.5523    0.0335   -0.0961 C.ar    1  UNL1        0.0363
     12 C           4.3719    0.8508    0.6204 C.ar    1  UNL1       -0.0223
     13 C           5.7581    0.7098    0.5061 C.ar    1  UNL1        0.0293
     14 N           6.3479   -0.1971   -0.2796 N.ar    1  UNL1       -0.2631
     15 C           5.5684   -1.0145   -0.9958 C.ar    1  UNL1        0.0293
     16 C           4.2049   -0.9025   -0.9067 C.ar    1  UNL1       -0.0223
     17 C          -0.6624   -0.3165    1.2155 C.3     1  UNL1       -0.0416
     18 C          -1.2549   -1.2005    0.1633 C.3     1  UNL1       -0.0481
     19 H          -5.1625    0.1450    1.0896 H       1  UNL1        0.0245
     20 H          -3.8045   -0.6811    1.8655 H       1  UNL1        0.0245
     21 H          -3.4992    0.9263    1.1716 H       1  UNL1        0.0245
     22 H          -3.8181   -1.8500   -0.0579 H       1  UNL1        0.0458
     23 H          -5.5860   -0.3357   -0.7910 H       1  UNL1        0.1185
     24 H          -4.7427   -1.2160   -1.9447 H       1  UNL1        0.1185
     25 H          -2.2084   -1.0614   -1.7057 H       1  UNL1        0.0316
     26 H          -2.1210    1.1582   -2.0966 H       1  UNL1        0.0269
     27 H          -2.5174    1.6596   -0.4485 H       1  UNL1        0.0269
     28 H          -0.3498    2.2973   -0.9535 H       1  UNL1        0.0273
     29 H           0.1760    0.6709   -1.4795 H       1  UNL1        0.0273
     30 H          -0.4723    1.8111    1.2543 H       1  UNL1        0.0394
     31 H           1.6103   -0.6139   -0.6717 H       1  UNL1        0.1548
     32 H           4.0344    1.6214    1.2889 H       1  UNL1        0.0651
     33 H           6.4061    1.3640    1.0795 H       1  UNL1        0.0830
     34 H           6.0709   -1.7336   -1.6186 H       1  UNL1        0.0830
     35 H           3.5892   -1.5844   -1.5040 H       1  UNL1        0.0651
     36 H           0.0593   -0.9231    1.7989 H       1  UNL1        0.0273
     37 H          -1.4831   -0.0910    1.9581 H       1  UNL1        0.0273
     38 H          -0.4889   -1.7479   -0.4261 H       1  UNL1        0.0269
     39 H          -1.8265   -2.0043    0.7159 H       1  UNL1        0.0269
@<TRIPOS>BOND
     1     1     2    1
     2     2     3    1
     3     2     4    1
     4     4     5    1
     5     5     6    1
     6     6     7    1
     7     7     8    1
     8     8     9    2
     9     8    10   am
    10    10    11    1
    11    11    12   ar
    12    12    13   ar
    13    13    14   ar
    14    14    15   ar
    15    15    16   ar
    16     7    17    1
    17    17    18    1
    18    18     4    1
    19    16    11   ar
    20     1    19    1
    21     1    20    1
    22     1    21    1
    23     2    22    1
    24     3    23    1
    25     3    24    1
    26     4    25    1
    27     5    26    1
    28     5    27    1
    29     6    28    1
    30     6    29    1
    31     7    30    1
    32    10    31    1
    33    12    32    1
    34    13    33    1
    35    15    34    1
    36    16    35    1
    37    17    36    1
    38    17    37    1
    39    18    38    1
    40    18    39    1
