@<TRIPOS>MOLECULE
*****
 74 79 0 0 0
SMALL
GASTEIGER

@<TRIPOS>ATOM
      1 C          -1.7845    8.0317    1.3676 C.3     1  UNL1        0.0804
      2 O          -1.1329    6.8293    1.0384 O.3     1  UNL1       -0.4795
      3 C          -1.7960    5.6120    0.9579 C.ar    1  UNL1        0.2191
      4 C          -1.0768    4.4810    0.6281 C.ar    1  UNL1        0.0404
      5 C          -1.6939    3.2556    0.5375 C.ar    1  UNL1        0.1364
      6 N          -0.9679    2.0772    0.1967 N.am    1  UNL1       -0.2240
      7 C           0.4261    2.0389   -0.0971 C.2     1  UNL1        0.3219
      8 O           1.1866    2.9354   -0.5344 O.2     1  UNL1       -0.2512
      9 N           0.8767    0.6986    0.2085 N.am    1  UNL1       -0.1920
     10 C           2.1963    0.1958    0.0772 C.ar    1  UNL1        0.0455
     11 C           3.0915    0.2796    1.1268 C.ar    1  UNL1       -0.0392
     12 C           4.3744   -0.1891    1.0450 C.ar    1  UNL1       -0.0523
     13 C           4.8179   -0.7712   -0.1151 C.ar    1  UNL1       -0.0178
     14 C           6.1969   -1.2850   -0.2354 C.ar    1  UNL1       -0.0178
     15 C           6.4164   -2.3651   -1.0552 C.ar    1  UNL1       -0.0533
     16 C           7.7226   -2.8463   -1.1638 C.ar    1  UNL1       -0.0491
     17 C           8.7110   -2.2256   -0.4559 C.ar    1  UNL1        0.0365
     18 C          10.0844   -2.7061   -0.5495 C.2     1  UNL1        0.2415
     19 N          10.4225   -3.8153   -1.3678 N.am    1  UNL1       -0.3253
     20 O          11.0269   -2.1654    0.0846 O.2     1  UNL1       -0.2704
     21 C           8.4618   -1.1419    0.3605 C.ar    1  UNL1       -0.0491
     22 C           7.1818   -0.6491    0.4840 C.ar    1  UNL1       -0.0533
     23 C           3.9485   -0.8682   -1.1760 C.ar    1  UNL1       -0.0523
     24 C           2.6503   -0.3862   -1.0722 C.ar    1  UNL1       -0.0392
     25 C          -0.2648   -0.0111    0.6705 C.2     1  UNL1        0.2516
     26 O          -0.2205   -1.0187    1.4067 O.2     1  UNL1       -0.2724
     27 C          -1.4338    0.7242    0.0787 C.3     1  UNL1        0.1240
     28 C          -2.6277    0.3650    0.8907 C.3     1  UNL1       -0.0095
     29 C          -3.0224   -1.0645    0.4853 C.3     1  UNL1        0.0017
     30 N          -3.7266   -0.9567   -0.7795 N.3     1  UNL1       -0.2965
     31 C          -5.1689   -0.7485   -0.5709 C.3     1  UNL1        0.0415
     32 C          -5.7873   -1.8241    0.1659 C.ar    1  UNL1        0.0581
     33 N          -6.1038   -1.6737    1.4595 N.ar    1  UNL1       -0.2583
     34 C          -6.6850   -2.6682    2.1785 C.ar    1  UNL1        0.0279
     35 C          -6.9634   -3.8728    1.5735 C.ar    1  UNL1       -0.0433
     36 C          -6.6518   -4.0664    0.2400 C.ar    1  UNL1       -0.0557
     37 C          -6.0542   -3.0142   -0.4605 C.ar    1  UNL1       -0.0279
     38 C          -5.7190   -3.1878   -1.8513 C.3     1  UNL1       -0.0380
     39 C          -3.1776    0.0858   -1.6111 C.3     1  UNL1        0.0017
     40 C          -1.6917    0.2990   -1.3483 C.3     1  UNL1       -0.0095
     41 N          -3.0074    3.2397    0.7858 N.ar    1  UNL1       -0.2200
     42 C          -3.7187    4.3324    1.1077 C.ar    1  UNL1        0.1219
     43 N          -3.1037    5.5397    1.1956 N.ar    1  UNL1       -0.2013
     44 H          -1.5177    8.3345    2.4088 H       1  UNL1        0.0660
     45 H          -2.8891    7.9069    1.2745 H       1  UNL1        0.0660
     46 H          -1.4538    8.8547    0.6944 H       1  UNL1        0.0660
     47 H          -0.0201    4.6212    0.4516 H       1  UNL1        0.0705
     48 H           2.7506    0.7423    2.0597 H       1  UNL1        0.0636
     49 H           5.0464   -0.1099    1.8766 H       1  UNL1        0.0624
     50 H           5.6439   -2.8663   -1.6214 H       1  UNL1        0.0624
     51 H           7.9333   -3.6988   -1.8029 H       1  UNL1        0.0625
     52 H          10.3546   -4.7818   -0.9953 H       1  UNL1        0.1453
     53 H          10.7338   -3.6497   -2.3292 H       1  UNL1        0.1453
     54 H           9.2552   -0.6576    0.9175 H       1  UNL1        0.0625
     55 H           6.9152    0.1911    1.1015 H       1  UNL1        0.0624
     56 H           4.2629   -1.3191   -2.1010 H       1  UNL1        0.0624
     57 H           1.9660   -0.4626   -1.9073 H       1  UNL1        0.0636
     58 H          -3.5389    0.9578    0.6749 H       1  UNL1        0.0303
     59 H          -2.4059    0.4083    1.9877 H       1  UNL1        0.0303
     60 H          -2.1623   -1.7094    0.3216 H       1  UNL1        0.0427
     61 H          -3.6526   -1.5117    1.2818 H       1  UNL1        0.0427
     62 H          -5.2924    0.2024   -0.0114 H       1  UNL1        0.0491
     63 H          -5.5676   -0.5492   -1.5766 H       1  UNL1        0.0491
     64 H          -6.9395   -2.5451    3.2231 H       1  UNL1        0.0829
     65 H          -7.4299   -4.7006    2.1116 H       1  UNL1        0.0633
     66 H          -6.8648   -5.0045   -0.2454 H       1  UNL1        0.0621
     67 H          -4.9300   -2.5665   -2.2668 H       1  UNL1        0.0278
     68 H          -5.5119   -4.2788   -2.0397 H       1  UNL1        0.0278
     69 H          -6.6411   -2.9768   -2.4696 H       1  UNL1        0.0278
     70 H          -3.7284    1.0346   -1.5394 H       1  UNL1        0.0427
     71 H          -3.2566   -0.2580   -2.6669 H       1  UNL1        0.0427
     72 H          -1.1121   -0.5770   -1.6553 H       1  UNL1        0.0303
     73 H          -1.3850    1.1529   -2.0020 H       1  UNL1        0.0303
     74 H          -4.7746    4.3172    1.3070 H       1  UNL1        0.1049
@<TRIPOS>BOND
     1     1     2    1
     2     2     3    1
     3     3     4   ar
     4     4     5   ar
     5     5     6    1
     6     6     7   am
     7     7     8    2
     8     7     9   am
     9     9    10    1
    10    10    11   ar
    11    11    12   ar
    12    12    13   ar
    13    13    14    1
    14    14    15   ar
    15    15    16   ar
    16    16    17   ar
    17    17    18    1
    18    18    19   am
    19    18    20    2
    20    17    21   ar
    21    21    22   ar
    22    13    23   ar
    23    23    24   ar
    24     9    25   am
    25    25    26    2
    26    25    27    1
    27    27    28    1
    28    28    29    1
    29    29    30    1
    30    30    31    1
    31    31    32    1
    32    32    33   ar
    33    33    34   ar
    34    34    35   ar
    35    35    36   ar
    36    36    37   ar
    37    37    38    1
    38    30    39    1
    39    39    40    1
    40     5    41   ar
    41    41    42   ar
    42    42    43   ar
    43    43     3   ar
    44    27     6    1
    45    37    32   ar
    46    24    10   ar
    47    40    27    1
    48    22    14   ar
    49     1    44    1
    50     1    45    1
    51     1    46    1
    52     4    47    1
    53    11    48    1
    54    12    49    1
    55    15    50    1
    56    16    51    1
    57    19    52    1
    58    19    53    1
    59    21    54    1
    60    22    55    1
    61    23    56    1
    62    24    57    1
    63    28    58    1
    64    28    59    1
    65    29    60    1
    66    29    61    1
    67    31    62    1
    68    31    63    1
    69    34    64    1
    70    35    65    1
    71    36    66    1
    72    38    67    1
    73    38    68    1
    74    38    69    1
    75    39    70    1
    76    39    71    1
    77    40    72    1
    78    40    73    1
    79    42    74    1
