
     RDKit          3D

 74 79  0  0  0  0  0  0  0  0999 V2000
   -1.7845    8.0317    1.3676 C   0  0  0  0  0  0  0  0  0  0  0  0
   -1.1329    6.8293    1.0384 O   0  0  0  0  0  0  0  0  0  0  0  0
   -1.7960    5.6120    0.9579 C   0  0  0  0  0  0  0  0  0  0  0  0
   -1.0768    4.4810    0.6281 C   0  0  0  0  0  0  0  0  0  0  0  0
   -1.6939    3.2556    0.5375 C   0  0  0  0  0  0  0  0  0  0  0  0
   -0.9679    2.0772    0.1967 N   0  0  0  0  0  0  0  0  0  0  0  0
    0.4261    2.0389   -0.0971 C   0  0  0  0  0  0  0  0  0  0  0  0
    1.1866    2.9354   -0.5344 O   0  0  0  0  0  0  0  0  0  0  0  0
    0.8767    0.6986    0.2085 N   0  0  0  0  0  0  0  0  0  0  0  0
    2.1963    0.1958    0.0772 C   0  0  0  0  0  0  0  0  0  0  0  0
    3.0915    0.2796    1.1268 C   0  0  0  0  0  0  0  0  0  0  0  0
    4.3744   -0.1891    1.0450 C   0  0  0  0  0  0  0  0  0  0  0  0
    4.8179   -0.7712   -0.1151 C   0  0  0  0  0  0  0  0  0  0  0  0
    6.1969   -1.2850   -0.2354 C   0  0  0  0  0  0  0  0  0  0  0  0
    6.4164   -2.3651   -1.0552 C   0  0  0  0  0  0  0  0  0  0  0  0
    7.7226   -2.8463   -1.1638 C   0  0  0  0  0  0  0  0  0  0  0  0
    8.7110   -2.2256   -0.4559 C   0  0  0  0  0  0  0  0  0  0  0  0
   10.0844   -2.7061   -0.5495 C   0  0  0  0  0  0  0  0  0  0  0  0
   10.4225   -3.8153   -1.3678 N   0  0  0  0  0  0  0  0  0  0  0  0
   11.0269   -2.1654    0.0846 O   0  0  0  0  0  0  0  0  0  0  0  0
    8.4618   -1.1419    0.3605 C   0  0  0  0  0  0  0  0  0  0  0  0
    7.1818   -0.6491    0.4840 C   0  0  0  0  0  0  0  0  0  0  0  0
    3.9485   -0.8682   -1.1760 C   0  0  0  0  0  0  0  0  0  0  0  0
    2.6503   -0.3862   -1.0722 C   0  0  0  0  0  0  0  0  0  0  0  0
   -0.2648   -0.0111    0.6705 C   0  0  0  0  0  0  0  0  0  0  0  0
   -0.2205   -1.0187    1.4067 O   0  0  0  0  0  0  0  0  0  0  0  0
   -1.4338    0.7242    0.0787 C   0  0  0  0  0  0  0  0  0  0  0  0
   -2.6277    0.3650    0.8907 C   0  0  0  0  0  0  0  0  0  0  0  0
   -3.0224   -1.0645    0.4853 C   0  0  0  0  0  0  0  0  0  0  0  0
   -3.7266   -0.9567   -0.7795 N   0  0  0  0  0  0  0  0  0  0  0  0
   -5.1689   -0.7485   -0.5709 C   0  0  0  0  0  0  0  0  0  0  0  0
   -5.7873   -1.8241    0.1659 C   0  0  0  0  0  0  0  0  0  0  0  0
   -6.1038   -1.6737    1.4595 N   0  0  0  0  0  0  0  0  0  0  0  0
   -6.6850   -2.6682    2.1785 C   0  0  0  0  0  0  0  0  0  0  0  0
   -6.9634   -3.8728    1.5735 C   0  0  0  0  0  0  0  0  0  0  0  0
   -6.6518   -4.0664    0.2400 C   0  0  0  0  0  0  0  0  0  0  0  0
   -6.0542   -3.0142   -0.4605 C   0  0  0  0  0  0  0  0  0  0  0  0
   -5.7190   -3.1878   -1.8513 C   0  0  0  0  0  0  0  0  0  0  0  0
   -3.1776    0.0858   -1.6111 C   0  0  0  0  0  0  0  0  0  0  0  0
   -1.6917    0.2990   -1.3483 C   0  0  0  0  0  0  0  0  0  0  0  0
   -3.0074    3.2397    0.7858 N   0  0  0  0  0  0  0  0  0  0  0  0
   -3.7187    4.3324    1.1077 C   0  0  0  0  0  0  0  0  0  0  0  0
   -3.1037    5.5397    1.1956 N   0  0  0  0  0  0  0  0  0  0  0  0
   -1.5177    8.3345    2.4088 H   0  0  0  0  0  0  0  0  0  0  0  0
   -2.8891    7.9069    1.2745 H   0  0  0  0  0  0  0  0  0  0  0  0
   -1.4538    8.8547    0.6944 H   0  0  0  0  0  0  0  0  0  0  0  0
   -0.0201    4.6212    0.4516 H   0  0  0  0  0  0  0  0  0  0  0  0
    2.7506    0.7423    2.0597 H   0  0  0  0  0  0  0  0  0  0  0  0
    5.0464   -0.1099    1.8766 H   0  0  0  0  0  0  0  0  0  0  0  0
    5.6439   -2.8663   -1.6214 H   0  0  0  0  0  0  0  0  0  0  0  0
    7.9333   -3.6988   -1.8029 H   0  0  0  0  0  0  0  0  0  0  0  0
   10.3546   -4.7818   -0.9953 H   0  0  0  0  0  0  0  0  0  0  0  0
   10.7338   -3.6497   -2.3292 H   0  0  0  0  0  0  0  0  0  0  0  0
    9.2552   -0.6576    0.9175 H   0  0  0  0  0  0  0  0  0  0  0  0
    6.9152    0.1911    1.1015 H   0  0  0  0  0  0  0  0  0  0  0  0
    4.2629   -1.3191   -2.1010 H   0  0  0  0  0  0  0  0  0  0  0  0
    1.9660   -0.4626   -1.9073 H   0  0  0  0  0  0  0  0  0  0  0  0
   -3.5389    0.9578    0.6749 H   0  0  0  0  0  0  0  0  0  0  0  0
   -2.4059    0.4083    1.9877 H   0  0  0  0  0  0  0  0  0  0  0  0
   -2.1623   -1.7094    0.3216 H   0  0  0  0  0  0  0  0  0  0  0  0
   -3.6526   -1.5117    1.2818 H   0  0  0  0  0  0  0  0  0  0  0  0
   -5.2924    0.2024   -0.0114 H   0  0  0  0  0  0  0  0  0  0  0  0
   -5.5676   -0.5492   -1.5766 H   0  0  0  0  0  0  0  0  0  0  0  0
   -6.9395   -2.5451    3.2231 H   0  0  0  0  0  0  0  0  0  0  0  0
   -7.4299   -4.7006    2.1116 H   0  0  0  0  0  0  0  0  0  0  0  0
   -6.8648   -5.0045   -0.2454 H   0  0  0  0  0  0  0  0  0  0  0  0
   -4.9300   -2.5665   -2.2668 H   0  0  0  0  0  0  0  0  0  0  0  0
   -5.5119   -4.2788   -2.0397 H   0  0  0  0  0  0  0  0  0  0  0  0
   -6.6411   -2.9768   -2.4696 H   0  0  0  0  0  0  0  0  0  0  0  0
   -3.7284    1.0346   -1.5394 H   0  0  0  0  0  0  0  0  0  0  0  0
   -3.2566   -0.2580   -2.6669 H   0  0  0  0  0  0  0  0  0  0  0  0
   -1.1121   -0.5770   -1.6553 H   0  0  0  0  0  0  0  0  0  0  0  0
   -1.3850    1.1529   -2.0020 H   0  0  0  0  0  0  0  0  0  0  0  0
   -4.7746    4.3172    1.3070 H   0  0  0  0  0  0  0  0  0  0  0  0
  1  2  1  0
  2  3  1  0
  3  4  2  0
  4  5  1  0
  5  6  1  0
  6  7  1  0
  7  8  2  0
  7  9  1  0
  9 10  1  0
 10 11  2  0
 11 12  1  0
 12 13  2  0
 13 14  1  0
 14 15  2  0
 15 16  1  0
 16 17  2  0
 17 18  1  0
 18 19  1  0
 18 20  2  0
 17 21  1  0
 21 22  2  0
 13 23  1  0
 23 24  2  0
  9 25  1  0
 25 26  2  0
 25 27  1  0
 27 28  1  0
 28 29  1  0
 29 30  1  0
 30 31  1  0
 31 32  1  0
 32 33  2  0
 33 34  1  0
 34 35  2  0
 35 36  1  0
 36 37  2  0
 37 38  1  0
 30 39  1  0
 39 40  1  0
  5 41  2  0
 41 42  1  0
 42 43  2  0
 43  3  1  0
 27  6  1  0
 37 32  1  0
 24 10  1  0
 40 27  1  0
 22 14  1  0
  1 44  1  0
  1 45  1  0
  1 46  1  0
  4 47  1  0
 11 48  1  0
 12 49  1  0
 15 50  1  0
 16 51  1  0
 19 52  1  0
 19 53  1  0
 21 54  1  0
 22 55  1  0
 23 56  1  0
 24 57  1  0
 28 58  1  0
 28 59  1  0
 29 60  1  0
 29 61  1  0
 31 62  1  0
 31 63  1  0
 34 64  1  0
 35 65  1  0
 36 66  1  0
 38 67  1  0
 38 68  1  0
 38 69  1  0
 39 70  1  0
 39 71  1  0
 40 72  1  0
 40 73  1  0
 42 74  1  0
M  END
$$$$
