
     RDKit          3D

 53 55  0  0  0  0  0  0  0  0999 V2000
    2.3340    0.6181   -3.0775 C   0  0  0  0  0  0  0  0  0  0  0  0
    1.2423    0.3974   -2.1884 N   0  0  0  0  0  0  0  0  0  0  0  0
    0.2658   -0.3627   -2.7175 C   0  0  0  0  0  0  0  0  0  0  0  0
    0.2714   -0.8644   -3.8910 O   0  0  0  0  0  0  0  0  0  0  0  0
   -0.8660   -0.6687   -1.9937 C   0  0  0  0  0  0  0  0  0  0  0  0
   -1.8900   -1.4356   -2.4784 O   0  0  0  0  0  0  0  0  0  0  0  0
   -1.0376   -0.2089   -0.7068 C   0  0  0  0  0  0  0  0  0  0  0  0
   -0.0241    0.5439   -0.2405 N   0  0  0  0  0  0  0  0  0  0  0  0
    1.0843    0.8508   -0.9328 C   0  0  0  0  0  0  0  0  0  0  0  0
    2.1638    1.6759   -0.3771 C   0  0  0  0  0  0  0  0  0  0  0  0
    1.6971    2.0800    1.0331 C   0  0  0  0  0  0  0  0  0  0  0  0
    2.3890    2.9807   -1.1055 C   0  0  0  0  0  0  0  0  0  0  0  0
    3.4206    0.9814   -0.1863 N   0  0  0  0  0  0  0  0  0  0  0  0
    3.4732   -0.2098    0.5900 C   0  0  0  0  0  0  0  0  0  0  0  0
    2.3788   -0.6227    1.0959 O   0  0  0  0  0  0  0  0  0  0  0  0
    4.7320   -0.9516    0.8129 C   0  0  0  0  0  0  0  0  0  0  0  0
    5.9411   -0.5923    0.3116 N   0  0  0  0  0  0  0  0  0  0  0  0
    6.8030   -1.4915    0.7257 N   0  0  0  0  0  0  0  0  0  0  0  0
    6.0973   -2.3753    1.4684 C   0  0  0  0  0  0  0  0  0  0  0  0
    6.6584   -3.5798    2.1514 C   0  0  0  0  0  0  0  0  0  0  0  0
    4.8122   -2.0472    1.5271 O   0  0  0  0  0  0  0  0  0  0  0  0
   -2.1320   -0.3997    0.2302 C   0  0  0  0  0  0  0  0  0  0  0  0
   -2.1201    0.1091    1.4043 O   0  0  0  0  0  0  0  0  0  0  0  0
   -3.3284   -1.1134    0.0729 N   0  0  0  0  0  0  0  0  0  0  0  0
   -4.3923   -1.2827    1.0157 C   0  0  0  0  0  0  0  0  0  0  0  0
   -5.2812   -0.1049    1.1584 C   0  0  0  0  0  0  0  0  0  0  0  0
   -5.2088    0.9575    2.0271 C   0  0  0  0  0  0  0  0  0  0  0  0
   -6.1119    1.9953    2.0443 C   0  0  0  0  0  0  0  0  0  0  0  0
   -7.1734    1.9907    1.1351 C   0  0  0  0  0  0  0  0  0  0  0  0
   -8.0297    3.0235    1.1884 F   0  0  0  0  0  0  0  0  0  0  0  0
   -7.2481    0.9268    0.2638 C   0  0  0  0  0  0  0  0  0  0  0  0
   -6.3431   -0.1158    0.2444 C   0  0  0  0  0  0  0  0  0  0  0  0
    3.2804    0.9398   -2.6302 H   0  0  0  0  0  0  0  0  0  0  0  0
    2.5934   -0.3475   -3.6068 H   0  0  0  0  0  0  0  0  0  0  0  0
    2.0997    1.3136   -3.9092 H   0  0  0  0  0  0  0  0  0  0  0  0
   -1.9736   -1.5381   -3.4797 H   0  0  0  0  0  0  0  0  0  0  0  0
    1.1356    1.2962    1.5373 H   0  0  0  0  0  0  0  0  0  0  0  0
    0.9496    2.9049    0.8383 H   0  0  0  0  0  0  0  0  0  0  0  0
    2.5489    2.5103    1.5728 H   0  0  0  0  0  0  0  0  0  0  0  0
    2.0846    2.9616   -2.1693 H   0  0  0  0  0  0  0  0  0  0  0  0
    3.4836    3.1938   -1.0836 H   0  0  0  0  0  0  0  0  0  0  0  0
    1.8673    3.8312   -0.6194 H   0  0  0  0  0  0  0  0  0  0  0  0
    4.3783    1.2525   -0.5622 H   0  0  0  0  0  0  0  0  0  0  0  0
    6.0711   -4.4956    1.8735 H   0  0  0  0  0  0  0  0  0  0  0  0
    7.7235   -3.7089    1.8383 H   0  0  0  0  0  0  0  0  0  0  0  0
    6.5639   -3.4357    3.2366 H   0  0  0  0  0  0  0  0  0  0  0  0
   -3.4593   -1.5862   -0.8663 H   0  0  0  0  0  0  0  0  0  0  0  0
   -4.9794   -2.2031    0.7743 H   0  0  0  0  0  0  0  0  0  0  0  0
   -3.9999   -1.4773    2.0558 H   0  0  0  0  0  0  0  0  0  0  0  0
   -4.3733    0.9073    2.7070 H   0  0  0  0  0  0  0  0  0  0  0  0
   -5.9420    2.7804    2.7849 H   0  0  0  0  0  0  0  0  0  0  0  0
   -8.1066    1.0137   -0.4027 H   0  0  0  0  0  0  0  0  0  0  0  0
   -6.5234   -0.8866   -0.4945 H   0  0  0  0  0  0  0  0  0  0  0  0
  1  2  1  0
  2  3  1  0
  3  4  2  0
  3  5  1  0
  5  6  1  0
  5  7  2  0
  7  8  1  0
  8  9  2  0
  9 10  1  0
 10 11  1  0
 10 12  1  0
 10 13  1  0
 13 14  1  0
 14 15  2  0
 14 16  1  0
 16 17  2  0
 17 18  1  0
 18 19  2  0
 19 20  1  0
 19 21  1  0
  7 22  1  0
 22 23  2  0
 22 24  1  0
 24 25  1  0
 25 26  1  0
 26 27  2  0
 27 28  1  0
 28 29  2  0
 29 30  1  0
 29 31  1  0
 31 32  2  0
  9  2  1  0
 21 16  1  0
 32 26  1  0
  1 33  1  0
  1 34  1  0
  1 35  1  0
  6 36  1  0
 11 37  1  0
 11 38  1  0
 11 39  1  0
 12 40  1  0
 12 41  1  0
 12 42  1  0
 13 43  1  0
 20 44  1  0
 20 45  1  0
 20 46  1  0
 24 47  1  0
 25 48  1  0
 25 49  1  0
 27 50  1  0
 28 51  1  0
 31 52  1  0
 32 53  1  0
M  END
$$$$
