@<TRIPOS>MOLECULE
*****
 53 55 0 0 0
SMALL
GASTEIGER

@<TRIPOS>ATOM
      1 C           2.3340    0.6181   -3.0775 C.3     1  UNL1        0.0165
      2 N           1.2423    0.3974   -2.1884 N.ar    1  UNL1       -0.2951
      3 C           0.2658   -0.3627   -2.7175 C.ar    1  UNL1        0.2964
      4 O           0.2714   -0.8644   -3.8910 O.2     1  UNL1       -0.2636
      5 C          -0.8660   -0.6687   -1.9937 C.ar    1  UNL1        0.2130
      6 O          -1.8900   -1.4356   -2.4784 O.3     1  UNL1       -0.5006
      7 C          -1.0376   -0.2089   -0.7068 C.ar    1  UNL1        0.1740
      8 N          -0.0241    0.5439   -0.2405 N.ar    1  UNL1       -0.2230
      9 C           1.0843    0.8508   -0.9328 C.ar    1  UNL1        0.1362
     10 C           2.1638    1.6759   -0.3771 C.3     1  UNL1        0.0873
     11 C           1.6971    2.0800    1.0331 C.3     1  UNL1       -0.0369
     12 C           2.3890    2.9807   -1.1055 C.3     1  UNL1       -0.0369
     13 N           3.4206    0.9814   -0.1863 N.am    1  UNL1       -0.2955
     14 C           3.4732   -0.2098    0.5900 C.2     1  UNL1        0.3015
     15 O           2.3788   -0.6227    1.0959 O.2     1  UNL1       -0.2649
     16 C           4.7320   -0.9516    0.8129 C.ar    1  UNL1        0.3038
     17 N           5.9411   -0.5923    0.3116 N.ar    1  UNL1       -0.1024
     18 N           6.8030   -1.4915    0.7257 N.ar    1  UNL1       -0.1122
     19 C           6.0973   -2.3753    1.4684 C.ar    1  UNL1        0.2148
     20 C           6.6584   -3.5798    2.1514 C.3     1  UNL1        0.0138
     21 O           4.8122   -2.0472    1.5271 O.2     1  UNL1       -0.4172
     22 C          -2.1320   -0.3997    0.2302 C.2     1  UNL1        0.2665
     23 O          -2.1201    0.1091    1.4043 O.2     1  UNL1       -0.2684
     24 N          -3.3284   -1.1134    0.0729 N.am    1  UNL1       -0.3059
     25 C          -4.3923   -1.2827    1.0157 C.3     1  UNL1        0.0372
     26 C          -5.2812   -0.1049    1.1584 C.ar    1  UNL1       -0.0301
     27 C          -5.2088    0.9575    2.0271 C.ar    1  UNL1       -0.0544
     28 C          -6.1119    1.9953    2.0443 C.ar    1  UNL1       -0.0261
     29 C          -7.1734    1.9907    1.1351 C.ar    1  UNL1        0.1234
     30 F          -8.0297    3.0235    1.1884 F       1  UNL1       -0.2055
     31 C          -7.2481    0.9268    0.2638 C.ar    1  UNL1       -0.0261
     32 C          -6.3431   -0.1158    0.2444 C.ar    1  UNL1       -0.0544
     33 H           3.2804    0.9398   -2.6302 H       1  UNL1        0.0457
     34 H           2.5934   -0.3475   -3.6068 H       1  UNL1        0.0457
     35 H           2.0997    1.3136   -3.9092 H       1  UNL1        0.0457
     36 H          -1.9736   -1.5381   -3.4797 H       1  UNL1        0.2924
     37 H           1.1356    1.2962    1.5373 H       1  UNL1        0.0254
     38 H           0.9496    2.9049    0.8383 H       1  UNL1        0.0254
     39 H           2.5489    2.5103    1.5728 H       1  UNL1        0.0254
     40 H           2.0846    2.9616   -2.1693 H       1  UNL1        0.0254
     41 H           3.4836    3.1938   -1.0836 H       1  UNL1        0.0254
     42 H           1.8673    3.8312   -0.6194 H       1  UNL1        0.0254
     43 H           4.3783    1.2525   -0.5622 H       1  UNL1        0.1501
     44 H           6.0711   -4.4956    1.8735 H       1  UNL1        0.0324
     45 H           7.7235   -3.7089    1.8383 H       1  UNL1        0.0324
     46 H           6.5639   -3.4357    3.2366 H       1  UNL1        0.0324
     47 H          -3.4593   -1.5862   -0.8663 H       1  UNL1        0.1494
     48 H          -4.9794   -2.2031    0.7743 H       1  UNL1        0.0512
     49 H          -3.9999   -1.4773    2.0558 H       1  UNL1        0.0512
     50 H          -4.3733    0.9073    2.7070 H       1  UNL1        0.0622
     51 H          -5.9420    2.7804    2.7849 H       1  UNL1        0.0646
     52 H          -8.1066    1.0137   -0.4027 H       1  UNL1        0.0646
     53 H          -6.5234   -0.8866   -0.4945 H       1  UNL1        0.0622
@<TRIPOS>BOND
     1     1     2    1
     2     2     3   ar
     3     3     4    2
     4     3     5   ar
     5     5     6    1
     6     5     7   ar
     7     7     8   ar
     8     8     9   ar
     9     9    10    1
    10    10    11    1
    11    10    12    1
    12    10    13    1
    13    13    14   am
    14    14    15    2
    15    14    16    1
    16    16    17   ar
    17    17    18   ar
    18    18    19   ar
    19    19    20    1
    20    19    21   ar
    21     7    22    1
    22    22    23    2
    23    22    24   am
    24    24    25    1
    25    25    26    1
    26    26    27   ar
    27    27    28   ar
    28    28    29   ar
    29    29    30    1
    30    29    31   ar
    31    31    32   ar
    32     9     2   ar
    33    21    16   ar
    34    32    26   ar
    35     1    33    1
    36     1    34    1
    37     1    35    1
    38     6    36    1
    39    11    37    1
    40    11    38    1
    41    11    39    1
    42    12    40    1
    43    12    41    1
    44    12    42    1
    45    13    43    1
    46    20    44    1
    47    20    45    1
    48    20    46    1
    49    24    47    1
    50    25    48    1
    51    25    49    1
    52    27    50    1
    53    28    51    1
    54    31    52    1
    55    32    53    1
