@<TRIPOS>MOLECULE
*****
 57 61 0 0 0
SMALL
GASTEIGER

@<TRIPOS>ATOM
      1 N           8.2174    3.3390   -1.5744 N.1     1  UNL1       -0.1908
      2 C           7.5906    2.3859   -1.0692 C.1     1  UNL1        0.1007
      3 C           6.8656    1.3156   -0.5163 C.ar    1  UNL1        0.0699
      4 C           7.5624    0.2634    0.2978 C.ar    1  UNL1       -0.0396
      5 C           6.7770   -0.7954    0.7262 C.ar    1  UNL1       -0.0207
      6 C           5.4418   -0.9790    0.4837 C.ar    1  UNL1        0.1190
      7 N           4.6475   -2.1049    0.8122 N.pl3   1  UNL1       -0.3247
      8 C           3.2649   -2.0896    0.4486 C.3     1  UNL1        0.0392
      9 C           2.7088   -3.4525    0.1156 C.3     1  UNL1       -0.0171
     10 C           1.4162   -3.4985    0.9295 C.3     1  UNL1        0.0196
     11 N           1.0687   -2.0269    1.0204 N.am    1  UNL1       -0.2656
     12 C          -0.1620   -1.5158    0.6972 C.2     1  UNL1        0.4032
     13 O          -1.0706   -2.4442    0.3725 O.2     1  UNL1       -0.2262
     14 O          -0.7351   -0.2923    0.6118 O.3     1  UNL1       -0.4464
     15 C          -2.0764   -0.1178    0.2880 C.3     1  UNL1        0.1103
     16 C          -2.7200    0.8552    1.2386 C.3     1  UNL1       -0.0023
     17 C          -2.3423    2.2893    0.9823 C.3     1  UNL1       -0.0439
     18 C          -2.8461    2.6664   -0.4035 C.3     1  UNL1       -0.0394
     19 C          -2.0119    1.8148   -1.3489 C.3     1  UNL1       -0.0439
     20 C          -2.3320    0.3734   -1.1287 C.3     1  UNL1       -0.0023
     21 C          -3.8183    0.1786   -1.3407 C.3     1  UNL1       -0.0328
     22 C          -4.6079    0.9561   -0.3157 C.3     1  UNL1        0.0477
     23 C          -6.0187    0.5953   -0.5236 C.2     1  UNL1        0.2167
     24 N          -6.7197    0.9376   -1.7158 N.am    1  UNL1       -0.3289
     25 O          -6.6474   -0.0327    0.3569 O.2     1  UNL1       -0.2754
     26 C          -4.3123    2.4130   -0.5969 C.3     1  UNL1       -0.0362
     27 C          -4.2292    0.6416    1.0885 C.3     1  UNL1       -0.0328
     28 C           2.3288   -1.5211    1.4980 C.3     1  UNL1        0.0362
     29 N           4.8478    0.0285   -0.2693 N.ar    1  UNL1       -0.2392
     30 C           5.5970    1.0095   -0.6614 C.ar    1  UNL1        0.0470
     31 H           8.5759    0.4125    0.4353 H       1  UNL1        0.0632
     32 H           7.2763   -1.5856    1.3283 H       1  UNL1        0.0652
     33 H           5.0554   -2.9512    1.2925 H       1  UNL1        0.1478
     34 H           3.1282   -1.4409   -0.4740 H       1  UNL1        0.0514
     35 H           3.3203   -4.2967    0.4409 H       1  UNL1        0.0299
     36 H           2.3882   -3.4947   -0.9537 H       1  UNL1        0.0299
     37 H           1.5759   -3.8217    1.9662 H       1  UNL1        0.0466
     38 H           0.6160   -4.0030    0.4132 H       1  UNL1        0.0466
     39 H          -2.6655   -1.0741    0.3154 H       1  UNL1        0.0740
     40 H          -2.4531    0.6178    2.2984 H       1  UNL1        0.0337
     41 H          -2.7890    2.8876    1.7695 H       1  UNL1        0.0272
     42 H          -1.2311    2.3932    0.9335 H       1  UNL1        0.0272
     43 H          -2.6308    3.7523   -0.5814 H       1  UNL1        0.0301
     44 H          -2.3727    2.0735   -2.3897 H       1  UNL1        0.0272
     45 H          -0.9692    2.0786   -1.1676 H       1  UNL1        0.0272
     46 H          -1.7963   -0.2268   -1.8603 H       1  UNL1        0.0337
     47 H          -4.1164    0.4508   -2.3603 H       1  UNL1        0.0279
     48 H          -4.0072   -0.9074   -1.1317 H       1  UNL1        0.0279
     49 H          -6.2044    1.1658   -2.5941 H       1  UNL1        0.1449
     50 H          -7.7485    0.9648   -1.7234 H       1  UNL1        0.1449
     51 H          -4.9038    3.0758    0.0260 H       1  UNL1        0.0278
     52 H          -4.5734    2.5849   -1.6621 H       1  UNL1        0.0278
     53 H          -4.7313    1.3051    1.7986 H       1  UNL1        0.0279
     54 H          -4.3913   -0.4543    1.3140 H       1  UNL1        0.0279
     55 H           2.3987   -0.4457    1.5945 H       1  UNL1        0.0484
     56 H           2.5203   -2.0751    2.4689 H       1  UNL1        0.0484
     57 H           5.0439    1.8221   -1.3072 H       1  UNL1        0.0843
@<TRIPOS>BOND
     1     1     2    3
     2     2     3    1
     3     3     4   ar
     4     4     5   ar
     5     5     6   ar
     6     6     7    1
     7     7     8    1
     8     8     9    1
     9     9    10    1
    10    10    11    1
    11    11    12   am
    12    12    13    2
    13    12    14    1
    14    14    15    1
    15    15    16    1
    16    16    17    1
    17    17    18    1
    18    18    19    1
    19    19    20    1
    20    20    21    1
    21    21    22    1
    22    22    23    1
    23    23    24   am
    24    23    25    2
    25    22    26    1
    26    22    27    1
    27    11    28    1
    28     6    29   ar
    29    29    30   ar
    30    30     3   ar
    31    28     8    1
    32    20    15    1
    33    27    16    1
    34    26    18    1
    35     4    31    1
    36     5    32    1
    37     7    33    1
    38     8    34    1
    39     9    35    1
    40     9    36    1
    41    10    37    1
    42    10    38    1
    43    15    39    1
    44    16    40    1
    45    17    41    1
    46    17    42    1
    47    18    43    1
    48    19    44    1
    49    19    45    1
    50    20    46    1
    51    21    47    1
    52    21    48    1
    53    24    49    1
    54    24    50    1
    55    26    51    1
    56    26    52    1
    57    27    53    1
    58    27    54    1
    59    28    55    1
    60    28    56    1
    61    30    57    1
