
     RDKit          3D

 57 61  0  0  0  0  0  0  0  0999 V2000
    8.2174    3.3390   -1.5744 N   0  0  0  0  0  0  0  0  0  0  0  0
    7.5906    2.3859   -1.0692 C   0  0  0  0  0  0  0  0  0  0  0  0
    6.8656    1.3156   -0.5163 C   0  0  0  0  0  0  0  0  0  0  0  0
    7.5624    0.2634    0.2978 C   0  0  0  0  0  0  0  0  0  0  0  0
    6.7770   -0.7954    0.7262 C   0  0  0  0  0  0  0  0  0  0  0  0
    5.4418   -0.9790    0.4837 C   0  0  0  0  0  0  0  0  0  0  0  0
    4.6475   -2.1049    0.8122 N   0  0  0  0  0  0  0  0  0  0  0  0
    3.2649   -2.0896    0.4486 C   0  0  1  0  0  0  0  0  0  0  0  0
    2.7088   -3.4525    0.1156 C   0  0  0  0  0  0  0  0  0  0  0  0
    1.4162   -3.4985    0.9295 C   0  0  0  0  0  0  0  0  0  0  0  0
    1.0687   -2.0269    1.0204 N   0  0  0  0  0  0  0  0  0  0  0  0
   -0.1620   -1.5158    0.6972 C   0  0  0  0  0  0  0  0  0  0  0  0
   -1.0706   -2.4442    0.3725 O   0  0  0  0  0  0  0  0  0  0  0  0
   -0.7351   -0.2923    0.6118 O   0  0  0  0  0  0  0  0  0  0  0  0
   -2.0764   -0.1178    0.2880 C   0  0  1  0  0  0  0  0  0  0  0  0
   -2.7200    0.8552    1.2386 C   0  0  0  0  0  0  0  0  0  0  0  0
   -2.3423    2.2893    0.9823 C   0  0  0  0  0  0  0  0  0  0  0  0
   -2.8461    2.6664   -0.4035 C   0  0  0  0  0  0  0  0  0  0  0  0
   -2.0119    1.8148   -1.3489 C   0  0  0  0  0  0  0  0  0  0  0  0
   -2.3320    0.3734   -1.1287 C   0  0  0  0  0  0  0  0  0  0  0  0
   -3.8183    0.1786   -1.3407 C   0  0  0  0  0  0  0  0  0  0  0  0
   -4.6079    0.9561   -0.3157 C   0  0  2  0  0  0  0  0  0  0  0  0
   -6.0187    0.5953   -0.5236 C   0  0  0  0  0  0  0  0  0  0  0  0
   -6.7197    0.9376   -1.7158 N   0  0  0  0  0  0  0  0  0  0  0  0
   -6.6474   -0.0327    0.3569 O   0  0  0  0  0  0  0  0  0  0  0  0
   -4.3123    2.4130   -0.5969 C   0  0  0  0  0  0  0  0  0  0  0  0
   -4.2292    0.6416    1.0885 C   0  0  0  0  0  0  0  0  0  0  0  0
    2.3288   -1.5211    1.4980 C   0  0  0  0  0  0  0  0  0  0  0  0
    4.8478    0.0285   -0.2693 N   0  0  0  0  0  0  0  0  0  0  0  0
    5.5970    1.0095   -0.6614 C   0  0  0  0  0  0  0  0  0  0  0  0
    8.5759    0.4125    0.4353 H   0  0  0  0  0  0  0  0  0  0  0  0
    7.2763   -1.5856    1.3283 H   0  0  0  0  0  0  0  0  0  0  0  0
    5.0554   -2.9512    1.2925 H   0  0  0  0  0  0  0  0  0  0  0  0
    3.1282   -1.4409   -0.4740 H   0  0  0  0  0  0  0  0  0  0  0  0
    3.3203   -4.2967    0.4409 H   0  0  0  0  0  0  0  0  0  0  0  0
    2.3882   -3.4947   -0.9537 H   0  0  0  0  0  0  0  0  0  0  0  0
    1.5759   -3.8217    1.9662 H   0  0  0  0  0  0  0  0  0  0  0  0
    0.6160   -4.0030    0.4132 H   0  0  0  0  0  0  0  0  0  0  0  0
   -2.6655   -1.0741    0.3154 H   0  0  0  0  0  0  0  0  0  0  0  0
   -2.4531    0.6178    2.2984 H   0  0  0  0  0  0  0  0  0  0  0  0
   -2.7890    2.8876    1.7695 H   0  0  0  0  0  0  0  0  0  0  0  0
   -1.2311    2.3932    0.9335 H   0  0  0  0  0  0  0  0  0  0  0  0
   -2.6308    3.7523   -0.5814 H   0  0  0  0  0  0  0  0  0  0  0  0
   -2.3727    2.0735   -2.3897 H   0  0  0  0  0  0  0  0  0  0  0  0
   -0.9692    2.0786   -1.1676 H   0  0  0  0  0  0  0  0  0  0  0  0
   -1.7963   -0.2268   -1.8603 H   0  0  0  0  0  0  0  0  0  0  0  0
   -4.1164    0.4508   -2.3603 H   0  0  0  0  0  0  0  0  0  0  0  0
   -4.0072   -0.9074   -1.1317 H   0  0  0  0  0  0  0  0  0  0  0  0
   -6.2044    1.1658   -2.5941 H   0  0  0  0  0  0  0  0  0  0  0  0
   -7.7485    0.9648   -1.7234 H   0  0  0  0  0  0  0  0  0  0  0  0
   -4.9038    3.0758    0.0260 H   0  0  0  0  0  0  0  0  0  0  0  0
   -4.5734    2.5849   -1.6621 H   0  0  0  0  0  0  0  0  0  0  0  0
   -4.7313    1.3051    1.7986 H   0  0  0  0  0  0  0  0  0  0  0  0
   -4.3913   -0.4543    1.3140 H   0  0  0  0  0  0  0  0  0  0  0  0
    2.3987   -0.4457    1.5945 H   0  0  0  0  0  0  0  0  0  0  0  0
    2.5203   -2.0751    2.4689 H   0  0  0  0  0  0  0  0  0  0  0  0
    5.0439    1.8221   -1.3072 H   0  0  0  0  0  0  0  0  0  0  0  0
  1  2  3  0
  2  3  1  0
  3  4  2  0
  4  5  1  0
  5  6  2  0
  6  7  1  0
  7  8  1  0
  8  9  1  0
  9 10  1  0
 10 11  1  0
 11 12  1  0
 12 13  2  0
 12 14  1  0
 14 15  1  0
 15 16  1  0
 16 17  1  0
 17 18  1  0
 18 19  1  0
 19 20  1  0
 20 21  1  0
 21 22  1  0
 22 23  1  1
 23 24  1  0
 23 25  2  0
 22 26  1  0
 22 27  1  0
 11 28  1  0
  6 29  1  0
 29 30  2  0
 30  3  1  0
 28  8  1  0
 20 15  1  0
 27 16  1  0
 26 18  1  0
  4 31  1  0
  5 32  1  0
  7 33  1  0
  8 34  1  6
  9 35  1  0
  9 36  1  0
 10 37  1  0
 10 38  1  0
 15 39  1  6
 16 40  1  0
 17 41  1  0
 17 42  1  0
 18 43  1  0
 19 44  1  0
 19 45  1  0
 20 46  1  0
 21 47  1  0
 21 48  1  0
 24 49  1  0
 24 50  1  0
 26 51  1  0
 26 52  1  0
 27 53  1  0
 27 54  1  0
 28 55  1  0
 28 56  1  0
 30 57  1  0
M  END
$$$$
