@<TRIPOS>MOLECULE
*****
 56 57 0 0 0
SMALL
GASTEIGER

@<TRIPOS>ATOM
      1 C           6.4379    0.9074    1.8532 C.3     1  UNL1       -0.0638
      2 C           5.9646    0.7922    0.4349 C.3     1  UNL1       -0.0350
      3 C           4.4834    0.4124    0.3765 C.3     1  UNL1        0.0817
      4 S           4.0130    0.2986   -1.3199 S.O2    1  UNL1        0.0318
      5 O           4.3335    1.5824   -2.0322 O.2     1  UNL1       -0.1580
      6 O           4.9118   -0.7570   -1.9526 O.2     1  UNL1       -0.1580
      7 N           2.4175   -0.1107   -1.5980 N.3     1  UNL1       -0.1811
      8 C           2.0074   -1.3979   -1.0963 C.3     1  UNL1        0.0207
      9 C           0.5905   -1.6092   -1.5491 C.3     1  UNL1       -0.0314
     10 C          -0.3766   -0.6994   -0.7520 C.3     1  UNL1       -0.0092
     11 C          -0.6168   -1.4274    0.5251 C.3     1  UNL1       -0.0223
     12 C          -1.1879   -2.7918    0.4388 C.3     1  UNL1        0.0479
     13 O          -1.4387   -3.3056    1.6976 O.3     1  UNL1       -0.3830
     14 C          -0.3252   -3.4010    2.4571 C.3     1  UNL1        0.0364
     15 C          -1.4936   -0.3969   -1.6541 C.3     1  UNL1        0.0177
     16 N          -2.5462    0.4621   -1.3144 N.am    1  UNL1       -0.3108
     17 C          -3.4988    0.2998   -0.2963 C.2     1  UNL1        0.2455
     18 O          -3.4891   -0.7021    0.4343 O.2     1  UNL1       -0.2702
     19 C          -4.5512    1.3290   -0.0642 C.ar    1  UNL1        0.0550
     20 C          -4.6155    1.9708    1.1372 C.ar    1  UNL1       -0.0468
     21 C          -5.5965    2.9324    1.3598 C.ar    1  UNL1       -0.0426
     22 C          -6.5119    3.2465    0.3714 C.ar    1  UNL1        0.0424
     23 CL         -7.7670    4.4652    0.6328 Cl      1  UNL1       -0.0835
     24 C          -6.4217    2.5825   -0.8294 C.ar    1  UNL1       -0.0243
     25 C          -5.4423    1.6219   -1.0527 C.ar    1  UNL1        0.0544
     26 CL         -5.4001    0.8165   -2.6294 Cl      1  UNL1       -0.0827
     27 C           0.4121    0.5673   -0.3648 C.3     1  UNL1       -0.0314
     28 C           1.4348    0.9099   -1.4532 C.3     1  UNL1        0.0207
     29 H           5.7895    1.6200    2.3878 H       1  UNL1        0.0230
     30 H           6.4435   -0.1112    2.2925 H       1  UNL1        0.0230
     31 H           7.4671    1.2757    1.8552 H       1  UNL1        0.0230
     32 H           6.5930    0.0574   -0.1085 H       1  UNL1        0.0279
     33 H           6.1195    1.7950   -0.0523 H       1  UNL1        0.0279
     34 H           4.4107   -0.5655    0.8938 H       1  UNL1        0.0515
     35 H           3.9206    1.1441    0.9543 H       1  UNL1        0.0515
     36 H           2.6386   -2.1524   -1.6130 H       1  UNL1        0.0444
     37 H           2.1892   -1.4594   -0.0312 H       1  UNL1        0.0444
     38 H           0.2937   -2.6421   -1.5807 H       1  UNL1        0.0284
     39 H           0.5360   -1.2031   -2.6113 H       1  UNL1        0.0284
     40 H           0.4579   -1.6080    0.9376 H       1  UNL1        0.0293
     41 H          -1.0376   -0.8142    1.3538 H       1  UNL1        0.0293
     42 H          -2.1019   -2.9123   -0.1659 H       1  UNL1        0.0560
     43 H          -0.4036   -3.4807    0.0086 H       1  UNL1        0.0560
     44 H           0.1203   -2.4161    2.6424 H       1  UNL1        0.0523
     45 H           0.4537   -4.0690    2.0140 H       1  UNL1        0.0523
     46 H          -0.6399   -3.8778    3.4377 H       1  UNL1        0.0523
     47 H          -1.8658   -1.4040   -2.0457 H       1  UNL1        0.0467
     48 H          -1.0491    0.0258   -2.6257 H       1  UNL1        0.0467
     49 H          -2.6835    1.4004   -1.8928 H       1  UNL1        0.1490
     50 H          -3.9364    1.7833    1.9637 H       1  UNL1        0.0626
     51 H          -5.6648    3.4506    2.3006 H       1  UNL1        0.0632
     52 H          -7.1459    2.8347   -1.6035 H       1  UNL1        0.0647
     53 H          -0.2398    1.4362   -0.2582 H       1  UNL1        0.0284
     54 H           0.9513    0.4120    0.5917 H       1  UNL1        0.0284
     55 H           0.8515    0.9771   -2.3960 H       1  UNL1        0.0444
     56 H           1.8048    1.9055   -1.2190 H       1  UNL1        0.0444
@<TRIPOS>BOND
     1     1     2    1
     2     2     3    1
     3     3     4    1
     4     4     5    2
     5     4     6    2
     6     4     7    1
     7     7     8    1
     8     8     9    1
     9     9    10    1
    10    10    11    1
    11    11    12    1
    12    12    13    1
    13    13    14    1
    14    10    15    1
    15    15    16    1
    16    16    17   am
    17    17    18    2
    18    17    19    1
    19    19    20   ar
    20    20    21   ar
    21    21    22   ar
    22    22    23    1
    23    22    24   ar
    24    24    25   ar
    25    25    26    1
    26    10    27    1
    27    27    28    1
    28    28     7    1
    29    25    19   ar
    30     1    29    1
    31     1    30    1
    32     1    31    1
    33     2    32    1
    34     2    33    1
    35     3    34    1
    36     3    35    1
    37     8    36    1
    38     8    37    1
    39     9    38    1
    40     9    39    1
    41    11    40    1
    42    11    41    1
    43    12    42    1
    44    12    43    1
    45    14    44    1
    46    14    45    1
    47    14    46    1
    48    15    47    1
    49    15    48    1
    50    16    49    1
    51    20    50    1
    52    21    51    1
    53    24    52    1
    54    27    53    1
    55    27    54    1
    56    28    55    1
    57    28    56    1
