
     RDKit          3D

 56 57  0  0  0  0  0  0  0  0999 V2000
    6.4379    0.9074    1.8532 C   0  0  0  0  0  0  0  0  0  0  0  0
    5.9646    0.7922    0.4349 C   0  0  0  0  0  0  0  0  0  0  0  0
    4.4834    0.4124    0.3765 C   0  0  0  0  0  0  0  0  0  0  0  0
    4.0130    0.2986   -1.3199 S   0  0  0  0  0  6  0  0  0  0  0  0
    4.3335    1.5824   -2.0322 O   0  0  0  0  0  0  0  0  0  0  0  0
    4.9118   -0.7570   -1.9526 O   0  0  0  0  0  0  0  0  0  0  0  0
    2.4175   -0.1107   -1.5980 N   0  0  0  0  0  0  0  0  0  0  0  0
    2.0074   -1.3979   -1.0963 C   0  0  0  0  0  0  0  0  0  0  0  0
    0.5905   -1.6092   -1.5491 C   0  0  0  0  0  0  0  0  0  0  0  0
   -0.3766   -0.6994   -0.7520 C   0  0  0  0  0  0  0  0  0  0  0  0
   -0.6168   -1.4274    0.5251 C   0  0  0  0  0  0  0  0  0  0  0  0
   -1.1879   -2.7918    0.4388 C   0  0  0  0  0  0  0  0  0  0  0  0
   -1.4387   -3.3056    1.6976 O   0  0  0  0  0  0  0  0  0  0  0  0
   -0.3252   -3.4010    2.4571 C   0  0  0  0  0  0  0  0  0  0  0  0
   -1.4936   -0.3969   -1.6541 C   0  0  0  0  0  0  0  0  0  0  0  0
   -2.5462    0.4621   -1.3144 N   0  0  0  0  0  0  0  0  0  0  0  0
   -3.4988    0.2998   -0.2963 C   0  0  0  0  0  0  0  0  0  0  0  0
   -3.4891   -0.7021    0.4343 O   0  0  0  0  0  0  0  0  0  0  0  0
   -4.5512    1.3290   -0.0642 C   0  0  0  0  0  0  0  0  0  0  0  0
   -4.6155    1.9708    1.1372 C   0  0  0  0  0  0  0  0  0  0  0  0
   -5.5965    2.9324    1.3598 C   0  0  0  0  0  0  0  0  0  0  0  0
   -6.5119    3.2465    0.3714 C   0  0  0  0  0  0  0  0  0  0  0  0
   -7.7670    4.4652    0.6328 Cl  0  0  0  0  0  0  0  0  0  0  0  0
   -6.4217    2.5825   -0.8294 C   0  0  0  0  0  0  0  0  0  0  0  0
   -5.4423    1.6219   -1.0527 C   0  0  0  0  0  0  0  0  0  0  0  0
   -5.4001    0.8165   -2.6294 Cl  0  0  0  0  0  0  0  0  0  0  0  0
    0.4121    0.5673   -0.3648 C   0  0  0  0  0  0  0  0  0  0  0  0
    1.4348    0.9099   -1.4532 C   0  0  0  0  0  0  0  0  0  0  0  0
    5.7895    1.6200    2.3878 H   0  0  0  0  0  0  0  0  0  0  0  0
    6.4435   -0.1112    2.2925 H   0  0  0  0  0  0  0  0  0  0  0  0
    7.4671    1.2757    1.8552 H   0  0  0  0  0  0  0  0  0  0  0  0
    6.5930    0.0574   -0.1085 H   0  0  0  0  0  0  0  0  0  0  0  0
    6.1195    1.7950   -0.0523 H   0  0  0  0  0  0  0  0  0  0  0  0
    4.4107   -0.5655    0.8938 H   0  0  0  0  0  0  0  0  0  0  0  0
    3.9206    1.1441    0.9543 H   0  0  0  0  0  0  0  0  0  0  0  0
    2.6386   -2.1524   -1.6130 H   0  0  0  0  0  0  0  0  0  0  0  0
    2.1892   -1.4594   -0.0312 H   0  0  0  0  0  0  0  0  0  0  0  0
    0.2937   -2.6421   -1.5807 H   0  0  0  0  0  0  0  0  0  0  0  0
    0.5360   -1.2031   -2.6113 H   0  0  0  0  0  0  0  0  0  0  0  0
    0.4579   -1.6080    0.9376 H   0  0  0  0  0  0  0  0  0  0  0  0
   -1.0376   -0.8142    1.3538 H   0  0  0  0  0  0  0  0  0  0  0  0
   -2.1019   -2.9123   -0.1659 H   0  0  0  0  0  0  0  0  0  0  0  0
   -0.4036   -3.4807    0.0086 H   0  0  0  0  0  0  0  0  0  0  0  0
    0.1203   -2.4161    2.6424 H   0  0  0  0  0  0  0  0  0  0  0  0
    0.4537   -4.0690    2.0140 H   0  0  0  0  0  0  0  0  0  0  0  0
   -0.6399   -3.8778    3.4377 H   0  0  0  0  0  0  0  0  0  0  0  0
   -1.8658   -1.4040   -2.0457 H   0  0  0  0  0  0  0  0  0  0  0  0
   -1.0491    0.0258   -2.6257 H   0  0  0  0  0  0  0  0  0  0  0  0
   -2.6835    1.4004   -1.8928 H   0  0  0  0  0  0  0  0  0  0  0  0
   -3.9364    1.7833    1.9637 H   0  0  0  0  0  0  0  0  0  0  0  0
   -5.6648    3.4506    2.3006 H   0  0  0  0  0  0  0  0  0  0  0  0
   -7.1459    2.8347   -1.6035 H   0  0  0  0  0  0  0  0  0  0  0  0
   -0.2398    1.4362   -0.2582 H   0  0  0  0  0  0  0  0  0  0  0  0
    0.9513    0.4120    0.5917 H   0  0  0  0  0  0  0  0  0  0  0  0
    0.8515    0.9771   -2.3960 H   0  0  0  0  0  0  0  0  0  0  0  0
    1.8048    1.9055   -1.2190 H   0  0  0  0  0  0  0  0  0  0  0  0
  1  2  1  0
  2  3  1  0
  3  4  1  0
  4  5  2  0
  4  6  2  0
  4  7  1  0
  7  8  1  0
  8  9  1  0
  9 10  1  0
 10 11  1  0
 11 12  1  0
 12 13  1  0
 13 14  1  0
 10 15  1  0
 15 16  1  0
 16 17  1  0
 17 18  2  0
 17 19  1  0
 19 20  2  0
 20 21  1  0
 21 22  2  0
 22 23  1  0
 22 24  1  0
 24 25  2  0
 25 26  1  0
 10 27  1  0
 27 28  1  0
 28  7  1  0
 25 19  1  0
  1 29  1  0
  1 30  1  0
  1 31  1  0
  2 32  1  0
  2 33  1  0
  3 34  1  0
  3 35  1  0
  8 36  1  0
  8 37  1  0
  9 38  1  0
  9 39  1  0
 11 40  1  0
 11 41  1  0
 12 42  1  0
 12 43  1  0
 14 44  1  0
 14 45  1  0
 14 46  1  0
 15 47  1  0
 15 48  1  0
 16 49  1  0
 20 50  1  0
 21 51  1  0
 24 52  1  0
 27 53  1  0
 27 54  1  0
 28 55  1  0
 28 56  1  0
M  END
$$$$
