@<TRIPOS>MOLECULE
*****
 83 85 0 0 0
SMALL
GASTEIGER

@<TRIPOS>ATOM
      1 C           8.7653   -0.8144   -3.3124 C.3     1  UNL1       -0.0653
      2 C           7.3490   -0.3436   -3.3251 C.3     1  UNL1       -0.0559
      3 C           6.7447   -0.2533   -1.9239 C.3     1  UNL1       -0.0533
      4 C           6.7910   -1.6398   -1.2955 C.3     1  UNL1       -0.0531
      5 C           6.0319   -2.6410   -2.0665 C.3     1  UNL1       -0.0526
      6 C           4.5889   -2.4289   -2.2840 C.3     1  UNL1       -0.0455
      7 C           3.6864   -2.4738   -1.1190 C.3     1  UNL1        0.0162
      8 C           3.8845   -1.5161   -0.0530 C.2     1  UNL1        0.1894
      9 O           4.3948   -1.9328    1.0163 O.2     1  UNL1       -0.2852
     10 S           3.4466    0.1983   -0.1568 S.3     1  UNL1       -0.0878
     11 C           2.3511    0.5530   -1.5153 C.3     1  UNL1        0.0044
     12 C           0.9550    0.0268   -1.2093 C.3     1  UNL1       -0.0252
     13 C           0.4374    0.7032    0.0122 C.2     1  UNL1       -0.0837
     14 C           0.1083    0.0219    1.0786 C.2     1  UNL1       -0.0474
     15 C          -0.4064    0.8227    2.2619 C.3     1  UNL1        0.1295
     16 C          -0.5166   -0.1419    3.4378 C.3     1  UNL1        0.0647
     17 C          -1.6165   -1.0916    3.3190 C.2     1  UNL1        0.2172
     18 O          -2.5250   -0.7369    2.4338 O.2     1  UNL1       -0.2757
     19 N          -2.0297   -2.2998    3.8685 N.am    1  UNL1       -0.3091
     20 C          -3.2635   -2.9885    3.5306 C.3     1  UNL1        0.0604
     21 C          -3.4295   -3.3178    2.1617 C.ar    1  UNL1        0.0961
     22 N          -3.7390   -2.5336    1.1739 N.ar    1  UNL1       -0.2404
     23 C          -3.9476   -2.7921   -0.0361 C.ar    1  UNL1        0.1027
     24 C          -3.8311   -4.1760   -0.4231 C.ar    1  UNL1        0.0054
     25 S          -3.3903   -4.9286    1.2216 S.2     1  UNL1       -0.0783
     26 C          -4.3162   -1.6987   -0.9704 C.2     1  UNL1        0.1187
     27 N          -3.6565   -0.6531   -1.0729 N.2     1  UNL1       -0.2585
     28 C          -4.2700    0.5587   -1.4832 C.3     1  UNL1        0.1448
     29 C          -3.6991    0.8142   -2.9058 C.3     1  UNL1       -0.0304
     30 C          -5.7306    0.3792   -1.7046 C.3     1  UNL1        0.0333
     31 S          -5.6645   -1.4577   -2.1143 S.3     1  UNL1       -0.1013
     32 C          -3.8378    1.6330   -0.5740 C.2     1  UNL1        0.2419
     33 O          -3.1747    2.6003   -1.1650 O.2     1  UNL1       -0.2731
     34 N          -3.9183    1.9557    0.7679 N.am    1  UNL1       -0.3001
     35 C          -3.2551    3.1663    1.3343 C.3     1  UNL1        0.1228
     36 C          -4.1351    3.8197    2.3459 C.3     1  UNL1       -0.0179
     37 C          -3.4482    5.0544    2.9243 C.3     1  UNL1       -0.0605
     38 C          -5.4413    4.2977    1.7347 C.3     1  UNL1       -0.0605
     39 C          -1.9097    2.7613    1.8500 C.2     1  UNL1        0.3285
     40 O          -1.0503    3.5640    2.2537 O.2     1  UNL1       -0.2487
     41 O          -1.6022    1.4149    1.8726 O.3     1  UNL1       -0.4554
     42 H           9.3298   -0.2690   -4.0896 H       1  UNL1        0.0230
     43 H           9.1873   -0.6288   -2.2984 H       1  UNL1        0.0230
     44 H           8.8615   -1.8973   -3.5643 H       1  UNL1        0.0230
     45 H           6.6630   -0.9678   -3.9299 H       1  UNL1        0.0263
     46 H           7.3402    0.7085   -3.7301 H       1  UNL1        0.0263
     47 H           5.7217    0.1111   -2.0375 H       1  UNL1        0.0265
     48 H           7.3943    0.4074   -1.3285 H       1  UNL1        0.0265
     49 H           6.5039   -1.5742   -0.2571 H       1  UNL1        0.0265
     50 H           7.8935   -1.9480   -1.3832 H       1  UNL1        0.0265
     51 H           6.2224   -3.6473   -1.5626 H       1  UNL1        0.0265
     52 H           6.4970   -2.8084   -3.0925 H       1  UNL1        0.0265
     53 H           4.2006   -3.1457   -3.1007 H       1  UNL1        0.0270
     54 H           4.4560   -1.4041   -2.7935 H       1  UNL1        0.0270
     55 H           3.6853   -3.5401   -0.6756 H       1  UNL1        0.0350
     56 H           2.6305   -2.4171   -1.5450 H       1  UNL1        0.0350
     57 H           2.2670    1.6631   -1.7112 H       1  UNL1        0.0384
     58 H           2.7277    0.1040   -2.4579 H       1  UNL1        0.0384
     59 H           0.3093    0.3309   -2.0785 H       1  UNL1        0.0315
     60 H           0.8801   -1.0425   -1.0823 H       1  UNL1        0.0315
     61 H           0.3400    1.7923   -0.0064 H       1  UNL1        0.0570
     62 H           0.1826   -1.0444    1.1566 H       1  UNL1        0.0605
     63 H           0.3369    1.5968    2.4810 H       1  UNL1        0.0784
     64 H          -0.7408    0.5362    4.3198 H       1  UNL1        0.0398
     65 H           0.4861   -0.5194    3.6161 H       1  UNL1        0.0398
     66 H          -1.5184   -2.8326    4.5707 H       1  UNL1        0.1491
     67 H          -3.3170   -3.9507    4.1445 H       1  UNL1        0.0532
     68 H          -4.1531   -2.4285    3.9486 H       1  UNL1        0.0532
     69 H          -3.9588   -4.6179   -1.2984 H       1  UNL1        0.0716
     70 H          -4.0299    1.8198   -3.1941 H       1  UNL1        0.0258
     71 H          -4.2163    0.0836   -3.5596 H       1  UNL1        0.0258
     72 H          -2.6114    0.7618   -2.9096 H       1  UNL1        0.0258
     73 H          -6.3309    0.4405   -0.7993 H       1  UNL1        0.0409
     74 H          -6.1099    0.8982   -2.5859 H       1  UNL1        0.0409
     75 H          -4.3994    1.4805    1.4920 H       1  UNL1        0.1496
     76 H          -3.0273    3.9142    0.5478 H       1  UNL1        0.0617
     77 H          -4.3237    3.1368    3.2023 H       1  UNL1        0.0319
     78 H          -2.8321    4.8020    3.8134 H       1  UNL1        0.0233
     79 H          -4.2058    5.8218    3.1158 H       1  UNL1        0.0233
     80 H          -2.7869    5.4502    2.1027 H       1  UNL1        0.0233
     81 H          -6.2361    3.5333    1.7549 H       1  UNL1        0.0233
     82 H          -5.3029    4.5757    0.6592 H       1  UNL1        0.0233
     83 H          -5.7466    5.2302    2.2420 H       1  UNL1        0.0233
@<TRIPOS>BOND
     1     1     2    1
     2     2     3    1
     3     3     4    1
     4     4     5    1
     5     5     6    1
     6     6     7    1
     7     7     8    1
     8     8     9    2
     9     8    10    1
    10    10    11    1
    11    11    12    1
    12    12    13    1
    13    13    14    2
    14    14    15    1
    15    15    16    1
    16    16    17    1
    17    17    18    2
    18    17    19   am
    19    19    20    1
    20    20    21    1
    21    21    22   ar
    22    22    23   ar
    23    23    24   ar
    24    24    25   ar
    25    23    26    1
    26    26    27    2
    27    27    28    1
    28    28    29    1
    29    28    30    1
    30    30    31    1
    31    28    32    1
    32    32    33    2
    33    32    34   am
    34    34    35    1
    35    35    36    1
    36    36    37    1
    37    36    38    1
    38    35    39    1
    39    39    40    2
    40    39    41    1
    41    41    15    1
    42    25    21   ar
    43    31    26    1
    44     1    42    1
    45     1    43    1
    46     1    44    1
    47     2    45    1
    48     2    46    1
    49     3    47    1
    50     3    48    1
    51     4    49    1
    52     4    50    1
    53     5    51    1
    54     5    52    1
    55     6    53    1
    56     6    54    1
    57     7    55    1
    58     7    56    1
    59    11    57    1
    60    11    58    1
    61    12    59    1
    62    12    60    1
    63    13    61    1
    64    14    62    1
    65    15    63    1
    66    16    64    1
    67    16    65    1
    68    19    66    1
    69    20    67    1
    70    20    68    1
    71    24    69    1
    72    29    70    1
    73    29    71    1
    74    29    72    1
    75    30    73    1
    76    30    74    1
    77    34    75    1
    78    35    76    1
    79    36    77    1
    80    37    78    1
    81    37    79    1
    82    37    80    1
    83    38    81    1
    84    38    82    1
    85    38    83    1
