
     RDKit          3D

 58 62  0  0  0  0  0  0  0  0999 V2000
    5.7779   -1.7214   -1.9192 C   0  0  0  0  0  0  0  0  0  0  0  0
    4.5056   -1.4001   -2.4365 O   0  0  0  0  0  0  0  0  0  0  0  0
    3.4966   -0.9082   -1.6144 C   0  0  0  0  0  0  0  0  0  0  0  0
    2.2849   -0.6190   -2.1928 C   0  0  0  0  0  0  0  0  0  0  0  0
    1.2653   -0.1312   -1.4083 C   0  0  0  0  0  0  0  0  0  0  0  0
    1.4061    0.0874   -0.0288 C   0  0  0  0  0  0  0  0  0  0  0  0
    0.2851    0.5926    0.6803 N   0  0  0  0  0  0  0  0  0  0  0  0
   -0.9396    0.8813    0.0127 C   0  0  0  0  0  0  0  0  0  0  0  0
   -1.9591    0.0098   -0.2348 C   0  0  0  0  0  0  0  0  0  0  0  0
   -2.0100   -1.3967    0.1288 C   0  0  0  0  0  0  0  0  0  0  0  0
   -1.5321   -2.3666   -0.7302 C   0  0  0  0  0  0  0  0  0  0  0  0
   -1.5617   -3.6984   -0.4284 C   0  0  0  0  0  0  0  0  0  0  0  0
   -2.0723   -4.1431    0.7540 C   0  0  0  0  0  0  0  0  0  0  0  0
   -2.1056   -5.4699    1.0631 N   0  0  0  0  0  0  0  0  0  0  0  0
   -2.6177   -5.8683    2.2408 C   0  0  0  0  0  0  0  0  0  0  0  0
   -3.1113   -4.9540    3.1436 C   0  0  0  0  0  0  0  0  0  0  0  0
   -3.0624   -3.6595    2.8064 N   0  0  0  0  0  0  0  0  0  0  0  0
   -2.5616   -3.2053    1.6434 C   0  0  0  0  0  0  0  0  0  0  0  0
   -2.5289   -1.8553    1.3315 C   0  0  0  0  0  0  0  0  0  0  0  0
   -2.9501    0.7340   -0.9090 C   0  0  0  0  0  0  0  0  0  0  0  0
   -4.2244    0.1141   -1.3475 C   0  0  0  0  0  0  0  0  0  0  0  0
   -2.4963    1.9908   -1.0384 N   0  0  0  0  0  0  0  0  0  0  0  0
   -1.2755    2.0781   -0.4782 N   0  0  0  0  0  0  0  0  0  0  0  0
   -0.5345    3.2730   -0.4494 C   0  0  0  0  0  0  0  0  0  0  0  0
    0.0802    3.7839   -1.5644 C   0  0  0  0  0  0  0  0  0  0  0  0
    0.8130    4.9784   -1.4975 C   0  0  0  0  0  0  0  0  0  0  0  0
    0.9206    5.6512   -0.3021 C   0  0  0  0  0  0  0  0  0  0  0  0
    0.3066    5.1457    0.8223 C   0  0  0  0  0  0  0  0  0  0  0  0
   -0.4102    3.9645    0.7270 C   0  0  0  0  0  0  0  0  0  0  0  0
   -1.0650    3.4330    1.9449 C   0  0  0  0  0  0  0  0  0  0  0  0
    2.6244   -0.2101    0.5154 C   0  0  0  0  0  0  0  0  0  0  0  0
    2.8977   -0.0232    1.9293 C   0  0  0  0  0  0  0  0  0  0  0  0
    4.0771   -0.3380    2.3347 O   0  0  0  0  0  0  0  0  0  0  0  0
    1.9945    0.4557    2.8254 O   0  0  0  0  0  0  0  0  0  0  0  0
    3.6722   -0.7102   -0.2844 C   0  0  0  0  0  0  0  0  0  0  0  0
    6.3396   -2.3291   -2.6632 H   0  0  0  0  0  0  0  0  0  0  0  0
    6.3893   -0.8160   -1.7193 H   0  0  0  0  0  0  0  0  0  0  0  0
    5.6686   -2.3392   -1.0159 H   0  0  0  0  0  0  0  0  0  0  0  0
    2.1212   -0.7718   -3.2690 H   0  0  0  0  0  0  0  0  0  0  0  0
    0.2826    0.1119   -1.8304 H   0  0  0  0  0  0  0  0  0  0  0  0
    0.3589    0.7524    1.6976 H   0  0  0  0  0  0  0  0  0  0  0  0
   -1.1198   -2.0063   -1.6846 H   0  0  0  0  0  0  0  0  0  0  0  0
   -1.1757   -4.4189   -1.1339 H   0  0  0  0  0  0  0  0  0  0  0  0
   -2.6477   -6.9140    2.4933 H   0  0  0  0  0  0  0  0  0  0  0  0
   -3.5220   -5.3013    4.0928 H   0  0  0  0  0  0  0  0  0  0  0  0
   -2.9048   -1.1242    2.0123 H   0  0  0  0  0  0  0  0  0  0  0  0
   -4.7579   -0.2730   -0.4333 H   0  0  0  0  0  0  0  0  0  0  0  0
   -4.0562   -0.7837   -1.9876 H   0  0  0  0  0  0  0  0  0  0  0  0
   -4.8514    0.8523   -1.8932 H   0  0  0  0  0  0  0  0  0  0  0  0
    0.0048    3.2667   -2.5117 H   0  0  0  0  0  0  0  0  0  0  0  0
    1.3054    5.3986   -2.3639 H   0  0  0  0  0  0  0  0  0  0  0  0
    1.4908    6.5907   -0.2263 H   0  0  0  0  0  0  0  0  0  0  0  0
    0.3763    5.6508    1.7629 H   0  0  0  0  0  0  0  0  0  0  0  0
   -1.6561    4.2498    2.4274 H   0  0  0  0  0  0  0  0  0  0  0  0
   -0.2504    3.1041    2.6317 H   0  0  0  0  0  0  0  0  0  0  0  0
   -1.7543    2.5998    1.6954 H   0  0  0  0  0  0  0  0  0  0  0  0
    2.3219    0.9532    3.6490 H   0  0  0  0  0  0  0  0  0  0  0  0
    4.6475   -0.9478    0.1545 H   0  0  0  0  0  0  0  0  0  0  0  0
  1  2  1  0
  2  3  1  0
  3  4  2  0
  4  5  1  0
  5  6  2  0
  6  7  1  0
  7  8  1  0
  8  9  2  0
  9 10  1  0
 10 11  2  0
 11 12  1  0
 12 13  2  0
 13 14  1  0
 14 15  2  0
 15 16  1  0
 16 17  2  0
 17 18  1  0
 18 19  2  0
  9 20  1  0
 20 21  1  0
 20 22  2  0
 22 23  1  0
 23 24  1  0
 24 25  2  0
 25 26  1  0
 26 27  2  0
 27 28  1  0
 28 29  2  0
 29 30  1  0
  6 31  1  0
 31 32  1  0
 32 33  2  0
 32 34  1  0
 31 35  2  0
 35  3  1  0
 23  8  1  0
 29 24  1  0
 19 10  1  0
 18 13  1  0
  1 36  1  0
  1 37  1  0
  1 38  1  0
  4 39  1  0
  5 40  1  0
  7 41  1  0
 11 42  1  0
 12 43  1  0
 15 44  1  0
 16 45  1  0
 19 46  1  0
 21 47  1  0
 21 48  1  0
 21 49  1  0
 25 50  1  0
 26 51  1  0
 27 52  1  0
 28 53  1  0
 30 54  1  0
 30 55  1  0
 30 56  1  0
 34 57  1  0
 35 58  1  0
M  END
$$$$
