@<TRIPOS>MOLECULE
*****
 58 62 0 0 0
SMALL
GASTEIGER

@<TRIPOS>ATOM
      1 C           5.7779   -1.7214   -1.9192 C.3     1  UNL1        0.0788
      2 O           4.5056   -1.4001   -2.4365 O.3     1  UNL1       -0.4951
      3 C           3.4966   -0.9082   -1.6144 C.ar    1  UNL1        0.1210
      4 C           2.2849   -0.6190   -2.1928 C.ar    1  UNL1       -0.0182
      5 C           1.2653   -0.1312   -1.4083 C.ar    1  UNL1       -0.0363
      6 C           1.4061    0.0874   -0.0288 C.ar    1  UNL1        0.0467
      7 N           0.2851    0.5926    0.6803 N.pl3   1  UNL1       -0.2982
      8 C          -0.9396    0.8813    0.0127 C.ar    1  UNL1        0.1346
      9 C          -1.9591    0.0098   -0.2348 C.ar    1  UNL1        0.0449
     10 C          -2.0100   -1.3967    0.1288 C.ar    1  UNL1       -0.0107
     11 C          -1.5321   -2.3666   -0.7302 C.ar    1  UNL1       -0.0517
     12 C          -1.5617   -3.6984   -0.4284 C.ar    1  UNL1       -0.0337
     13 C          -2.0723   -4.1431    0.7540 C.ar    1  UNL1        0.0892
     14 N          -2.1056   -5.4699    1.0631 N.ar    1  UNL1       -0.2519
     15 C          -2.6177   -5.8683    2.2408 C.ar    1  UNL1        0.0464
     16 C          -3.1113   -4.9540    3.1436 C.ar    1  UNL1        0.0464
     17 N          -3.0624   -3.6595    2.8064 N.ar    1  UNL1       -0.2519
     18 C          -2.5616   -3.2053    1.6434 C.ar    1  UNL1        0.0897
     19 C          -2.5289   -1.8553    1.3315 C.ar    1  UNL1       -0.0264
     20 C          -2.9501    0.7340   -0.9090 C.ar    1  UNL1        0.0699
     21 C          -4.2244    0.1141   -1.3475 C.3     1  UNL1       -0.0199
     22 N          -2.4963    1.9908   -1.0384 N.ar    1  UNL1       -0.1693
     23 N          -1.2755    2.0781   -0.4782 N.ar    1  UNL1       -0.2173
     24 C          -0.5345    3.2730   -0.4494 C.ar    1  UNL1        0.0703
     25 C           0.0802    3.7839   -1.5644 C.ar    1  UNL1       -0.0359
     26 C           0.8130    4.9784   -1.4975 C.ar    1  UNL1       -0.0597
     27 C           0.9206    5.6512   -0.3021 C.ar    1  UNL1       -0.0614
     28 C           0.3066    5.1457    0.8223 C.ar    1  UNL1       -0.0568
     29 C          -0.4102    3.9645    0.7270 C.ar    1  UNL1       -0.0250
     30 C          -1.0650    3.4330    1.9449 C.3     1  UNL1       -0.0377
     31 C           2.6244   -0.2101    0.5154 C.ar    1  UNL1        0.0834
     32 C           2.8977   -0.0232    1.9293 C.2     1  UNL1        0.3387
     33 O           4.0771   -0.3380    2.3347 O.2     1  UNL1       -0.2451
     34 O           1.9945    0.4557    2.8254 O.3     1  UNL1       -0.4771
     35 C           3.6722   -0.7102   -0.2844 C.ar    1  UNL1       -0.0042
     36 H           6.3396   -2.3291   -2.6632 H       1  UNL1        0.0660
     37 H           6.3893   -0.8160   -1.7193 H       1  UNL1        0.0660
     38 H           5.6686   -2.3392   -1.0159 H       1  UNL1        0.0660
     39 H           2.1212   -0.7718   -3.2690 H       1  UNL1        0.0655
     40 H           0.2826    0.1119   -1.8304 H       1  UNL1        0.0637
     41 H           0.3589    0.7524    1.6976 H       1  UNL1        0.1536
     42 H          -1.1198   -2.0063   -1.6846 H       1  UNL1        0.0624
     43 H          -1.1757   -4.4189   -1.1339 H       1  UNL1        0.0640
     44 H          -2.6477   -6.9140    2.4933 H       1  UNL1        0.0845
     45 H          -3.5220   -5.3013    4.0928 H       1  UNL1        0.0845
     46 H          -2.9048   -1.1242    2.0123 H       1  UNL1        0.0645
     47 H          -4.7579   -0.2730   -0.4333 H       1  UNL1        0.0293
     48 H          -4.0562   -0.7837   -1.9876 H       1  UNL1        0.0293
     49 H          -4.8514    0.8523   -1.8932 H       1  UNL1        0.0293
     50 H           0.0048    3.2667   -2.5117 H       1  UNL1        0.0639
     51 H           1.3054    5.3986   -2.3639 H       1  UNL1        0.0618
     52 H           1.4908    6.5907   -0.2263 H       1  UNL1        0.0618
     53 H           0.3763    5.6508    1.7629 H       1  UNL1        0.0621
     54 H          -1.6561    4.2498    2.4274 H       1  UNL1        0.0278
     55 H          -0.2504    3.1041    2.6317 H       1  UNL1        0.0278
     56 H          -1.7543    2.5998    1.6954 H       1  UNL1        0.0278
     57 H           2.3219    0.9532    3.6490 H       1  UNL1        0.2954
     58 H           4.6475   -0.9478    0.1545 H       1  UNL1        0.0663
@<TRIPOS>BOND
     1     1     2    1
     2     2     3    1
     3     3     4   ar
     4     4     5   ar
     5     5     6   ar
     6     6     7    1
     7     7     8    1
     8     8     9   ar
     9     9    10    1
    10    10    11   ar
    11    11    12   ar
    12    12    13   ar
    13    13    14   ar
    14    14    15   ar
    15    15    16   ar
    16    16    17   ar
    17    17    18   ar
    18    18    19   ar
    19     9    20   ar
    20    20    21    1
    21    20    22   ar
    22    22    23   ar
    23    23    24    1
    24    24    25   ar
    25    25    26   ar
    26    26    27   ar
    27    27    28   ar
    28    28    29   ar
    29    29    30    1
    30     6    31   ar
    31    31    32    1
    32    32    33    2
    33    32    34    1
    34    31    35   ar
    35    35     3   ar
    36    23     8   ar
    37    29    24   ar
    38    19    10   ar
    39    18    13   ar
    40     1    36    1
    41     1    37    1
    42     1    38    1
    43     4    39    1
    44     5    40    1
    45     7    41    1
    46    11    42    1
    47    12    43    1
    48    15    44    1
    49    16    45    1
    50    19    46    1
    51    21    47    1
    52    21    48    1
    53    21    49    1
    54    25    50    1
    55    26    51    1
    56    27    52    1
    57    28    53    1
    58    30    54    1
    59    30    55    1
    60    30    56    1
    61    34    57    1
    62    35    58    1
