@<TRIPOS>MOLECULE
*****
 120 123 0 0 0
SMALL
GASTEIGER

@<TRIPOS>ATOM
      1 C          -2.9355   -5.3219   -3.0297 C.3     1  UNL1       -0.0009
      2 N          -2.9366   -3.9007   -3.3556 N.am    1  UNL1       -0.3296
      3 C          -3.9708   -3.0395   -2.8632 C.2     1  UNL1        0.1300
      4 S          -5.1808   -3.6596   -1.9561 S.2     1  UNL1       -0.0189
      5 N          -3.9822   -1.6610   -3.1687 N.am    1  UNL1       -0.3266
      6 C          -5.0160   -0.8088   -2.6656 C.3     1  UNL1        0.0107
      7 C          -4.9528   -0.6127   -1.2110 C.3     1  UNL1       -0.0373
      8 C          -3.7600    0.0409   -0.6101 C.3     1  UNL1       -0.0495
      9 C          -2.4398   -0.6289   -0.8020 C.3     1  UNL1       -0.0259
     10 C          -1.3148    0.1051   -0.0975 C.3     1  UNL1        0.0994
     11 N          -1.3480    0.2170    1.2912 N.am    1  UNL1       -0.3027
     12 C          -1.9723   -0.6581    2.2148 C.2     1  UNL1        0.2326
     13 O          -2.5850   -1.6306    1.7179 O.2     1  UNL1       -0.2740
     14 C          -1.8819   -0.4341    3.6612 C.3     1  UNL1        0.1097
     15 C          -2.7559    0.6473    4.1731 C.3     1  UNL1       -0.0021
     16 C          -4.1999    0.3964    3.9657 C.ar    1  UNL1       -0.0454
     17 C          -4.9220    0.9649    2.9420 C.ar    1  UNL1       -0.0585
     18 C          -6.2565    0.6940    2.7655 C.ar    1  UNL1       -0.0615
     19 C          -6.9419   -0.1596    3.6026 C.ar    1  UNL1       -0.0617
     20 C          -6.1942   -0.7260    4.6338 C.ar    1  UNL1       -0.0615
     21 C          -4.8723   -0.4780    4.8353 C.ar    1  UNL1       -0.0585
     22 N          -2.3993   -1.6814    4.3020 N.3     1  UNL1       -0.1675
     23 S          -1.1559   -2.3553    5.2978 S.O2    1  UNL1        0.0978
     24 O          -0.3592   -1.1777    5.8376 O.2     1  UNL1       -0.1411
     25 O          -1.7034   -3.1814    6.4174 O.2     1  UNL1       -0.1411
     26 N          -0.1042   -3.2849    4.3394 N.3     1  UNL1       -0.1622
     27 C          -0.7533   -4.4089    3.6901 C.3     1  UNL1        0.0450
     28 C           0.2965   -5.1763    2.9017 C.3     1  UNL1        0.0621
     29 O           1.3273   -5.6187    3.7060 O.3     1  UNL1       -0.3771
     30 C           1.9660   -4.4606    4.2155 C.3     1  UNL1        0.0621
     31 C           0.9585   -3.8528    5.1776 C.3     1  UNL1        0.0450
     32 C          -0.0477   -0.5314   -0.5096 C.2     1  UNL1        0.2336
     33 O           0.3718   -1.5108    0.2030 O.2     1  UNL1       -0.2738
     34 N           0.7124   -0.1037   -1.6469 N.am    1  UNL1       -0.3084
     35 C           1.9358   -0.7439   -2.0484 C.3     1  UNL1        0.0498
     36 C           2.0512   -1.1860   -3.4456 C.3     1  UNL1       -0.0292
     37 C           1.9574   -0.2184   -4.5516 C.3     1  UNL1       -0.0393
     38 C           2.1268   -1.0458   -5.8493 C.3     1  UNL1       -0.0502
     39 C           2.4211   -0.1168   -6.9991 C.3     1  UNL1       -0.0528
     40 C           1.3941    1.0002   -7.0197 C.3     1  UNL1       -0.0530
     41 C           0.2063    0.5861   -6.1788 C.3     1  UNL1       -0.0528
     42 C           0.5983    0.4430   -4.7167 C.3     1  UNL1       -0.0502
     43 C           3.1622   -0.0968   -1.4482 C.3     1  UNL1        0.0817
     44 O           4.3334   -0.7055   -1.8500 O.3     1  UNL1       -0.3895
     45 C           3.1455    1.3958   -1.6198 C.3     1  UNL1        0.0519
     46 C           4.3850    1.9965   -1.0000 C.2     1  UNL1        0.2182
     47 O           5.1604    1.2313   -0.3868 O.2     1  UNL1       -0.2755
     48 N           4.6909    3.3667   -1.0843 N.am    1  UNL1       -0.2968
     49 C           3.8584    4.3079   -1.7927 C.3     1  UNL1        0.0382
     50 C           4.0150    5.6314   -1.0736 C.3     1  UNL1        0.0638
     51 O           4.2200    5.4878    0.2717 O.3     1  UNL1       -0.3734
     52 C           5.3894    4.8391    0.6387 C.3     1  UNL1        0.0756
     53 C           6.4633    5.8153    1.0574 C.3     1  UNL1       -0.0127
     54 C           7.7451    5.1544    1.4883 C.3     1  UNL1       -0.0045
     55 N           8.3030    4.3945    0.4057 N.3     1  UNL1       -0.3299
     56 C           5.8816    3.8790   -0.4333 C.3     1  UNL1        0.0411
     57 H          -1.9388   -5.7551   -3.1862 H       1  UNL1        0.0426
     58 H          -3.7727   -5.8658   -3.5035 H       1  UNL1        0.0426
     59 H          -3.1463   -5.4063   -1.9197 H       1  UNL1        0.0426
     60 H          -2.1941   -3.4907   -3.9473 H       1  UNL1        0.1474
     61 H          -3.2445   -1.2201   -3.7934 H       1  UNL1        0.1477
     62 H          -5.9892   -1.3094   -2.9738 H       1  UNL1        0.0462
     63 H          -5.0488    0.1707   -3.2143 H       1  UNL1        0.0462
     64 H          -5.9102   -0.0784   -0.9054 H       1  UNL1        0.0280
     65 H          -5.0682   -1.5949   -0.6493 H       1  UNL1        0.0280
     66 H          -3.6834    1.0670   -1.1181 H       1  UNL1        0.0266
     67 H          -4.0100    0.2315    0.4502 H       1  UNL1        0.0266
     68 H          -2.1674   -0.5222   -1.8946 H       1  UNL1        0.0288
     69 H          -2.4572   -1.7124   -0.6177 H       1  UNL1        0.0288
     70 H          -1.3643    1.1402   -0.5551 H       1  UNL1        0.0594
     71 H          -0.8465    1.0593    1.7195 H       1  UNL1        0.1495
     72 H          -0.8133   -0.3022    3.9780 H       1  UNL1        0.0576
     73 H          -2.4875    1.6482    3.7439 H       1  UNL1        0.0334
     74 H          -2.6201    0.6822    5.2840 H       1  UNL1        0.0334
     75 H          -4.3920    1.6652    2.2678 H       1  UNL1        0.0620
     76 H          -6.7968    1.1671    1.9390 H       1  UNL1        0.0618
     77 H          -7.9838   -0.3963    3.4991 H       1  UNL1        0.0618
     78 H          -6.7485   -1.4017    5.2943 H       1  UNL1        0.0618
     79 H          -4.3007   -0.9269    5.6415 H       1  UNL1        0.0620
     80 H          -2.7126   -2.3626    3.5953 H       1  UNL1        0.1500
     81 H          -1.5014   -4.0748    2.9405 H       1  UNL1        0.0467
     82 H          -1.1942   -5.0675    4.4455 H       1  UNL1        0.0467
     83 H          -0.2006   -6.0727    2.4787 H       1  UNL1        0.0573
     84 H           0.6537   -4.5279    2.0683 H       1  UNL1        0.0573
     85 H           2.1283   -3.7970    3.3378 H       1  UNL1        0.0573
     86 H           2.9328   -4.6914    4.6897 H       1  UNL1        0.0573
     87 H           1.3604   -3.0498    5.7940 H       1  UNL1        0.0467
     88 H           0.5050   -4.6628    5.7959 H       1  UNL1        0.0467
     89 H           0.3213    0.7023   -2.1548 H       1  UNL1        0.1491
     90 H           1.8934   -1.7435   -1.4480 H       1  UNL1        0.0524
     91 H           1.2901   -2.0019   -3.6032 H       1  UNL1        0.0287
     92 H           3.0332   -1.7482   -3.5300 H       1  UNL1        0.0287
     93 H           2.7322    0.5393   -4.6165 H       1  UNL1        0.0301
     94 H           1.2057   -1.6477   -6.0170 H       1  UNL1        0.0268
     95 H           2.9801   -1.7527   -5.7594 H       1  UNL1        0.0268
     96 H           2.3956   -0.6929   -7.9499 H       1  UNL1        0.0265
     97 H           3.4051    0.3334   -6.8457 H       1  UNL1        0.0265
     98 H           1.7816    1.9671   -6.7041 H       1  UNL1        0.0265
     99 H           1.0398    1.1049   -8.0642 H       1  UNL1        0.0265
    100 H          -0.2608   -0.3347   -6.5216 H       1  UNL1        0.0265
    101 H          -0.5409    1.3946   -6.2464 H       1  UNL1        0.0265
    102 H           0.6339    1.4872   -4.3239 H       1  UNL1        0.0268
    103 H          -0.2084   -0.1738   -4.2729 H       1  UNL1        0.0268
    104 H           3.1361   -0.2525   -0.3226 H       1  UNL1        0.0616
    105 H           4.4104   -1.5984   -1.4836 H       1  UNL1        0.2099
    106 H           3.0246    1.7678   -2.6319 H       1  UNL1        0.0384
    107 H           2.2540    1.7596   -1.0237 H       1  UNL1        0.0384
    108 H           2.8075    4.0317   -1.8505 H       1  UNL1        0.0487
    109 H           4.3033    4.4738   -2.8185 H       1  UNL1        0.0487
    110 H           3.0828    6.2283   -1.2020 H       1  UNL1        0.0575
    111 H           4.8366    6.2370   -1.5057 H       1  UNL1        0.0575
    112 H           5.1511    4.2543    1.5755 H       1  UNL1        0.0612
    113 H           6.6983    6.5407    0.2389 H       1  UNL1        0.0303
    114 H           6.0640    6.3463    1.9668 H       1  UNL1        0.0303
    115 H           8.4857    5.8884    1.8739 H       1  UNL1        0.0423
    116 H           7.5225    4.4050    2.3125 H       1  UNL1        0.0423
    117 H           8.9017    5.0331   -0.1757 H       1  UNL1        0.1182
    118 H           8.9192    3.6375    0.8092 H       1  UNL1        0.1182
    119 H           6.4379    3.0585    0.0774 H       1  UNL1        0.0490
    120 H           6.5187    4.4459   -1.1291 H       1  UNL1        0.0490
@<TRIPOS>BOND
     1     1     2    1
     2     2     3    1
     3     3     4    2
     4     3     5    1
     5     5     6    1
     6     6     7    1
     7     7     8    1
     8     8     9    1
     9     9    10    1
    10    10    11    1
    11    11    12   am
    12    12    13    2
    13    12    14    1
    14    14    15    1
    15    15    16    1
    16    16    17   ar
    17    17    18   ar
    18    18    19   ar
    19    19    20   ar
    20    20    21   ar
    21    14    22    1
    22    22    23    1
    23    23    24    2
    24    23    25    2
    25    23    26    1
    26    26    27    1
    27    27    28    1
    28    28    29    1
    29    29    30    1
    30    30    31    1
    31    10    32    1
    32    32    33    2
    33    32    34   am
    34    34    35    1
    35    35    36    1
    36    36    37    1
    37    37    38    1
    38    38    39    1
    39    39    40    1
    40    40    41    1
    41    41    42    1
    42    35    43    1
    43    43    44    1
    44    43    45    1
    45    45    46    1
    46    46    47    2
    47    46    48   am
    48    48    49    1
    49    49    50    1
    50    50    51    1
    51    51    52    1
    52    52    53    1
    53    53    54    1
    54    54    55    1
    55    52    56    1
    56    21    16   ar
    57    31    26    1
    58    42    37    1
    59    56    48    1
    60     1    57    1
    61     1    58    1
    62     1    59    1
    63     2    60    1
    64     5    61    1
    65     6    62    1
    66     6    63    1
    67     7    64    1
    68     7    65    1
    69     8    66    1
    70     8    67    1
    71     9    68    1
    72     9    69    1
    73    10    70    1
    74    11    71    1
    75    14    72    1
    76    15    73    1
    77    15    74    1
    78    17    75    1
    79    18    76    1
    80    19    77    1
    81    20    78    1
    82    21    79    1
    83    22    80    1
    84    27    81    1
    85    27    82    1
    86    28    83    1
    87    28    84    1
    88    30    85    1
    89    30    86    1
    90    31    87    1
    91    31    88    1
    92    34    89    1
    93    35    90    1
    94    36    91    1
    95    36    92    1
    96    37    93    1
    97    38    94    1
    98    38    95    1
    99    39    96    1
   100    39    97    1
   101    40    98    1
   102    40    99    1
   103    41   100    1
   104    41   101    1
   105    42   102    1
   106    42   103    1
   107    43   104    1
   108    44   105    1
   109    45   106    1
   110    45   107    1
   111    49   108    1
   112    49   109    1
   113    50   110    1
   114    50   111    1
   115    52   112    1
   116    53   113    1
   117    53   114    1
   118    54   115    1
   119    54   116    1
   120    55   117    1
   121    55   118    1
   122    56   119    1
   123    56   120    1
