@<TRIPOS>MOLECULE
*****
 30 31 0 0 0
SMALL
GASTEIGER

@<TRIPOS>ATOM
      1 C          -1.6353   -2.5791    0.1268 C.3     1  UNL1       -0.0626
      2 C          -0.2191   -2.0939   -0.0943 C.3     1  UNL1       -0.0216
      3 C          -0.1645   -0.6070   -0.2568 C.3     1  UNL1        0.1376
      4 N          -0.9600   -0.1966   -1.3967 N.am    1  UNL1       -0.2811
      5 C          -1.8510    0.8674   -1.0900 C.2     1  UNL1        0.3094
      6 O          -2.4519    1.5139   -1.9667 O.2     1  UNL1       -0.2522
      7 N          -1.8483    0.9572    0.3264 N.am    1  UNL1       -0.2271
      8 C          -2.6402    1.9320    1.0436 C.3     1  UNL1        0.0124
      9 C          -0.9752   -0.0301    0.8703 C.2     1  UNL1        0.2508
     10 O          -0.8966   -0.3621    2.0877 O.2     1  UNL1       -0.2724
     11 C           1.1623   -0.0211   -0.1886 C.ar    1  UNL1       -0.0153
     12 C           2.2900   -0.7798   -0.3236 C.ar    1  UNL1       -0.0561
     13 C           3.5186   -0.1563   -0.2481 C.ar    1  UNL1       -0.0614
     14 C           3.6101    1.2101   -0.0400 C.ar    1  UNL1       -0.0617
     15 C           2.4744    2.0059    0.1007 C.ar    1  UNL1       -0.0614
     16 C           1.2343    1.3585    0.0218 C.ar    1  UNL1       -0.0561
     17 H          -1.8469   -3.5264   -0.4018 H       1  UNL1        0.0231
     18 H          -1.7684   -2.7485    1.2311 H       1  UNL1        0.0231
     19 H          -2.3277   -1.7983   -0.2513 H       1  UNL1        0.0231
     20 H           0.4061   -2.4982    0.6910 H       1  UNL1        0.0291
     21 H           0.1109   -2.5458   -1.0641 H       1  UNL1        0.0291
     22 H          -0.8209   -0.6950   -2.3156 H       1  UNL1        0.1516
     23 H          -3.7009    1.6420    0.8858 H       1  UNL1        0.0434
     24 H          -2.4800    2.9145    0.5461 H       1  UNL1        0.0434
     25 H          -2.3545    1.9451    2.1115 H       1  UNL1        0.0434
     26 H           2.2573   -1.8486   -0.4870 H       1  UNL1        0.0621
     27 H           4.4638   -0.6501   -0.3394 H       1  UNL1        0.0618
     28 H           4.5551    1.7644    0.0295 H       1  UNL1        0.0618
     29 H           2.5438    3.0771    0.2639 H       1  UNL1        0.0618
     30 H           0.3146    1.9487    0.1274 H       1  UNL1        0.0621
@<TRIPOS>BOND
     1     1     2    1
     2     2     3    1
     3     3     4    1
     4     4     5   am
     5     5     6    2
     6     5     7   am
     7     7     8    1
     8     7     9   am
     9     9    10    2
    10     3    11    1
    11    11    12   ar
    12    12    13   ar
    13    13    14   ar
    14    14    15   ar
    15    15    16   ar
    16     9     3    1
    17    16    11   ar
    18     1    17    1
    19     1    18    1
    20     1    19    1
    21     2    20    1
    22     2    21    1
    23     4    22    1
    24     8    23    1
    25     8    24    1
    26     8    25    1
    27    12    26    1
    28    13    27    1
    29    14    28    1
    30    15    29    1
    31    16    30    1
