@<TRIPOS>MOLECULE
*****
 44 48 0 0 0
SMALL
GASTEIGER

@<TRIPOS>ATOM
      1 C          -3.3535    2.1460   -0.5373 C.3     1  UNL1       -0.0390
      2 C          -4.5923    1.2902   -0.5288 C.ar    1  UNL1       -0.0384
      3 C          -5.8284    1.8576   -0.7056 C.ar    1  UNL1       -0.0581
      4 C          -6.9432    1.0544   -0.6935 C.ar    1  UNL1       -0.0601
      5 C          -6.8315   -0.3105   -0.5062 C.ar    1  UNL1       -0.0427
      6 C          -5.5684   -0.8914   -0.3254 C.ar    1  UNL1        0.0518
      7 CL         -5.4974   -2.6419   -0.0922 Cl      1  UNL1       -0.0828
      8 C          -4.4474   -0.0992   -0.3355 C.ar    1  UNL1        0.0385
      9 C          -3.1166   -0.6536   -0.1530 C.ar    1  UNL1        0.1411
     10 N          -1.9743    0.0878   -0.1620 N.ar    1  UNL1       -0.2268
     11 C          -0.8942   -0.6537    0.0247 C.ar    1  UNL1        0.1039
     12 C          -1.3255   -1.9402    0.1644 C.ar    1  UNL1        0.1322
     13 N          -2.6920   -1.8937    0.0488 N.ar    1  UNL1       -0.3336
     14 C          -0.4413   -2.9746    0.3751 C.ar    1  UNL1        0.2748
     15 O          -0.8592   -4.1675    0.5032 O.2     1  UNL1       -0.2656
     16 N           0.8687   -2.7216    0.4456 N.ar    1  UNL1       -0.3203
     17 C           1.3230   -1.4656    0.3119 C.ar    1  UNL1        0.0519
     18 C           2.6949   -1.2060    0.3862 C.ar    1  UNL1       -0.0299
     19 C           3.2073    0.0604    0.2555 C.ar    1  UNL1       -0.0159
     20 C           4.6477    0.3421    0.3324 C.ar    1  UNL1       -0.0178
     21 C           5.1996    1.3875   -0.3894 C.ar    1  UNL1       -0.0540
     22 C           6.5415    1.6774   -0.3394 C.ar    1  UNL1       -0.0612
     23 C           7.3680    0.8927    0.4635 C.ar    1  UNL1       -0.0617
     24 C           6.8616   -0.1439    1.1878 C.ar    1  UNL1       -0.0612
     25 C           5.5024   -0.4073    1.1128 C.ar    1  UNL1       -0.0540
     26 C           2.3011    1.1021    0.0421 C.ar    1  UNL1       -0.0533
     27 C           0.9449    0.8628   -0.0338 C.ar    1  UNL1       -0.0499
     28 C           0.4585   -0.4156    0.1006 C.ar    1  UNL1        0.0260
     29 H          -2.8336    2.1627    0.4198 H       1  UNL1        0.0278
     30 H          -2.7432    1.8802   -1.4205 H       1  UNL1        0.0278
     31 H          -3.7086    3.1996   -0.7758 H       1  UNL1        0.0278
     32 H          -5.9528    2.9107   -0.8532 H       1  UNL1        0.0620
     33 H          -7.9161    1.5150   -0.8345 H       1  UNL1        0.0618
     34 H          -7.6856   -0.9648   -0.4919 H       1  UNL1        0.0632
     35 H          -3.2284   -2.7607    0.1236 H       1  UNL1        0.1675
     36 H           1.5848   -3.4783    0.6053 H       1  UNL1        0.1690
     37 H           3.3744   -2.0213    0.5508 H       1  UNL1        0.0644
     38 H           4.5681    1.9889   -1.0042 H       1  UNL1        0.0624
     39 H           7.0121    2.4810   -0.8846 H       1  UNL1        0.0618
     40 H           8.4354    1.0924    0.5282 H       1  UNL1        0.0618
     41 H           7.5241   -0.7485    1.8120 H       1  UNL1        0.0618
     42 H           5.0665   -1.2200    1.6723 H       1  UNL1        0.0624
     43 H           2.7101    2.1005   -0.0605 H       1  UNL1        0.0624
     44 H           0.2390    1.6879   -0.2020 H       1  UNL1        0.0625
@<TRIPOS>BOND
     1     1     2    1
     2     2     3   ar
     3     3     4   ar
     4     4     5   ar
     5     5     6   ar
     6     6     7    1
     7     6     8   ar
     8     8     9    1
     9     9    10   ar
    10    10    11   ar
    11    11    12   ar
    12    12    13   ar
    13    12    14   ar
    14    14    15    2
    15    14    16   ar
    16    16    17   ar
    17    17    18   ar
    18    18    19   ar
    19    19    20    1
    20    20    21   ar
    21    21    22   ar
    22    22    23   ar
    23    23    24   ar
    24    24    25   ar
    25    19    26   ar
    26    26    27   ar
    27    27    28   ar
    28     8     2   ar
    29    13     9   ar
    30    28    17   ar
    31    28    11   ar
    32    25    20   ar
    33     1    29    1
    34     1    30    1
    35     1    31    1
    36     3    32    1
    37     4    33    1
    38     5    34    1
    39    13    35    1
    40    16    36    1
    41    18    37    1
    42    21    38    1
    43    22    39    1
    44    23    40    1
    45    24    41    1
    46    25    42    1
    47    26    43    1
    48    27    44    1
