
     RDKit          3D

 29 30  0  0  0  0  0  0  0  0999 V2000
    5.4056   -0.1718    0.8030 O   0  0  0  0  0  0  0  0  0  0  0  0
    4.7610    0.0671   -0.4028 C   0  0  0  0  0  0  0  0  0  0  0  0
    5.4305    0.2894   -1.4546 O   0  0  0  0  0  0  0  0  0  0  0  0
    3.3000    0.0497   -0.3976 C   0  0  0  0  0  0  0  0  0  0  0  0
    2.5490   -0.1898    0.7344 C   0  0  0  0  0  0  0  0  0  0  0  0
    1.1719   -0.1908    0.6635 C   0  0  0  0  0  0  0  0  0  0  0  0
    0.4853    0.0414   -0.5116 C   0  0  0  0  0  0  0  0  0  0  0  0
    1.2042    0.2848   -1.6646 C   0  0  0  0  0  0  0  0  0  0  0  0
    2.5810    0.2809   -1.5695 C   0  0  0  0  0  0  0  0  0  0  0  0
   -0.8809    0.0321   -0.5412 C   0  0  0  0  0  0  0  0  0  0  0  0
   -1.6539   -0.2031    0.5684 C   0  0  0  0  0  0  0  0  0  0  0  0
   -0.9975   -0.4434    1.7815 C   0  0  0  0  0  0  0  0  0  0  0  0
    0.4025   -0.4282    1.7843 C   0  0  0  0  0  0  0  0  0  0  0  0
   -3.1174   -0.2447    0.6915 C   0  0  0  0  0  0  0  0  0  0  0  0
   -3.4552    0.5535    1.7846 F   0  0  0  0  0  0  0  0  0  0  0  0
   -3.5333   -1.5269    1.0565 F   0  0  0  0  0  0  0  0  0  0  0  0
   -4.0363    0.3057   -0.7282 P   0  0  0  0  0  0  0  0  0  0  0  0
   -4.3081   -0.9995   -1.7469 O   0  0  0  0  0  0  0  0  0  0  0  0
   -3.3408    1.5576   -1.5697 O   0  0  0  0  0  0  0  0  0  0  0  0
   -5.4191    0.7743   -0.2716 O   0  0  0  0  0  0  0  0  0  0  0  0
    6.4042   -0.0169    0.8562 H   0  0  0  0  0  0  0  0  0  0  0  0
    3.0449   -0.3757    1.6723 H   0  0  0  0  0  0  0  0  0  0  0  0
    0.7195    0.4705   -2.6007 H   0  0  0  0  0  0  0  0  0  0  0  0
    3.1893    0.4668   -2.4470 H   0  0  0  0  0  0  0  0  0  0  0  0
   -1.4374    0.2078   -1.4329 H   0  0  0  0  0  0  0  0  0  0  0  0
   -1.4758   -0.6468    2.7515 H   0  0  0  0  0  0  0  0  0  0  0  0
    0.9561   -0.6087    2.6988 H   0  0  0  0  0  0  0  0  0  0  0  0
   -4.7748   -1.6994   -1.1901 H   0  0  0  0  0  0  0  0  0  0  0  0
   -3.1746    2.3643   -1.0593 H   0  0  0  0  0  0  0  0  0  0  0  0
  1  2  1  0
  2  3  2  0
  2  4  1  0
  4  5  2  0
  5  6  1  0
  6  7  2  0
  7  8  1  0
  8  9  2  0
  7 10  1  0
 10 11  2  0
 11 12  1  0
 12 13  2  0
 11 14  1  0
 14 15  1  0
 14 16  1  0
 14 17  1  0
 17 18  1  0
 17 19  1  0
 17 20  2  0
  9  4  1  0
 13  6  1  0
  1 21  1  0
  5 22  1  0
  8 23  1  0
  9 24  1  0
 10 25  1  0
 12 26  1  0
 13 27  1  0
 18 28  1  0
 19 29  1  0
M  END
$$$$
