@<TRIPOS>MOLECULE
*****
 29 30 0 0 0
SMALL
GASTEIGER

@<TRIPOS>ATOM
      1 O           5.4056   -0.1718    0.8030 O.3     1  UNL1       -0.4771
      2 C           4.7610    0.0671   -0.4028 C.2     1  UNL1        0.3368
      3 O           5.4305    0.2894   -1.4546 O.2     1  UNL1       -0.2451
      4 C           3.3000    0.0497   -0.3976 C.ar    1  UNL1        0.0594
      5 C           2.5490   -0.1898    0.7344 C.ar    1  UNL1       -0.0400
      6 C           1.1719   -0.1908    0.6635 C.ar    1  UNL1       -0.0171
      7 C           0.4853    0.0414   -0.5116 C.ar    1  UNL1       -0.0174
      8 C           1.2042    0.2848   -1.6646 C.ar    1  UNL1       -0.0532
      9 C           2.5810    0.2809   -1.5695 C.ar    1  UNL1       -0.0472
     10 C          -0.8809    0.0321   -0.5412 C.ar    1  UNL1       -0.0446
     11 C          -1.6539   -0.2031    0.5684 C.ar    1  UNL1        0.0334
     12 C          -0.9975   -0.4434    1.7815 C.ar    1  UNL1       -0.0517
     13 C           0.4025   -0.4282    1.7843 C.ar    1  UNL1       -0.0536
     14 C          -3.1174   -0.2447    0.6915 C.3     1  UNL1        0.3711
     15 F          -3.4552    0.5535    1.7846 F       1  UNL1       -0.1866
     16 F          -3.5333   -1.5269    1.0565 F       1  UNL1       -0.1866
     17 P          -4.0363    0.3057   -0.7282 P.3     1  UNL1        0.4007
     18 O          -4.3081   -0.9995   -1.7469 O.3     1  UNL1       -0.3199
     19 O          -3.3408    1.5576   -1.5697 O.3     1  UNL1       -0.3199
     20 O          -5.4191    0.7743   -0.2716 O.2     1  UNL1       -0.2522
     21 H           6.4042   -0.0169    0.8562 H       1  UNL1        0.2954
     22 H           3.0449   -0.3757    1.6723 H       1  UNL1        0.0632
     23 H           0.7195    0.4705   -2.6007 H       1  UNL1        0.0624
     24 H           3.1893    0.4668   -2.4470 H       1  UNL1        0.0626
     25 H          -1.4374    0.2078   -1.4329 H       1  UNL1        0.0628
     26 H          -1.4758   -0.6468    2.7515 H       1  UNL1        0.0622
     27 H           0.9561   -0.6087    2.6988 H       1  UNL1        0.0624
     28 H          -4.7748   -1.6994   -1.1901 H       1  UNL1        0.2199
     29 H          -3.1746    2.3643   -1.0593 H       1  UNL1        0.2199
@<TRIPOS>BOND
     1     1     2    1
     2     2     3    2
     3     2     4    1
     4     4     5   ar
     5     5     6   ar
     6     6     7   ar
     7     7     8   ar
     8     8     9   ar
     9     7    10   ar
    10    10    11   ar
    11    11    12   ar
    12    12    13   ar
    13    11    14    1
    14    14    15    1
    15    14    16    1
    16    14    17    1
    17    17    18    1
    18    17    19    1
    19    17    20    2
    20     9     4   ar
    21    13     6   ar
    22     1    21    1
    23     5    22    1
    24     8    23    1
    25     9    24    1
    26    10    25    1
    27    12    26    1
    28    13    27    1
    29    18    28    1
    30    19    29    1
