
     RDKit          3D

 46 49  0  0  0  0  0  0  0  0999 V2000
   -0.1105    0.2435   -2.2716 C   0  0  0  0  0  0  0  0  0  0  0  0
    0.6327    0.1249   -1.0243 N   0  0  0  0  0  0  0  0  0  0  0  0
    1.9814    0.0468   -1.0778 C   0  0  0  0  0  0  0  0  0  0  0  0
    2.4935    0.0838   -2.2512 O   0  0  0  0  0  0  0  0  0  0  0  0
    2.7373   -0.0656    0.0573 C   0  0  0  0  0  0  0  0  0  0  0  0
    4.0217   -0.1474    0.1302 O   0  0  0  0  0  0  0  0  0  0  0  0
    5.2671    0.1824    0.0083 C   0  0  0  0  0  0  0  0  0  0  0  0
    6.0241    0.3039    1.2182 C   0  0  0  0  0  0  0  0  0  0  0  0
    7.3487    0.6476    1.2089 C   0  0  0  0  0  0  0  0  0  0  0  0
    8.0024    0.8901    0.0211 C   0  0  0  0  0  0  0  0  0  0  0  0
    9.3051    1.2297    0.0132 F   0  0  0  0  0  0  0  0  0  0  0  0
    7.3252    0.7873   -1.1653 C   0  0  0  0  0  0  0  0  0  0  0  0
    5.9615    0.4324   -1.1427 C   0  0  0  0  0  0  0  0  0  0  0  0
    5.3162    0.3248   -2.3289 F   0  0  0  0  0  0  0  0  0  0  0  0
    2.0224   -0.0952    1.2839 C   0  0  0  0  0  0  0  0  0  0  0  0
    0.6625   -0.0145    1.3034 C   0  0  0  0  0  0  0  0  0  0  0  0
   -0.0760   -0.0388    2.4751 C   0  0  0  0  0  0  0  0  0  0  0  0
   -1.4166    0.0444    2.4436 N   0  0  0  0  0  0  0  0  0  0  0  0
   -2.1120    0.1543    1.2963 C   0  0  0  0  0  0  0  0  0  0  0  0
   -3.5327    0.2449    1.2889 N   0  0  0  0  0  0  0  0  0  0  0  0
   -4.3142    0.3574    0.0864 C   0  0  0  0  0  0  0  0  0  0  0  0
   -5.7787    0.4820    0.3776 C   0  0  0  0  0  0  0  0  0  0  0  0
   -6.5421   -0.7918    0.4212 C   0  0  0  0  0  0  0  0  0  0  0  0
   -5.6599   -1.8615    0.3079 O   0  0  0  0  0  0  0  0  0  0  0  0
   -5.1054   -1.7666   -0.9780 C   0  0  0  0  0  0  0  0  0  0  0  0
   -4.0163   -0.7168   -0.9362 C   0  0  0  0  0  0  0  0  0  0  0  0
   -1.3963    0.1777    0.1635 N   0  0  0  0  0  0  0  0  0  0  0  0
   -0.0347    0.0972    0.1273 C   0  0  0  0  0  0  0  0  0  0  0  0
    0.5543    0.2928   -3.1321 H   0  0  0  0  0  0  0  0  0  0  0  0
   -0.7131    1.1907   -2.1652 H   0  0  0  0  0  0  0  0  0  0  0  0
   -0.8547   -0.5760   -2.3548 H   0  0  0  0  0  0  0  0  0  0  0  0
    5.5147    0.1143    2.1534 H   0  0  0  0  0  0  0  0  0  0  0  0
    7.9449    0.7464    2.1112 H   0  0  0  0  0  0  0  0  0  0  0  0
    7.8229    0.9742   -2.1090 H   0  0  0  0  0  0  0  0  0  0  0  0
    2.5663   -0.1841    2.2295 H   0  0  0  0  0  0  0  0  0  0  0  0
    0.4863   -0.1273    3.3968 H   0  0  0  0  0  0  0  0  0  0  0  0
   -4.0539    0.2300    2.2088 H   0  0  0  0  0  0  0  0  0  0  0  0
   -4.0033    1.3290   -0.3978 H   0  0  0  0  0  0  0  0  0  0  0  0
   -5.9180    0.9899    1.3733 H   0  0  0  0  0  0  0  0  0  0  0  0
   -6.2893    1.1732   -0.3551 H   0  0  0  0  0  0  0  0  0  0  0  0
   -7.1772   -0.8794    1.3303 H   0  0  0  0  0  0  0  0  0  0  0  0
   -7.2359   -0.8791   -0.4627 H   0  0  0  0  0  0  0  0  0  0  0  0
   -5.9362   -1.4561   -1.6502 H   0  0  0  0  0  0  0  0  0  0  0  0
   -4.7557   -2.7542   -1.2816 H   0  0  0  0  0  0  0  0  0  0  0  0
   -3.8707   -0.2958   -1.9527 H   0  0  0  0  0  0  0  0  0  0  0  0
   -3.0876   -1.2451   -0.6691 H   0  0  0  0  0  0  0  0  0  0  0  0
  1  2  1  0
  2  3  1  0
  3  4  2  0
  3  5  1  0
  5  6  1  0
  6  7  1  0
  7  8  2  0
  8  9  1  0
  9 10  2  0
 10 11  1  0
 10 12  1  0
 12 13  2  0
 13 14  1  0
  5 15  2  0
 15 16  1  0
 16 17  2  0
 17 18  1  0
 18 19  2  0
 19 20  1  0
 20 21  1  0
 21 22  1  0
 22 23  1  0
 23 24  1  0
 24 25  1  0
 25 26  1  0
 19 27  1  0
 27 28  2  0
 28  2  1  0
 13  7  1  0
 28 16  1  0
 26 21  1  0
  1 29  1  0
  1 30  1  0
  1 31  1  0
  8 32  1  0
  9 33  1  0
 12 34  1  0
 15 35  1  0
 17 36  1  0
 20 37  1  0
 21 38  1  0
 22 39  1  0
 22 40  1  0
 23 41  1  0
 23 42  1  0
 25 43  1  0
 25 44  1  0
 26 45  1  0
 26 46  1  0
M  END
$$$$
