@<TRIPOS>MOLECULE
*****
 46 49 0 0 0
SMALL
GASTEIGER

@<TRIPOS>ATOM
      1 C          -0.1105    0.2435   -2.2716 C.3     1  UNL1        0.0168
      2 N           0.6327    0.1249   -1.0243 N.ar    1  UNL1       -0.2928
      3 C           1.9814    0.0468   -1.0778 C.ar    1  UNL1        0.2951
      4 O           2.4935    0.0838   -2.2512 O.2     1  UNL1       -0.2636
      5 C           2.7373   -0.0656    0.0573 C.ar    1  UNL1        0.1934
      6 O           4.0217   -0.1474    0.1302 O.3     1  UNL1       -0.4477
      7 C           5.2671    0.1824    0.0083 C.ar    1  UNL1        0.1639
      8 C           6.0241    0.3039    1.2182 C.ar    1  UNL1       -0.0137
      9 C           7.3487    0.6476    1.2089 C.ar    1  UNL1       -0.0228
     10 C           8.0024    0.8901    0.0211 C.ar    1  UNL1        0.1264
     11 F           9.3051    1.2297    0.0132 F       1  UNL1       -0.2054
     12 C           7.3252    0.7873   -1.1653 C.ar    1  UNL1        0.0125
     13 C           5.9615    0.4324   -1.1427 C.ar    1  UNL1        0.1681
     14 F           5.3162    0.3248   -2.3289 F       1  UNL1       -0.2015
     15 C           2.0224   -0.0952    1.2839 C.ar    1  UNL1       -0.0018
     16 C           0.6625   -0.0145    1.3034 C.ar    1  UNL1        0.0394
     17 C          -0.0760   -0.0388    2.4751 C.ar    1  UNL1        0.0419
     18 N          -1.4166    0.0444    2.4436 N.ar    1  UNL1       -0.2222
     19 C          -2.1120    0.1543    1.2963 C.ar    1  UNL1        0.2173
     20 N          -3.5327    0.2449    1.2889 N.pl3   1  UNL1       -0.3104
     21 C          -4.3142    0.3574    0.0864 C.3     1  UNL1        0.0275
     22 C          -5.7787    0.4820    0.3776 C.3     1  UNL1       -0.0109
     23 C          -6.5421   -0.7918    0.4212 C.3     1  UNL1        0.0493
     24 O          -5.6599   -1.8615    0.3079 O.3     1  UNL1       -0.3796
     25 C          -5.1054   -1.7666   -0.9780 C.3     1  UNL1        0.0493
     26 C          -4.0163   -0.7168   -0.9362 C.3     1  UNL1       -0.0109
     27 N          -1.3963    0.1777    0.1635 N.ar    1  UNL1       -0.1964
     28 C          -0.0347    0.0972    0.1273 C.ar    1  UNL1        0.1484
     29 H           0.5543    0.2928   -3.1321 H       1  UNL1        0.0457
     30 H          -0.7131    1.1907   -2.1652 H       1  UNL1        0.0457
     31 H          -0.8547   -0.5760   -2.3548 H       1  UNL1        0.0457
     32 H           5.5147    0.1143    2.1534 H       1  UNL1        0.0656
     33 H           7.9449    0.7464    2.1112 H       1  UNL1        0.0647
     34 H           7.8229    0.9742   -2.1090 H       1  UNL1        0.0676
     35 H           2.5663   -0.1841    2.2295 H       1  UNL1        0.0664
     36 H           0.4863   -0.1273    3.3968 H       1  UNL1        0.0838
     37 H          -4.0539    0.2300    2.2088 H       1  UNL1        0.1492
     38 H          -4.0033    1.3290   -0.3978 H       1  UNL1        0.0500
     39 H          -5.9180    0.9899    1.3733 H       1  UNL1        0.0305
     40 H          -6.2893    1.1732   -0.3551 H       1  UNL1        0.0305
     41 H          -7.1772   -0.8794    1.3303 H       1  UNL1        0.0560
     42 H          -7.2359   -0.8791   -0.4627 H       1  UNL1        0.0560
     43 H          -5.9362   -1.4561   -1.6502 H       1  UNL1        0.0560
     44 H          -4.7557   -2.7542   -1.2816 H       1  UNL1        0.0560
     45 H          -3.8707   -0.2958   -1.9527 H       1  UNL1        0.0305
     46 H          -3.0876   -1.2451   -0.6691 H       1  UNL1        0.0305
@<TRIPOS>BOND
     1     1     2    1
     2     2     3   ar
     3     3     4    2
     4     3     5   ar
     5     5     6    1
     6     6     7    1
     7     7     8   ar
     8     8     9   ar
     9     9    10   ar
    10    10    11    1
    11    10    12   ar
    12    12    13   ar
    13    13    14    1
    14     5    15   ar
    15    15    16   ar
    16    16    17   ar
    17    17    18   ar
    18    18    19   ar
    19    19    20    1
    20    20    21    1
    21    21    22    1
    22    22    23    1
    23    23    24    1
    24    24    25    1
    25    25    26    1
    26    19    27   ar
    27    27    28   ar
    28    28     2   ar
    29    13     7   ar
    30    28    16   ar
    31    26    21    1
    32     1    29    1
    33     1    30    1
    34     1    31    1
    35     8    32    1
    36     9    33    1
    37    12    34    1
    38    15    35    1
    39    17    36    1
    40    20    37    1
    41    21    38    1
    42    22    39    1
    43    22    40    1
    44    23    41    1
    45    23    42    1
    46    25    43    1
    47    25    44    1
    48    26    45    1
    49    26    46    1
