@<TRIPOS>MOLECULE
*****
 29 30 0 0 0
SMALL
GASTEIGER

@<TRIPOS>ATOM
      1 C          -0.9216   -2.0590   -0.2145 C.3     1  UNL1        0.0052
      2 N          -1.1597   -0.6757   -0.5296 N.am    1  UNL1       -0.2790
      3 C          -0.2140    0.4401   -0.4157 C.3     1  UNL1        0.1693
      4 C           1.1550    0.0269   -0.1094 C.ar    1  UNL1       -0.0057
      5 C           1.7826   -1.0152   -0.7567 C.ar    1  UNL1       -0.0538
      6 C           3.0731   -1.4105   -0.4724 C.ar    1  UNL1       -0.0430
      7 C           3.8037   -0.7577    0.4987 C.ar    1  UNL1        0.0410
      8 CL          5.4436   -1.2352    0.8828 Cl      1  UNL1       -0.0835
      9 C           3.2083    0.2909    1.1683 C.ar    1  UNL1       -0.0430
     10 C           1.9128    0.6567    0.8543 C.ar    1  UNL1       -0.0538
     11 S          -0.8834    1.5231    0.8227 S.O2    1  UNL1       -0.0073
     12 O          -0.6153    1.0047    2.2157 O.2     1  UNL1       -0.1722
     13 O          -0.2163    2.8606    0.7160 O.2     1  UNL1       -0.1722
     14 C          -2.6279    1.6286    0.5206 C.3     1  UNL1        0.0764
     15 C          -2.8739    1.1327   -0.9043 C.3     1  UNL1        0.0436
     16 C          -2.4695   -0.3128   -1.0157 C.2     1  UNL1        0.2185
     17 O          -3.2763   -1.1597   -1.5248 O.2     1  UNL1       -0.2755
     18 H          -0.8288   -2.6451   -1.1352 H       1  UNL1        0.0429
     19 H          -1.8271   -2.4480    0.3239 H       1  UNL1        0.0429
     20 H          -0.0409   -2.1235    0.4652 H       1  UNL1        0.0429
     21 H          -0.2816    1.0124   -1.3798 H       1  UNL1        0.0797
     22 H           1.2808   -1.5780   -1.5302 H       1  UNL1        0.0622
     23 H           3.5665   -2.2246   -0.9766 H       1  UNL1        0.0632
     24 H           3.7828    0.8097    1.9370 H       1  UNL1        0.0632
     25 H           1.5331    1.4841    1.4280 H       1  UNL1        0.0622
     26 H          -3.2192    1.0507    1.2568 H       1  UNL1        0.0505
     27 H          -2.8872    2.7005    0.6125 H       1  UNL1        0.0505
     28 H          -2.2648    1.7683   -1.5749 H       1  UNL1        0.0374
     29 H          -3.9347    1.2552   -1.1625 H       1  UNL1        0.0374
@<TRIPOS>BOND
     1     1     2    1
     2     2     3    1
     3     3     4    1
     4     4     5   ar
     5     5     6   ar
     6     6     7   ar
     7     7     8    1
     8     7     9   ar
     9     9    10   ar
    10     3    11    1
    11    11    12    2
    12    11    13    2
    13    11    14    1
    14    14    15    1
    15    15    16    1
    16    16    17    2
    17    16     2   am
    18    10     4   ar
    19     1    18    1
    20     1    19    1
    21     1    20    1
    22     3    21    1
    23     5    22    1
    24     6    23    1
    25     9    24    1
    26    10    25    1
    27    14    26    1
    28    14    27    1
    29    15    28    1
    30    15    29    1
