
     RDKit          3D

 43 45  0  0  0  0  0  0  0  0999 V2000
    5.3101   -0.6629   -0.0500 C   0  0  0  0  0  0  0  0  0  0  0  0
    4.1661   -1.6278   -0.0972 C   0  0  0  0  0  0  0  0  0  0  0  0
    3.0932   -1.3611    0.9077 C   0  0  0  0  0  0  0  0  0  0  0  0
    2.4448   -0.0266    0.7835 C   0  0  0  0  0  0  0  0  0  0  0  0
    1.7818    0.1738   -0.5626 C   0  0  0  0  0  0  0  0  0  0  0  0
    0.7193   -0.8582   -0.7891 C   0  0  0  0  0  0  0  0  0  0  0  0
    1.0386   -1.9681   -1.2839 O   0  0  0  0  0  0  0  0  0  0  0  0
   -0.5036   -0.2402   -0.3341 N   0  0  0  0  0  0  0  0  0  0  0  0
   -0.3531    1.1201   -0.1620 N   0  0  0  0  0  0  0  0  0  0  0  0
    0.9840    1.4018   -0.5081 C   0  0  0  0  0  0  0  0  0  0  0  0
    1.5025    2.5084   -0.7511 O   0  0  0  0  0  0  0  0  0  0  0  0
   -1.3698    1.9964    0.2785 C   0  0  0  0  0  0  0  0  0  0  0  0
   -2.6702    1.7038    0.5998 C   0  0  0  0  0  0  0  0  0  0  0  0
   -3.6178    2.5957    1.0262 C   0  0  0  0  0  0  0  0  0  0  0  0
   -3.2711    3.9263    1.1585 C   0  0  0  0  0  0  0  0  0  0  0  0
   -1.9545    4.2759    0.8426 C   0  0  0  0  0  0  0  0  0  0  0  0
   -1.0350    3.3238    0.4138 C   0  0  0  0  0  0  0  0  0  0  0  0
   -1.5628   -1.1703   -0.1737 C   0  0  0  0  0  0  0  0  0  0  0  0
   -1.8585   -1.8749    1.0014 C   0  0  0  0  0  0  0  0  0  0  0  0
   -2.9059   -2.7688    1.0463 C   0  0  0  0  0  0  0  0  0  0  0  0
   -3.7046   -3.0148   -0.0394 C   0  0  0  0  0  0  0  0  0  0  0  0
   -3.4693   -2.3578   -1.2220 C   0  0  0  0  0  0  0  0  0  0  0  0
   -2.4273   -1.4821   -1.2317 C   0  0  0  0  0  0  0  0  0  0  0  0
    5.7691   -0.6736   -1.0800 H   0  0  0  0  0  0  0  0  0  0  0  0
    6.1379   -1.0273    0.6043 H   0  0  0  0  0  0  0  0  0  0  0  0
    5.0444    0.3825    0.1278 H   0  0  0  0  0  0  0  0  0  0  0  0
    4.5938   -2.6334    0.1640 H   0  0  0  0  0  0  0  0  0  0  0  0
    3.7721   -1.7212   -1.1139 H   0  0  0  0  0  0  0  0  0  0  0  0
    3.4762   -1.4844    1.9381 H   0  0  0  0  0  0  0  0  0  0  0  0
    2.2903   -2.1237    0.7031 H   0  0  0  0  0  0  0  0  0  0  0  0
    1.5976   -0.0178    1.5241 H   0  0  0  0  0  0  0  0  0  0  0  0
    3.0815    0.8282    1.0682 H   0  0  0  0  0  0  0  0  0  0  0  0
    2.4823    0.2133   -1.4075 H   0  0  0  0  0  0  0  0  0  0  0  0
   -2.9900    0.6991    0.5163 H   0  0  0  0  0  0  0  0  0  0  0  0
   -4.6220    2.2854    1.2595 H   0  0  0  0  0  0  0  0  0  0  0  0
   -4.0082    4.6300    1.4919 H   0  0  0  0  0  0  0  0  0  0  0  0
   -1.7744    5.3320    0.9749 H   0  0  0  0  0  0  0  0  0  0  0  0
   -0.1067    3.8066    0.2334 H   0  0  0  0  0  0  0  0  0  0  0  0
   -1.2172   -1.6685    1.8503 H   0  0  0  0  0  0  0  0  0  0  0  0
   -3.0967   -3.2967    1.9930 H   0  0  0  0  0  0  0  0  0  0  0  0
   -4.5203   -3.7213    0.0222 H   0  0  0  0  0  0  0  0  0  0  0  0
   -4.0406   -2.4862   -2.1210 H   0  0  0  0  0  0  0  0  0  0  0  0
   -2.2057   -0.9354   -2.1606 H   0  0  0  0  0  0  0  0  0  0  0  0
  1  2  1  0
  2  3  1  0
  3  4  1  0
  4  5  1  0
  5  6  1  0
  6  7  2  0
  6  8  1  0
  8  9  1  0
  9 10  1  0
 10 11  2  0
  9 12  1  0
 12 13  2  0
 13 14  1  0
 14 15  2  0
 15 16  1  0
 16 17  2  0
  8 18  1  0
 18 19  2  0
 19 20  1  0
 20 21  2  0
 21 22  1  0
 22 23  2  0
 10  5  1  0
 17 12  1  0
 23 18  1  0
  1 24  1  0
  1 25  1  0
  1 26  1  0
  2 27  1  0
  2 28  1  0
  3 29  1  0
  3 30  1  0
  4 31  1  0
  4 32  1  0
  5 33  1  0
 13 34  1  0
 14 35  1  0
 15 36  1  0
 16 37  1  0
 17 38  1  0
 19 39  1  0
 20 40  1  0
 21 41  1  0
 22 42  1  0
 23 43  1  0
M  END
$$$$
