@<TRIPOS>MOLECULE
*****
 43 45 0 0 0
SMALL
GASTEIGER

@<TRIPOS>ATOM
      1 C           5.3101   -0.6629   -0.0500 C.3     1  UNL1       -0.0653
      2 C           4.1661   -1.6278   -0.0972 C.3     1  UNL1       -0.0559
      3 C           3.0932   -1.3611    0.9077 C.3     1  UNL1       -0.0522
      4 C           2.4448   -0.0266    0.7835 C.3     1  UNL1       -0.0333
      5 C           1.7818    0.1738   -0.5626 C.3     1  UNL1        0.1156
      6 C           0.7193   -0.8582   -0.7891 C.2     1  UNL1        0.2486
      7 O           1.0386   -1.9681   -1.2839 O.2     1  UNL1       -0.2729
      8 N          -0.5036   -0.2402   -0.3341 N.am    1  UNL1       -0.1804
      9 N          -0.3531    1.1201   -0.1620 N.am    1  UNL1       -0.1804
     10 C           0.9840    1.4018   -0.5081 C.2     1  UNL1        0.2486
     11 O           1.5025    2.5084   -0.7511 O.2     1  UNL1       -0.2729
     12 C          -1.3698    1.9964    0.2785 C.ar    1  UNL1        0.0566
     13 C          -2.6702    1.7038    0.5998 C.ar    1  UNL1       -0.0386
     14 C          -3.6178    2.5957    1.0262 C.ar    1  UNL1       -0.0599
     15 C          -3.2711    3.9263    1.1585 C.ar    1  UNL1       -0.0616
     16 C          -1.9545    4.2759    0.8426 C.ar    1  UNL1       -0.0599
     17 C          -1.0350    3.3238    0.4138 C.ar    1  UNL1       -0.0386
     18 C          -1.5628   -1.1703   -0.1737 C.ar    1  UNL1        0.0566
     19 C          -1.8585   -1.8749    1.0014 C.ar    1  UNL1       -0.0386
     20 C          -2.9059   -2.7688    1.0463 C.ar    1  UNL1       -0.0599
     21 C          -3.7046   -3.0148   -0.0394 C.ar    1  UNL1       -0.0616
     22 C          -3.4693   -2.3578   -1.2220 C.ar    1  UNL1       -0.0599
     23 C          -2.4273   -1.4821   -1.2317 C.ar    1  UNL1       -0.0386
     24 H           5.7691   -0.6736   -1.0800 H       1  UNL1        0.0230
     25 H           6.1379   -1.0273    0.6043 H       1  UNL1        0.0230
     26 H           5.0444    0.3825    0.1278 H       1  UNL1        0.0230
     27 H           4.5938   -2.6334    0.1640 H       1  UNL1        0.0263
     28 H           3.7721   -1.7212   -1.1139 H       1  UNL1        0.0263
     29 H           3.4762   -1.4844    1.9381 H       1  UNL1        0.0266
     30 H           2.2903   -2.1237    0.7031 H       1  UNL1        0.0266
     31 H           1.5976   -0.0178    1.5241 H       1  UNL1        0.0277
     32 H           3.0815    0.8282    1.0682 H       1  UNL1        0.0277
     33 H           2.4823    0.2133   -1.4075 H       1  UNL1        0.0491
     34 H          -2.9900    0.6991    0.5163 H       1  UNL1        0.0637
     35 H          -4.6220    2.2854    1.2595 H       1  UNL1        0.0618
     36 H          -4.0082    4.6300    1.4919 H       1  UNL1        0.0618
     37 H          -1.7744    5.3320    0.9749 H       1  UNL1        0.0618
     38 H          -0.1067    3.8066    0.2334 H       1  UNL1        0.0637
     39 H          -1.2172   -1.6685    1.8503 H       1  UNL1        0.0637
     40 H          -3.0967   -3.2967    1.9930 H       1  UNL1        0.0618
     41 H          -4.5203   -3.7213    0.0222 H       1  UNL1        0.0618
     42 H          -4.0406   -2.4862   -2.1210 H       1  UNL1        0.0618
     43 H          -2.2057   -0.9354   -2.1606 H       1  UNL1        0.0637
@<TRIPOS>BOND
     1     1     2    1
     2     2     3    1
     3     3     4    1
     4     4     5    1
     5     5     6    1
     6     6     7    2
     7     6     8   am
     8     8     9    1
     9     9    10   am
    10    10    11    2
    11     9    12    1
    12    12    13   ar
    13    13    14   ar
    14    14    15   ar
    15    15    16   ar
    16    16    17   ar
    17     8    18    1
    18    18    19   ar
    19    19    20   ar
    20    20    21   ar
    21    21    22   ar
    22    22    23   ar
    23    10     5    1
    24    17    12   ar
    25    23    18   ar
    26     1    24    1
    27     1    25    1
    28     1    26    1
    29     2    27    1
    30     2    28    1
    31     3    29    1
    32     3    30    1
    33     4    31    1
    34     4    32    1
    35     5    33    1
    36    13    34    1
    37    14    35    1
    38    15    36    1
    39    16    37    1
    40    17    38    1
    41    19    39    1
    42    20    40    1
    43    21    41    1
    44    22    42    1
    45    23    43    1
