@<TRIPOS>MOLECULE
*****
 80 82 0 0 0
SMALL
GASTEIGER

@<TRIPOS>ATOM
      1 C           2.3014   -2.5364    3.1054 C.3     1  UNL1       -0.0652
      2 C           2.6401   -1.9572    1.7511 C.3     1  UNL1       -0.0540
      3 C           2.0854   -0.5288    1.6805 C.3     1  UNL1       -0.0293
      4 CA          2.4521    0.0211    0.2835 C.3     1  UNL1        0.0856
      5 N           3.8730   -0.0212    0.2259 N.3     1  UNL1       -0.2935
      6 CA          4.4888    0.3560   -0.9977 C.3     1  UNL1        0.1066
      7 C           6.0074    0.2784   -0.8266 C.3     1  UNL1       -0.0232
      8 C           6.4562   -1.1195   -0.4661 C.3     1  UNL1       -0.0258
      9 C           7.9451   -1.0830   -0.3254 C.ar    1  UNL1       -0.0473
     10 C           8.7778   -1.3246   -1.3976 C.ar    1  UNL1       -0.0586
     11 C          10.1650   -1.2844   -1.2518 C.ar    1  UNL1       -0.0615
     12 C          10.7475   -1.0035   -0.0386 C.ar    1  UNL1       -0.0617
     13 C           9.9039   -0.7613    1.0367 C.ar    1  UNL1       -0.0615
     14 C           8.5377   -0.8003    0.8962 C.ar    1  UNL1       -0.0586
     15 C           4.1593   -0.4991   -2.1411 C.2     1  UNL1        0.3219
     16 O           3.4018   -1.4829   -2.0241 O.2     1  UNL1       -0.2492
     17 OXT         4.6971   -0.2134   -3.3788 O.3     1  UNL1       -0.4795
     18 C           1.9026    1.4005    0.1865 C.2     1  UNL1        0.2333
     19 O           2.6925    2.3787    0.1355 O.2     1  UNL1       -0.2739
     20 N           0.5103    1.6715    0.1472 N.am    1  UNL1       -0.2849
     21 C          -0.6259    0.7737    0.1836 C.3     1  UNL1        0.0341
     22 C          -1.7231    1.4221   -0.6338 C.3     1  UNL1        0.0411
     23 N          -2.9279    1.4592    0.1393 N.am    1  UNL1       -0.3108
     24 C          -4.1401    0.8019   -0.2074 C.2     1  UNL1        0.2148
     25 O          -4.1837    0.1373   -1.2549 O.2     1  UNL1       -0.2758
     26 C          -5.3558    0.8835    0.6403 C.3     1  UNL1        0.0394
     27 C          -6.4767    0.0783    0.0162 C.3     1  UNL1        0.0172
     28 N          -6.7862    0.5990   -1.3117 N.3     1  UNL1       -0.3265
     29 C          -7.7142    0.1006    0.8976 C.3     1  UNL1       -0.0092
     30 C          -8.8180   -0.6865    0.2946 C.ar    1  UNL1       -0.0078
     31 C          -9.8629   -0.0412   -0.3121 C.ar    1  UNL1       -0.0176
     32 C         -10.8830   -0.7600   -0.8715 C.ar    1  UNL1        0.1588
     33 F         -11.9168   -0.0990   -1.4727 F       1  UNL1       -0.2025
     34 C         -10.8650   -2.1454   -0.8276 C.ar    1  UNL1        0.1611
     35 F         -11.8894   -2.8460   -1.3904 F       1  UNL1       -0.2024
     36 C          -9.8303   -2.7948   -0.2265 C.ar    1  UNL1        0.0119
     37 C          -8.8136   -2.0797    0.3311 C.ar    1  UNL1        0.1295
     38 F          -7.7621   -2.7053    0.9414 F       1  UNL1       -0.2051
     39 C          -1.1808    2.7988   -0.9396 C.3     1  UNL1       -0.0039
     40 CA         -0.0607    3.0013    0.0548 C.3     1  UNL1        0.1246
     41 C          -0.6670    3.4239    1.3386 C.2     1  UNL1        0.3255
     42 O          -0.6534    2.7115    2.3688 O.2     1  UNL1       -0.2489
     43 OXT        -1.2827    4.6666    1.4164 O.3     1  UNL1       -0.4793
     44 H           2.8749   -3.4378    3.3422 H       1  UNL1        0.0230
     45 H           2.4501   -1.7908    3.9319 H       1  UNL1        0.0230
     46 H           1.2175   -2.8303    3.0987 H       1  UNL1        0.0230
     47 H           3.7365   -1.9690    1.5913 H       1  UNL1        0.0263
     48 H           2.1509   -2.5534    0.9795 H       1  UNL1        0.0263
     49 H           0.9873   -0.6485    1.6868 H       1  UNL1        0.0285
     50 H           2.4771    0.1109    2.4742 H       1  UNL1        0.0285
     51 HA          1.9442   -0.6255   -0.4343 H       1  UNL1        0.0557
     52 H           4.2577    0.5822    0.9879 H       1  UNL1        0.1234
     53 HA          4.2860    1.4242   -1.2069 H       1  UNL1        0.0576
     54 H           6.4655    0.5560   -1.7965 H       1  UNL1        0.0289
     55 H           6.2870    0.9443   -0.0017 H       1  UNL1        0.0289
     56 H           6.0276   -1.4540    0.4811 H       1  UNL1        0.0314
     57 H           6.2353   -1.8604   -1.2600 H       1  UNL1        0.0314
     58 H           8.3524   -1.5502   -2.3714 H       1  UNL1        0.0620
     59 H          10.8321   -1.4753   -2.0991 H       1  UNL1        0.0618
     60 H          11.8236   -0.9705    0.0832 H       1  UNL1        0.0618
     61 H          10.3590   -0.5390    1.9971 H       1  UNL1        0.0618
     62 H           7.8608   -0.6148    1.7204 H       1  UNL1        0.0620
     63 HXT         4.7032   -0.8805   -4.1529 H       1  UNL1        0.2951
     64 H          -0.9465    0.6865    1.2560 H       1  UNL1        0.0483
     65 H          -0.3794   -0.2314   -0.2192 H       1  UNL1        0.0483
     66 H          -1.8275    0.8230   -1.5680 H       1  UNL1        0.0514
     67 H          -2.9389    2.0049    1.0281 H       1  UNL1        0.1490
     68 H          -5.1613    0.5580    1.6712 H       1  UNL1        0.0374
     69 H          -5.6820    1.9452    0.7072 H       1  UNL1        0.0374
     70 H          -6.1853   -0.9828   -0.1164 H       1  UNL1        0.0466
     71 H          -6.2707    1.4741   -1.5088 H       1  UNL1        0.1185
     72 H          -6.6370   -0.1035   -2.0518 H       1  UNL1        0.1185
     73 H          -7.9954    1.1459    1.0515 H       1  UNL1        0.0329
     74 H          -7.4978   -0.3387    1.8918 H       1  UNL1        0.0329
     75 H          -9.8655    1.0565   -0.3406 H       1  UNL1        0.0651
     76 H          -9.7994   -3.8779   -0.1827 H       1  UNL1        0.0676
     77 H          -0.7444    2.8021   -1.9428 H       1  UNL1        0.0307
     78 H          -1.9204    3.6019   -0.7563 H       1  UNL1        0.0307
     79 HA          0.6844    3.7425   -0.3135 H       1  UNL1        0.0617
     80 HXT        -1.4873    5.0856    2.3300 H       1  UNL1        0.2951
@<TRIPOS>BOND
     1     1     2    1
     2     2     3    1
     3     3     4    1
     4     4     5    1
     5     5     6    1
     6     6     7    1
     7     7     8    1
     8     8     9    1
     9     9    10   ar
    10    10    11   ar
    11    11    12   ar
    12    12    13   ar
    13    13    14   ar
    14     6    15    1
    15    15    16    2
    16    15    17    1
    17     4    18    1
    18    18    19    2
    19    18    20   am
    20    20    21    1
    21    21    22    1
    22    22    23    1
    23    23    24   am
    24    24    25    2
    25    24    26    1
    26    26    27    1
    27    27    28    1
    28    27    29    1
    29    29    30    1
    30    30    31   ar
    31    31    32   ar
    32    32    33    1
    33    32    34   ar
    34    34    35    1
    35    34    36   ar
    36    36    37   ar
    37    37    38    1
    38    22    39    1
    39    39    40    1
    40    40    41    1
    41    41    42    2
    42    41    43    1
    43    14     9   ar
    44    40    20    1
    45    37    30   ar
    46     1    44    1
    47     1    45    1
    48     1    46    1
    49     2    47    1
    50     2    48    1
    51     3    49    1
    52     3    50    1
    53     4    51    1
    54     5    52    1
    55     6    53    1
    56     7    54    1
    57     7    55    1
    58     8    56    1
    59     8    57    1
    60    10    58    1
    61    11    59    1
    62    12    60    1
    63    13    61    1
    64    14    62    1
    65    17    63    1
    66    21    64    1
    67    21    65    1
    68    22    66    1
    69    23    67    1
    70    26    68    1
    71    26    69    1
    72    27    70    1
    73    28    71    1
    74    28    72    1
    75    29    73    1
    76    29    74    1
    77    31    75    1
    78    36    76    1
    79    39    77    1
    80    39    78    1
    81    40    79    1
    82    43    80    1
