@<TRIPOS>MOLECULE
*****
 52 56 0 0 0
SMALL
GASTEIGER

@<TRIPOS>ATOM
      1 O           4.1897    3.3125    0.4764 O.2     1  UNL1       -0.2490
      2 C           4.9969    2.3480    0.4575 C.2     1  UNL1        0.3247
      3 O           5.9246    2.2725    1.4856 O.3     1  UNL1       -0.4794
      4 C           4.9272    1.3583   -0.6331 C.3     1  UNL1        0.1204
      5 N           3.9755    0.3104   -0.2696 N.ar    1  UNL1       -0.3327
      6 C           2.6416    0.3962   -0.5742 C.ar    1  UNL1        0.0266
      7 C           2.0823   -0.7492   -0.0857 C.ar    1  UNL1       -0.0015
      8 C           3.0763   -1.5331    0.5170 C.ar    1  UNL1        0.0075
      9 C           3.0651   -2.7509    1.1511 C.ar    1  UNL1       -0.0170
     10 C           4.2407   -3.3057    1.6702 C.ar    1  UNL1        0.1241
     11 F           4.2451   -4.4987    2.2960 F       1  UNL1       -0.2055
     12 C           5.4217   -2.6114    1.5377 C.ar    1  UNL1       -0.0245
     13 C           5.4122   -1.3953    0.9009 C.ar    1  UNL1       -0.0349
     14 C           4.2452   -0.8280    0.3771 C.ar    1  UNL1        0.0502
     15 C           0.6317   -1.0267   -0.2227 C.3     1  UNL1        0.0420
     16 N          -0.0317    0.0679   -0.8865 N.am    1  UNL1       -0.2964
     17 C          -1.3635    0.4250   -0.5374 C.2     1  UNL1        0.2202
     18 O          -1.9624    1.3868   -1.1087 O.2     1  UNL1       -0.2752
     19 C          -2.1001   -0.3200    0.5133 C.3     1  UNL1        0.0499
     20 C          -3.4462    0.2401    0.7023 C.ar    1  UNL1       -0.0309
     21 C          -3.6960    1.0380    1.8103 C.ar    1  UNL1       -0.0575
     22 C          -4.9371    1.5918    2.0383 C.ar    1  UNL1       -0.0609
     23 C          -5.9321    1.3261    1.1238 C.ar    1  UNL1       -0.0540
     24 C          -5.7263    0.5405    0.0126 C.ar    1  UNL1       -0.0176
     25 C          -6.7751    0.3158   -0.8663 C.ar    1  UNL1       -0.0540
     26 C          -6.5526   -0.4719   -1.9725 C.ar    1  UNL1       -0.0612
     27 C          -5.3044   -1.0033   -2.1629 C.ar    1  UNL1       -0.0612
     28 C          -4.2702   -0.7779   -1.2899 C.ar    1  UNL1       -0.0538
     29 C          -4.4706    0.0064   -0.1780 C.ar    1  UNL1       -0.0142
     30 C           0.6735    0.8179   -1.9253 C.3     1  UNL1        0.0204
     31 C           1.8727    1.4651   -1.2774 C.3     1  UNL1        0.0039
     32 H           5.9996    3.0277    2.1561 H       1  UNL1        0.2951
     33 H           4.5777    1.8263   -1.5682 H       1  UNL1        0.0607
     34 H           5.9415    0.9030   -0.7380 H       1  UNL1        0.0607
     35 H           2.1443   -3.2909    1.2539 H       1  UNL1        0.0653
     36 H           6.3266   -3.0587    1.9469 H       1  UNL1        0.0647
     37 H           6.3379   -0.8597    0.8025 H       1  UNL1        0.0639
     38 H           0.2041   -1.0948    0.8080 H       1  UNL1        0.0514
     39 H           0.4544   -1.9987   -0.7510 H       1  UNL1        0.0514
     40 H          -1.5047   -0.2027    1.4642 H       1  UNL1        0.0407
     41 H          -2.1167   -1.4119    0.3064 H       1  UNL1        0.0407
     42 H          -2.9042    1.2356    2.5185 H       1  UNL1        0.0621
     43 H          -5.1152    2.2124    2.9050 H       1  UNL1        0.0618
     44 H          -6.9185    1.7662    1.3053 H       1  UNL1        0.0624
     45 H          -7.7179    0.7655   -0.6485 H       1  UNL1        0.0624
     46 H          -7.3940   -0.6425   -2.6619 H       1  UNL1        0.0618
     47 H          -5.1643   -1.6228   -3.0512 H       1  UNL1        0.0618
     48 H          -3.3112   -1.2199   -1.4900 H       1  UNL1        0.0624
     49 H           1.0827    0.0615   -2.6438 H       1  UNL1        0.0468
     50 H          -0.0094    1.5256   -2.3964 H       1  UNL1        0.0468
     51 H           2.4633    1.9370   -2.0952 H       1  UNL1        0.0343
     52 H           1.5702    2.1947   -0.5024 H       1  UNL1        0.0343
@<TRIPOS>BOND
     1     1     2    2
     2     2     3    1
     3     2     4    1
     4     4     5    1
     5     5     6   ar
     6     6     7   ar
     7     7     8   ar
     8     8     9   ar
     9     9    10   ar
    10    10    11    1
    11    10    12   ar
    12    12    13   ar
    13    13    14   ar
    14     7    15    1
    15    15    16    1
    16    16    17   am
    17    17    18    2
    18    17    19    1
    19    19    20    1
    20    20    21   ar
    21    21    22   ar
    22    22    23   ar
    23    23    24   ar
    24    24    25   ar
    25    25    26   ar
    26    26    27   ar
    27    27    28   ar
    28    28    29   ar
    29    16    30    1
    30    30    31    1
    31    14     5   ar
    32    29    20   ar
    33    31     6    1
    34    14     8   ar
    35    29    24   ar
    36     3    32    1
    37     4    33    1
    38     4    34    1
    39     9    35    1
    40    12    36    1
    41    13    37    1
    42    15    38    1
    43    15    39    1
    44    19    40    1
    45    19    41    1
    46    21    42    1
    47    22    43    1
    48    23    44    1
    49    25    45    1
    50    26    46    1
    51    27    47    1
    52    28    48    1
    53    30    49    1
    54    30    50    1
    55    31    51    1
    56    31    52    1
