@<TRIPOS>MOLECULE
*****
 59 63 0 0 0
SMALL
GASTEIGER

@<TRIPOS>ATOM
      1 O          -8.1522    1.6950    1.7582 O.2     1  UNL1       -0.2510
      2 C          -8.0963    0.6253    1.1026 C.2     1  UNL1        0.3053
      3 O          -7.8551   -0.5517    1.7950 O.3     1  UNL1       -0.4806
      4 C          -8.2790    0.5970   -0.3644 C.3     1  UNL1        0.0529
      5 C          -7.0259    0.9981   -1.0880 C.3     1  UNL1        0.0099
      6 C          -6.5438    2.3799   -0.7663 C.3     1  UNL1       -0.0403
      7 C          -5.1064    2.3163   -1.3043 C.3     1  UNL1       -0.0248
      8 C          -4.7149    0.9372   -0.8634 C.ar    1  UNL1       -0.0187
      9 C          -5.8679    0.1605   -0.7363 C.ar    1  UNL1        0.0238
     10 N          -5.4902   -1.0521   -0.3440 N.ar    1  UNL1       -0.3574
     11 C          -4.1555   -1.1257   -0.2036 C.ar    1  UNL1        0.0472
     12 C          -3.3209   -2.1668    0.1783 C.ar    1  UNL1       -0.0343
     13 C          -1.9631   -1.9361    0.2306 C.ar    1  UNL1       -0.0179
     14 C          -1.4106   -0.7021   -0.0854 C.ar    1  UNL1        0.1217
     15 O          -0.0397   -0.5021   -0.0231 O.3     1  UNL1       -0.4874
     16 C           0.7800   -1.5612    0.3631 C.3     1  UNL1        0.1146
     17 C           2.2161   -1.2049    0.3848 C.ar    1  UNL1       -0.0099
     18 C           2.8519   -0.6951    1.4959 C.ar    1  UNL1       -0.0551
     19 C           4.2170   -0.3780    1.4526 C.ar    1  UNL1       -0.0574
     20 C           4.9577   -0.5657    0.3050 C.ar    1  UNL1       -0.0326
     21 C           6.3918   -0.2335    0.2414 C.3     1  UNL1       -0.0153
     22 C           6.6288    1.1955   -0.1767 C.3     1  UNL1       -0.0462
     23 C           7.2433    1.9191    0.9670 C.3     1  UNL1       -0.0525
     24 C           7.3708    0.9684    2.1096 C.3     1  UNL1       -0.0525
     25 C           7.1094   -0.3698    1.5289 C.3     1  UNL1       -0.0462
     26 C           4.3412   -1.0722   -0.8098 C.ar    1  UNL1        0.0586
     27 C           5.0866   -1.2948   -2.0391 C.3     1  UNL1        0.4177
     28 F           5.6766   -0.1697   -2.5667 F       1  UNL1       -0.1659
     29 F           4.1751   -1.6998   -3.0374 F       1  UNL1       -0.1659
     30 F           5.9508   -2.3726   -1.9287 F       1  UNL1       -0.1659
     31 C           2.9811   -1.3799   -0.7414 C.ar    1  UNL1       -0.0434
     32 C          -2.2834    0.3094   -0.4618 C.ar    1  UNL1       -0.0105
     33 C          -3.6488    0.1188   -0.5266 C.ar    1  UNL1        0.0066
     34 H          -8.1039   -0.5623    2.7975 H       1  UNL1        0.2951
     35 H          -8.6080   -0.3920   -0.7278 H       1  UNL1        0.0384
     36 H          -9.0980    1.3084   -0.6551 H       1  UNL1        0.0384
     37 H          -7.1788    0.9200   -2.1901 H       1  UNL1        0.0369
     38 H          -6.4957    2.5055    0.3269 H       1  UNL1        0.0275
     39 H          -7.1040    3.1773   -1.2788 H       1  UNL1        0.0275
     40 H          -4.4819    3.0967   -0.8535 H       1  UNL1        0.0314
     41 H          -5.1086    2.3239   -2.4003 H       1  UNL1        0.0314
     42 H          -6.1334   -1.8437   -0.1674 H       1  UNL1        0.1656
     43 H          -3.6811   -3.1505    0.4368 H       1  UNL1        0.0639
     44 H          -1.2910   -2.7414    0.5284 H       1  UNL1        0.0655
     45 H           0.5948   -2.4424   -0.2940 H       1  UNL1        0.0748
     46 H           0.4662   -1.8467    1.4106 H       1  UNL1        0.0748
     47 H           2.2836   -0.5480    2.3866 H       1  UNL1        0.0621
     48 H           4.6520    0.0132    2.3501 H       1  UNL1        0.0621
     49 H           6.9064   -0.8407   -0.5755 H       1  UNL1        0.0349
     50 H           7.3313    1.2924   -1.0462 H       1  UNL1        0.0271
     51 H           5.6829    1.6850   -0.5322 H       1  UNL1        0.0271
     52 H           8.2786    2.3041    0.7258 H       1  UNL1        0.0265
     53 H           6.6833    2.8342    1.2651 H       1  UNL1        0.0265
     54 H           8.4129    0.9690    2.5302 H       1  UNL1        0.0265
     55 H           6.6295    1.1819    2.9136 H       1  UNL1        0.0265
     56 H           8.1012   -0.8628    1.3057 H       1  UNL1        0.0271
     57 H           6.6188   -1.0657    2.2480 H       1  UNL1        0.0271
     58 H           2.4804   -1.7863   -1.6334 H       1  UNL1        0.0627
     59 H          -1.8617    1.2841   -0.7137 H       1  UNL1        0.0661
@<TRIPOS>BOND
     1     1     2    2
     2     2     3    1
     3     2     4    1
     4     4     5    1
     5     5     6    1
     6     6     7    1
     7     7     8    1
     8     8     9   ar
     9     9    10   ar
    10    10    11   ar
    11    11    12   ar
    12    12    13   ar
    13    13    14   ar
    14    14    15    1
    15    15    16    1
    16    16    17    1
    17    17    18   ar
    18    18    19   ar
    19    19    20   ar
    20    20    21    1
    21    21    22    1
    22    22    23    1
    23    23    24    1
    24    24    25    1
    25    20    26   ar
    26    26    27    1
    27    27    28    1
    28    27    29    1
    29    27    30    1
    30    26    31   ar
    31    14    32   ar
    32    32    33   ar
    33     9     5    1
    34    33    11   ar
    35    33     8   ar
    36    31    17   ar
    37    25    21    1
    38     3    34    1
    39     4    35    1
    40     4    36    1
    41     5    37    1
    42     6    38    1
    43     6    39    1
    44     7    40    1
    45     7    41    1
    46    10    42    1
    47    12    43    1
    48    13    44    1
    49    16    45    1
    50    16    46    1
    51    18    47    1
    52    19    48    1
    53    21    49    1
    54    22    50    1
    55    22    51    1
    56    23    52    1
    57    23    53    1
    58    24    54    1
    59    24    55    1
    60    25    56    1
    61    25    57    1
    62    31    58    1
    63    32    59    1
