@<TRIPOS>MOLECULE
*****
 51 55 0 0 0
SMALL
GASTEIGER

@<TRIPOS>ATOM
      1 N          -6.5169    2.3539   -1.7575 N.pl3   1  UNL1       -0.3134
      2 C          -6.0260    1.3959   -0.8142 C.2     1  UNL1        0.2764
      3 N          -4.7692    1.3309   -0.6162 N.2     1  UNL1       -0.2194
      4 C          -4.0849    0.4371    0.2887 C.3     1  UNL1        0.1603
      5 C          -3.1546   -0.3773   -0.5116 C.ar    1  UNL1        0.0228
      6 C          -1.7908   -0.4594   -0.3466 C.ar    1  UNL1       -0.0321
      7 C          -0.9462   -1.2343   -1.0925 C.ar    1  UNL1        0.0342
      8 N           0.4577   -1.3268   -0.9344 N.am    1  UNL1       -0.2802
      9 C           1.2316   -0.6326    0.0165 C.2     1  UNL1        0.2681
     10 O           0.7340    0.1597    0.8406 O.2     1  UNL1       -0.2681
     11 C           2.6913   -0.7990    0.1000 C.ar    1  UNL1        0.1439
     12 C           3.4763   -0.1423    1.0095 C.ar    1  UNL1        0.0619
     13 N           4.8106   -0.3660    1.0027 N.ar    1  UNL1       -0.2177
     14 C           5.3853   -1.2115    0.1316 C.ar    1  UNL1        0.2338
     15 O           6.7347   -1.4759    0.0812 O.3     1  UNL1       -0.4700
     16 C           7.6376   -0.8603    0.9630 C.3     1  UNL1        0.1238
     17 C           7.6036    0.6214    0.7985 C.ar    1  UNL1        0.0463
     18 C           8.3130    1.4539   -0.0413 C.ar    1  UNL1        0.0411
     19 N           8.0150    2.7409    0.1057 N.ar    1  UNL1       -0.2553
     20 C           7.2973    3.2562    0.7845 C.ar    1  UNL1        0.0650
     21 S           6.5691    1.7767    1.7251 S.2     1  UNL1       -0.0770
     22 C           4.5724   -1.8769   -0.7933 C.ar    1  UNL1        0.0899
     23 N           3.2677   -1.6404   -0.7660 N.ar    1  UNL1       -0.2435
     24 C          -1.5208   -2.0093   -2.1096 C.ar    1  UNL1       -0.0377
     25 C          -2.8717   -1.9561   -2.3053 C.ar    1  UNL1       -0.0243
     26 C          -3.6903   -1.1597   -1.5296 C.ar    1  UNL1        0.1292
     27 F          -5.0119   -1.1888   -1.8160 F       1  UNL1       -0.2051
     28 C          -3.2709    1.3589    1.1871 C.3     1  UNL1        0.2686
     29 F          -2.4240    2.0774    0.3638 F       1  UNL1       -0.2062
     30 F          -4.0765    2.2912    1.8095 F       1  UNL1       -0.2062
     31 C          -4.9979   -0.4490    1.0925 C.3     1  UNL1        0.0344
     32 C          -5.8780    0.0497    2.1464 C.3     1  UNL1       -0.0064
     33 C          -6.4175   -0.4140    0.7770 C.3     1  UNL1        0.1091
     34 O          -6.8516    0.5494   -0.1187 O.2     1  UNL1       -0.4622
     35 H          -6.8208    3.2833   -1.4565 H       1  UNL1        0.1466
     36 H          -6.5513    2.0676   -2.7532 H       1  UNL1        0.1466
     37 H          -1.3770    0.1295    0.4407 H       1  UNL1        0.0640
     38 H           1.0054   -1.9747   -1.5818 H       1  UNL1        0.1552
     39 H           3.0141    0.5445    1.7180 H       1  UNL1        0.0854
     40 H           8.6826   -1.2057    0.7972 H       1  UNL1        0.0754
     41 H           7.3520   -1.1511    2.0009 H       1  UNL1        0.0754
     42 H           9.0543    1.0265   -0.7557 H       1  UNL1        0.0839
     43 H           6.8365    4.2807    1.1332 H       1  UNL1        0.0907
     44 H           5.0432   -2.5676   -1.5047 H       1  UNL1        0.0884
     45 H          -0.8728   -2.6489   -2.7346 H       1  UNL1        0.0637
     46 H          -3.2894   -2.5644   -3.0969 H       1  UNL1        0.0647
     47 H          -2.7397    0.8120    1.9761 H       1  UNL1        0.1047
     48 H          -4.5667   -1.4708    1.2703 H       1  UNL1        0.0366
     49 H          -6.1074   -0.6125    3.0221 H       1  UNL1        0.0306
     50 H          -6.0982    1.0994    2.3448 H       1  UNL1        0.0306
     51 H          -7.0620   -1.3211    0.8213 H       1  UNL1        0.0737
@<TRIPOS>BOND
     1     1     2    1
     2     2     3    2
     3     3     4    1
     4     4     5    1
     5     5     6   ar
     6     6     7   ar
     7     7     8    1
     8     8     9   am
     9     9    10    2
    10     9    11    1
    11    11    12   ar
    12    12    13   ar
    13    13    14   ar
    14    14    15    1
    15    15    16    1
    16    16    17    1
    17    17    18   ar
    18    18    19   ar
    19    19    20   ar
    20    20    21   ar
    21    14    22   ar
    22    22    23   ar
    23     7    24   ar
    24    24    25   ar
    25    25    26   ar
    26    26    27    1
    27     4    28    1
    28    28    29    1
    29    28    30    1
    30     4    31    1
    31    31    32    1
    32    32    33    1
    33    33    34    1
    34    34     2    1
    35    26     5   ar
    36    33    31    1
    37    23    11   ar
    38    21    17   ar
    39     1    35    1
    40     1    36    1
    41     6    37    1
    42     8    38    1
    43    12    39    1
    44    16    40    1
    45    16    41    1
    46    18    42    1
    47    20    43    1
    48    22    44    1
    49    24    45    1
    50    25    46    1
    51    28    47    1
    52    31    48    1
    53    32    49    1
    54    32    50    1
    55    33    51    1
