@<TRIPOS>MOLECULE
*****
 38 40 0 0 0
SMALL
GASTEIGER

@<TRIPOS>ATOM
      1 C          -1.4413    2.7328    0.5956 C.3     1  UNL1       -0.0393
      2 C          -2.6908    1.9902    0.4125 C.ar    1  UNL1       -0.0427
      3 C          -3.8370    2.1730    1.1553 C.ar    1  UNL1       -0.0401
      4 C          -4.9854    1.4415    0.9355 C.ar    1  UNL1        0.0412
      5 CL         -6.4253    1.6951    1.8948 Cl      1  UNL1       -0.0835
      6 C          -5.0003    0.4898   -0.0603 C.ar    1  UNL1       -0.0430
      7 C          -3.8631    0.2932   -0.8133 C.ar    1  UNL1       -0.0537
      8 C          -2.7146    1.0210   -0.5976 C.ar    1  UNL1       -0.0074
      9 C          -1.5467    0.7925   -1.4334 C.3     1  UNL1        0.1165
     10 O          -0.4655    0.1467   -0.9150 O.3     1  UNL1       -0.4715
     11 C          -0.3288   -1.1062   -0.4058 C.ar    1  UNL1        0.2195
     12 C          -1.2822   -2.0818   -0.2838 C.ar    1  UNL1        0.0198
     13 C          -0.7052   -3.2219    0.2976 C.ar    1  UNL1        0.0535
     14 N           0.5610   -2.9044    0.5056 N.ar    1  UNL1       -0.1703
     15 N           0.8101   -1.6767    0.1053 N.ar    1  UNL1       -0.1821
     16 C           2.0561   -0.9997    0.1702 C.ar    1  UNL1        0.1584
     17 C           3.2571   -1.6742    0.2042 C.ar    1  UNL1       -0.0033
     18 C           4.4707   -1.0299    0.2661 C.ar    1  UNL1        0.0638
     19 C           5.7329   -1.7405    0.3018 C.2     1  UNL1        0.3370
     20 O           5.7328   -2.9958    0.2760 O.2     1  UNL1       -0.2451
     21 O           6.9192   -1.0460    0.3634 O.3     1  UNL1       -0.4771
     22 C           4.4484    0.3559    0.2940 C.ar    1  UNL1       -0.0295
     23 C           3.2469    1.0109    0.2596 C.ar    1  UNL1        0.0307
     24 N           2.0944    0.3399    0.1996 N.ar    1  UNL1       -0.2360
     25 H          -0.9593    3.1031   -0.3069 H       1  UNL1        0.0278
     26 H          -0.7251    2.2030    1.2870 H       1  UNL1        0.0278
     27 H          -1.7130    3.6645    1.1781 H       1  UNL1        0.0278
     28 H          -3.8344    2.9178    1.9386 H       1  UNL1        0.0635
     29 H          -5.8995   -0.0805   -0.2304 H       1  UNL1        0.0632
     30 H          -3.8759   -0.4622   -1.6034 H       1  UNL1        0.0622
     31 H          -1.8972    0.2429   -2.3673 H       1  UNL1        0.0748
     32 H          -1.2545    1.8153   -1.8425 H       1  UNL1        0.0748
     33 H          -2.3206   -2.0525   -0.5689 H       1  UNL1        0.0686
     34 H          -1.2389   -4.1310    0.5037 H       1  UNL1        0.0849
     35 H           3.2866   -2.7568    0.1828 H       1  UNL1        0.0663
     36 H           7.7591   -1.4735   -0.0067 H       1  UNL1        0.2954
     37 H           5.3863    0.9002    0.3427 H       1  UNL1        0.0641
     38 H           3.2428    2.1045    0.2820 H       1  UNL1        0.0830
@<TRIPOS>BOND
     1     1     2    1
     2     2     3   ar
     3     3     4   ar
     4     4     5    1
     5     4     6   ar
     6     6     7   ar
     7     7     8   ar
     8     8     9    1
     9     9    10    1
    10    10    11    1
    11    11    12   ar
    12    12    13   ar
    13    13    14   ar
    14    14    15   ar
    15    15    16    1
    16    16    17   ar
    17    17    18   ar
    18    18    19    1
    19    19    20    2
    20    19    21    1
    21    18    22   ar
    22    22    23   ar
    23    23    24   ar
    24     8     2   ar
    25    15    11   ar
    26    24    16   ar
    27     1    25    1
    28     1    26    1
    29     1    27    1
    30     3    28    1
    31     6    29    1
    32     7    30    1
    33     9    31    1
    34     9    32    1
    35    12    33    1
    36    13    34    1
    37    17    35    1
    38    21    36    1
    39    22    37    1
    40    23    38    1
