@<TRIPOS>MOLECULE
*****
 32 35 0 0 0
SMALL
GASTEIGER

@<TRIPOS>ATOM
      1 C          -2.1873   -2.5767   -1.5247 C.3     1  UNL1        0.0083
      2 N          -1.3590   -1.8730   -0.5366 N.am    1  UNL1       -0.2733
      3 C          -0.1846   -2.4101    0.0388 C.2     1  UNL1        0.2360
      4 O           0.3679   -3.5105   -0.1465 O.2     1  UNL1       -0.2741
      5 C           0.3324   -1.3808    0.9731 C.3     1  UNL1        0.1391
      6 C           1.7034   -0.9479    0.6222 C.2     1  UNL1        0.2351
      7 O           2.6097   -1.0775    1.4806 O.2     1  UNL1       -0.2742
      8 N           2.0587   -0.3963   -0.6213 N.am    1  UNL1       -0.2624
      9 C           3.4041    0.0209   -0.9457 C.ar    1  UNL1        0.1875
     10 N           4.0199    0.5125   -1.8830 N.ar    1  UNL1       -0.1259
     11 N           5.2743    0.7770   -1.8587 N.ar    1  UNL1       -0.1481
     12 C           6.0158    0.5707   -0.8930 C.ar    1  UNL1        0.0902
     13 S           4.7207   -0.1595    0.2813 S.2     1  UNL1       -0.0387
     14 C          -0.6174   -0.2398    0.8877 C.ar    1  UNL1       -0.0018
     15 C          -0.5795    0.9659    1.5641 C.ar    1  UNL1       -0.0126
     16 C          -1.5677    1.8994    1.3389 C.ar    1  UNL1        0.1352
     17 O          -1.7698    3.0972    1.8343 O.2     1  UNL1       -0.4629
     18 C          -2.8736    3.6069    1.2961 C.ar    1  UNL1        0.0931
     19 C          -3.3972    2.6751    0.4096 C.ar    1  UNL1       -0.0161
     20 C          -2.5627    1.5904    0.4404 C.ar    1  UNL1        0.0219
     21 C          -2.5867    0.3898   -0.2230 C.ar    1  UNL1       -0.0292
     22 C          -1.5985   -0.5747   -0.0145 C.ar    1  UNL1        0.0411
     23 H          -1.5549   -3.0806   -2.2835 H       1  UNL1        0.0433
     24 H          -2.7550   -3.3701   -1.0033 H       1  UNL1        0.0433
     25 H          -2.8856   -1.8508   -1.9983 H       1  UNL1        0.0433
     26 H           0.3389   -1.7663    2.0005 H       1  UNL1        0.0540
     27 H           1.3613   -0.2689   -1.3543 H       1  UNL1        0.1568
     28 H           7.0270    0.6571   -0.5409 H       1  UNL1        0.0927
     29 H           0.1964    1.2235    2.2736 H       1  UNL1        0.0658
     30 H          -3.2997    4.5756    1.5036 H       1  UNL1        0.1029
     31 H          -4.2917    2.7892   -0.1873 H       1  UNL1        0.0655
     32 H          -3.3594    0.1324   -0.9301 H       1  UNL1        0.0643
@<TRIPOS>BOND
     1     1     2    1
     2     2     3   am
     3     3     4    2
     4     3     5    1
     5     5     6    1
     6     6     7    2
     7     6     8   am
     8     8     9    1
     9     9    10   ar
    10    10    11   ar
    11    11    12   ar
    12    12    13   ar
    13     5    14    1
    14    14    15   ar
    15    15    16   ar
    16    16    17   ar
    17    17    18   ar
    18    18    19   ar
    19    19    20   ar
    20    20    21   ar
    21    21    22   ar
    22    22     2    1
    23    13     9   ar
    24    22    14   ar
    25    20    16   ar
    26     1    23    1
    27     1    24    1
    28     1    25    1
    29     5    26    1
    30     8    27    1
    31    12    28    1
    32    15    29    1
    33    18    30    1
    34    19    31    1
    35    21    32    1
