@<TRIPOS>MOLECULE
*****
 61 68 0 0 0
SMALL
GASTEIGER

@<TRIPOS>ATOM
      1 C          -4.4931    2.3749   -1.0466 C.3     1  UNL1       -0.0155
      2 N          -4.0653    0.9973   -1.0270 N.3     1  UNL1       -0.3136
      3 C          -3.1229    0.8410    0.0501 C.3     1  UNL1        0.0423
      4 C          -1.9519    1.7703   -0.2161 C.3     1  UNL1        0.0107
      5 C          -1.0257    1.6477    0.9704 C.3     1  UNL1        0.1402
      6 O          -1.2282    0.5790    1.7620 O.3     1  UNL1       -0.3282
      7 C          -1.5074   -0.6551    1.1513 C.3     1  UNL1        0.1741
      8 C          -2.0935   -1.4431    2.3091 C.3     1  UNL1       -0.0136
      9 C          -2.5103   -0.5613    0.0546 C.3     1  UNL1        0.1214
     10 O          -1.9469   -0.7125   -1.2154 O.3     1  UNL1       -0.3735
     11 C          -2.6709   -1.7324   -1.8609 C.3     1  UNL1        0.0371
     12 N          -0.2534   -1.2503    0.6903 N.ar    1  UNL1       -0.3070
     13 C          -0.0168   -2.5759    0.5643 C.ar    1  UNL1        0.0527
     14 C          -0.8336   -3.6663    0.7603 C.ar    1  UNL1       -0.0375
     15 C          -0.3077   -4.9279    0.5371 C.ar    1  UNL1       -0.0598
     16 C           0.9950   -5.1165    0.1282 C.ar    1  UNL1       -0.0611
     17 C           1.8226   -4.0283   -0.0726 C.ar    1  UNL1       -0.0520
     18 C           1.2804   -2.7860    0.1548 C.ar    1  UNL1        0.0081
     19 C           1.8618   -1.5578    0.0190 C.ar    1  UNL1        0.0151
     20 C           3.1114   -1.1019   -0.3599 C.ar    1  UNL1       -0.0078
     21 C           3.4174    0.2640   -0.4154 C.ar    1  UNL1        0.0518
     22 C           2.4395    1.1821   -0.0820 C.ar    1  UNL1        0.0221
     23 C           2.3654    2.5436   -0.0386 C.ar    1  UNL1        0.0085
     24 C           3.2546    3.5452   -0.2970 C.ar    1  UNL1       -0.0520
     25 C           2.8233    4.8744   -0.1449 C.ar    1  UNL1       -0.0611
     26 C           1.5408    5.1725    0.2535 C.ar    1  UNL1       -0.0598
     27 C           0.6257    4.1531    0.5196 C.ar    1  UNL1       -0.0375
     28 C           1.0678    2.8558    0.3647 C.ar    1  UNL1        0.0524
     29 N           0.3752    1.7338    0.5612 N.ar    1  UNL1       -0.3115
     30 C           1.1825    0.6971    0.2994 C.ar    1  UNL1        0.0774
     31 C           0.9218   -0.6427    0.3442 C.ar    1  UNL1        0.0772
     32 C           4.7788    0.4160   -0.8367 C.2     1  UNL1        0.2453
     33 O           5.4672    1.4222   -1.0223 O.2     1  UNL1       -0.2702
     34 N           5.2976   -0.9024   -1.0380 N.am    1  UNL1       -0.3072
     35 C           4.3009   -1.8849   -0.7569 C.3     1  UNL1        0.0385
     36 H          -4.0048    2.9510   -1.8606 H       1  UNL1        0.0388
     37 H          -5.5978    2.4643   -1.1626 H       1  UNL1        0.0388
     38 H          -4.2552    2.8736   -0.0710 H       1  UNL1        0.0388
     39 H          -4.9328    0.4178   -0.8329 H       1  UNL1        0.1220
     40 H          -3.5315    1.1105    1.0418 H       1  UNL1        0.0489
     41 H          -2.2508    2.7940   -0.4440 H       1  UNL1        0.0325
     42 H          -1.4128    1.3266   -1.0959 H       1  UNL1        0.0325
     43 H          -1.2071    2.5659    1.5915 H       1  UNL1        0.0839
     44 H          -2.3796   -0.6765    3.1039 H       1  UNL1        0.0277
     45 H          -1.3593   -2.0905    2.8019 H       1  UNL1        0.0277
     46 H          -3.0740   -1.9072    2.0821 H       1  UNL1        0.0277
     47 H          -3.3569   -1.2599    0.2262 H       1  UNL1        0.0660
     48 H          -2.2594   -1.8966   -2.8890 H       1  UNL1        0.0524
     49 H          -2.5974   -2.6948   -1.3293 H       1  UNL1        0.0524
     50 H          -3.7502   -1.4761   -1.9328 H       1  UNL1        0.0524
     51 H          -1.8525   -3.5295    1.0585 H       1  UNL1        0.0638
     52 H          -0.9545   -5.7767    0.6939 H       1  UNL1        0.0618
     53 H           1.4201   -6.0990   -0.0502 H       1  UNL1        0.0618
     54 H           2.8616   -4.1482   -0.3977 H       1  UNL1        0.0624
     55 H           4.2441    3.3859   -0.6031 H       1  UNL1        0.0624
     56 H           3.5262    5.6836   -0.3489 H       1  UNL1        0.0618
     57 H           1.2437    6.2084    0.3601 H       1  UNL1        0.0618
     58 H          -0.3852    4.3681    0.8334 H       1  UNL1        0.0638
     59 H           6.2883   -1.0982   -1.3526 H       1  UNL1        0.1493
     60 H           4.6440   -2.5659    0.0548 H       1  UNL1        0.0512
     61 H           4.0314   -2.4553   -1.6750 H       1  UNL1        0.0512
@<TRIPOS>BOND
     1     1     2    1
     2     2     3    1
     3     3     4    1
     4     4     5    1
     5     5     6    1
     6     6     7    1
     7     7     8    1
     8     7     9    1
     9     9    10    1
    10    10    11    1
    11     7    12    1
    12    12    13   ar
    13    13    14   ar
    14    14    15   ar
    15    15    16   ar
    16    16    17   ar
    17    17    18   ar
    18    18    19   ar
    19    19    20   ar
    20    20    21   ar
    21    21    22   ar
    22    22    23   ar
    23    23    24   ar
    24    24    25   ar
    25    25    26   ar
    26    26    27   ar
    27    27    28   ar
    28    28    29   ar
    29    29    30   ar
    30    30    31   ar
    31    21    32    1
    32    32    33    2
    33    32    34   am
    34    34    35    1
    35     9     3    1
    36    31    12   ar
    37    29     5    1
    38    18    13   ar
    39    31    19   ar
    40    35    20    1
    41    30    22   ar
    42    28    23   ar
    43     1    36    1
    44     1    37    1
    45     1    38    1
    46     2    39    1
    47     3    40    1
    48     4    41    1
    49     4    42    1
    50     5    43    1
    51     8    44    1
    52     8    45    1
    53     8    46    1
    54     9    47    1
    55    11    48    1
    56    11    49    1
    57    11    50    1
    58    14    51    1
    59    15    52    1
    60    16    53    1
    61    17    54    1
    62    24    55    1
    63    25    56    1
    64    26    57    1
    65    27    58    1
    66    34    59    1
    67    35    60    1
    68    35    61    1
