
     RDKit          3D

 61 68  0  0  0  0  0  0  0  0999 V2000
   -4.4931    2.3749   -1.0466 C   0  0  0  0  0  0  0  0  0  0  0  0
   -4.0653    0.9973   -1.0270 N   0  0  0  0  0  0  0  0  0  0  0  0
   -3.1229    0.8410    0.0501 C   0  0  2  0  0  0  0  0  0  0  0  0
   -1.9519    1.7703   -0.2161 C   0  0  0  0  0  0  0  0  0  0  0  0
   -1.0257    1.6477    0.9704 C   0  0  1  0  0  0  0  0  0  0  0  0
   -1.2282    0.5790    1.7620 O   0  0  0  0  0  0  0  0  0  0  0  0
   -1.5074   -0.6551    1.1513 C   0  0  1  0  0  0  0  0  0  0  0  0
   -2.0935   -1.4431    2.3091 C   0  0  0  0  0  0  0  0  0  0  0  0
   -2.5103   -0.5613    0.0546 C   0  0  2  0  0  0  0  0  0  0  0  0
   -1.9469   -0.7125   -1.2154 O   0  0  0  0  0  0  0  0  0  0  0  0
   -2.6709   -1.7324   -1.8609 C   0  0  0  0  0  0  0  0  0  0  0  0
   -0.2534   -1.2503    0.6903 N   0  0  0  0  0  0  0  0  0  0  0  0
   -0.0168   -2.5759    0.5643 C   0  0  0  0  0  0  0  0  0  0  0  0
   -0.8336   -3.6663    0.7603 C   0  0  0  0  0  0  0  0  0  0  0  0
   -0.3077   -4.9279    0.5371 C   0  0  0  0  0  0  0  0  0  0  0  0
    0.9950   -5.1165    0.1282 C   0  0  0  0  0  0  0  0  0  0  0  0
    1.8226   -4.0283   -0.0726 C   0  0  0  0  0  0  0  0  0  0  0  0
    1.2804   -2.7860    0.1548 C   0  0  0  0  0  0  0  0  0  0  0  0
    1.8618   -1.5578    0.0190 C   0  0  0  0  0  0  0  0  0  0  0  0
    3.1114   -1.1019   -0.3599 C   0  0  0  0  0  0  0  0  0  0  0  0
    3.4174    0.2640   -0.4154 C   0  0  0  0  0  0  0  0  0  0  0  0
    2.4395    1.1821   -0.0820 C   0  0  0  0  0  0  0  0  0  0  0  0
    2.3654    2.5436   -0.0386 C   0  0  0  0  0  0  0  0  0  0  0  0
    3.2546    3.5452   -0.2970 C   0  0  0  0  0  0  0  0  0  0  0  0
    2.8233    4.8744   -0.1449 C   0  0  0  0  0  0  0  0  0  0  0  0
    1.5408    5.1725    0.2535 C   0  0  0  0  0  0  0  0  0  0  0  0
    0.6257    4.1531    0.5196 C   0  0  0  0  0  0  0  0  0  0  0  0
    1.0678    2.8558    0.3647 C   0  0  0  0  0  0  0  0  0  0  0  0
    0.3752    1.7338    0.5612 N   0  0  0  0  0  0  0  0  0  0  0  0
    1.1825    0.6971    0.2994 C   0  0  0  0  0  0  0  0  0  0  0  0
    0.9218   -0.6427    0.3442 C   0  0  0  0  0  0  0  0  0  0  0  0
    4.7788    0.4160   -0.8367 C   0  0  0  0  0  0  0  0  0  0  0  0
    5.4672    1.4222   -1.0223 O   0  0  0  0  0  0  0  0  0  0  0  0
    5.2976   -0.9024   -1.0380 N   0  0  0  0  0  0  0  0  0  0  0  0
    4.3009   -1.8849   -0.7569 C   0  0  0  0  0  0  0  0  0  0  0  0
   -4.0048    2.9510   -1.8606 H   0  0  0  0  0  0  0  0  0  0  0  0
   -5.5978    2.4643   -1.1626 H   0  0  0  0  0  0  0  0  0  0  0  0
   -4.2552    2.8736   -0.0710 H   0  0  0  0  0  0  0  0  0  0  0  0
   -4.9328    0.4178   -0.8329 H   0  0  0  0  0  0  0  0  0  0  0  0
   -3.5315    1.1105    1.0418 H   0  0  0  0  0  0  0  0  0  0  0  0
   -2.2508    2.7940   -0.4440 H   0  0  0  0  0  0  0  0  0  0  0  0
   -1.4128    1.3266   -1.0959 H   0  0  0  0  0  0  0  0  0  0  0  0
   -1.2071    2.5659    1.5915 H   0  0  0  0  0  0  0  0  0  0  0  0
   -2.3796   -0.6765    3.1039 H   0  0  0  0  0  0  0  0  0  0  0  0
   -1.3593   -2.0905    2.8019 H   0  0  0  0  0  0  0  0  0  0  0  0
   -3.0740   -1.9072    2.0821 H   0  0  0  0  0  0  0  0  0  0  0  0
   -3.3569   -1.2599    0.2262 H   0  0  0  0  0  0  0  0  0  0  0  0
   -2.2594   -1.8966   -2.8890 H   0  0  0  0  0  0  0  0  0  0  0  0
   -2.5974   -2.6948   -1.3293 H   0  0  0  0  0  0  0  0  0  0  0  0
   -3.7502   -1.4761   -1.9328 H   0  0  0  0  0  0  0  0  0  0  0  0
   -1.8525   -3.5295    1.0585 H   0  0  0  0  0  0  0  0  0  0  0  0
   -0.9545   -5.7767    0.6939 H   0  0  0  0  0  0  0  0  0  0  0  0
    1.4201   -6.0990   -0.0502 H   0  0  0  0  0  0  0  0  0  0  0  0
    2.8616   -4.1482   -0.3977 H   0  0  0  0  0  0  0  0  0  0  0  0
    4.2441    3.3859   -0.6031 H   0  0  0  0  0  0  0  0  0  0  0  0
    3.5262    5.6836   -0.3489 H   0  0  0  0  0  0  0  0  0  0  0  0
    1.2437    6.2084    0.3601 H   0  0  0  0  0  0  0  0  0  0  0  0
   -0.3852    4.3681    0.8334 H   0  0  0  0  0  0  0  0  0  0  0  0
    6.2883   -1.0982   -1.3526 H   0  0  0  0  0  0  0  0  0  0  0  0
    4.6440   -2.5659    0.0548 H   0  0  0  0  0  0  0  0  0  0  0  0
    4.0314   -2.4553   -1.6750 H   0  0  0  0  0  0  0  0  0  0  0  0
  1  2  1  0
  2  3  1  0
  3  4  1  0
  4  5  1  0
  5  6  1  0
  6  7  1  0
  7  8  1  1
  7  9  1  0
  9 10  1  0
 10 11  1  0
  7 12  1  0
 12 13  1  0
 13 14  2  0
 14 15  1  0
 15 16  2  0
 16 17  1  0
 17 18  2  0
 18 19  1  0
 19 20  2  0
 20 21  1  0
 21 22  2  0
 22 23  1  0
 23 24  2  0
 24 25  1  0
 25 26  2  0
 26 27  1  0
 27 28  2  0
 28 29  1  0
 29 30  1  0
 30 31  2  0
 21 32  1  0
 32 33  2  0
 32 34  1  0
 34 35  1  0
  9  3  1  0
 31 12  1  0
 29  5  1  0
 18 13  1  0
 31 19  1  0
 35 20  1  0
 30 22  1  0
 28 23  1  0
  1 36  1  0
  1 37  1  0
  1 38  1  0
  2 39  1  0
  3 40  1  1
  4 41  1  0
  4 42  1  0
  5 43  1  1
  8 44  1  0
  8 45  1  0
  8 46  1  0
  9 47  1  1
 11 48  1  0
 11 49  1  0
 11 50  1  0
 14 51  1  0
 15 52  1  0
 16 53  1  0
 17 54  1  0
 24 55  1  0
 25 56  1  0
 26 57  1  0
 27 58  1  0
 34 59  1  0
 35 60  1  0
 35 61  1  0
M  END
$$$$
