@<TRIPOS>MOLECULE
*****
 70 75 0 0 0
SMALL
GASTEIGER

@<TRIPOS>ATOM
      1 C          -6.4267    1.0423    0.9361 C.3     1  UNL1       -0.0380
      2 C          -5.9022    1.9223   -0.1505 C.ar    1  UNL1       -0.0279
      3 C          -6.7836    2.2845   -1.1767 C.ar    1  UNL1       -0.0557
      4 C          -6.4148    3.1195   -2.1866 C.ar    1  UNL1       -0.0433
      5 C          -5.1160    3.6100   -2.1684 C.ar    1  UNL1        0.0279
      6 N          -4.2891    3.2563   -1.1869 N.ar    1  UNL1       -0.2583
      7 C          -4.6350    2.4171   -0.1599 C.ar    1  UNL1        0.0581
      8 C          -3.6198    2.0550    0.8405 C.3     1  UNL1        0.0415
      9 N          -2.9171    0.8756    0.5232 N.3     1  UNL1       -0.2965
     10 C          -3.5849   -0.3224    0.2671 C.3     1  UNL1        0.0017
     11 C          -2.7373   -1.5067   -0.1417 C.3     1  UNL1       -0.0095
     12 C          -1.4148   -1.4708    0.4996 C.3     1  UNL1        0.1240
     13 C          -1.5191   -0.6320    1.7559 C.3     1  UNL1       -0.0095
     14 C          -1.6756    0.7881    1.2571 C.3     1  UNL1        0.0017
     15 C          -0.3667   -0.8169   -0.3549 C.2     1  UNL1        0.2516
     16 O          -0.5124   -0.0616   -1.3497 O.2     1  UNL1       -0.2724
     17 N           0.8695   -1.2562    0.2300 N.am    1  UNL1       -0.1920
     18 C           2.1031   -0.5741    0.1141 C.ar    1  UNL1        0.0455
     19 C           2.9460   -0.8530   -0.9337 C.ar    1  UNL1       -0.0392
     20 C           4.1491   -0.1777   -1.0380 C.ar    1  UNL1       -0.0523
     21 C           4.4836    0.7601   -0.0950 C.ar    1  UNL1       -0.0178
     22 C           5.7384    1.4725   -0.1975 C.ar    1  UNL1       -0.0178
     23 C           5.8480    2.7744    0.2694 C.ar    1  UNL1       -0.0533
     24 C           7.0367    3.4589    0.1751 C.ar    1  UNL1       -0.0472
     25 C           8.1284    2.8455   -0.3883 C.ar    1  UNL1        0.0589
     26 C           9.3975    3.5470   -0.5010 C.2     1  UNL1        0.3368
     27 O           9.5390    4.7284   -0.0913 O.2     1  UNL1       -0.2451
     28 O          10.4974    2.9230   -1.0703 O.3     1  UNL1       -0.4771
     29 C           7.9936    1.5533   -0.8438 C.ar    1  UNL1       -0.0472
     30 C           6.8201    0.8347   -0.7672 C.ar    1  UNL1       -0.0533
     31 C           3.6550    1.0635    0.9730 C.ar    1  UNL1       -0.0523
     32 C           2.4419    0.3649    1.0553 C.ar    1  UNL1       -0.0392
     33 C           0.5879   -2.4751    0.9215 C.2     1  UNL1        0.3219
     34 O           1.4286   -3.1789    1.5723 O.2     1  UNL1       -0.2512
     35 N          -0.8067   -2.7555    0.7470 N.am    1  UNL1       -0.2240
     36 C          -1.3702   -4.0429    0.8199 C.ar    1  UNL1        0.1364
     37 C          -1.4950   -4.8519   -0.2862 C.ar    1  UNL1        0.0432
     38 C          -2.0630   -6.1207   -0.1552 C.ar    1  UNL1        0.2531
     39 O          -2.1875   -6.8767   -1.1495 O.2     1  UNL1       -0.2678
     40 N          -2.4910   -6.5656    1.0393 N.ar    1  UNL1       -0.3133
     41 C          -2.3560   -5.7543    2.0992 C.ar    1  UNL1        0.0981
     42 N          -1.8088   -4.5210    1.9957 N.ar    1  UNL1       -0.2220
     43 H          -7.5302    1.2796    1.0673 H       1  UNL1        0.0278
     44 H          -6.4323   -0.0317    0.6324 H       1  UNL1        0.0278
     45 H          -5.9356    1.2287    1.9019 H       1  UNL1        0.0278
     46 H          -7.7786    1.8743   -1.1399 H       1  UNL1        0.0621
     47 H          -7.0518    3.4252   -2.9928 H       1  UNL1        0.0633
     48 H          -4.7596    4.2734   -2.9332 H       1  UNL1        0.0829
     49 H          -2.8566    2.8877    0.9316 H       1  UNL1        0.0491
     50 H          -4.1006    1.9440    1.8520 H       1  UNL1        0.0491
     51 H          -4.3737   -0.1775   -0.5446 H       1  UNL1        0.0427
     52 H          -4.1536   -0.6559    1.1577 H       1  UNL1        0.0427
     53 H          -2.6893   -1.4967   -1.2516 H       1  UNL1        0.0303
     54 H          -3.2591   -2.4364    0.1351 H       1  UNL1        0.0303
     55 H          -2.4006   -0.9618    2.3394 H       1  UNL1        0.0303
     56 H          -0.5958   -0.7493    2.3259 H       1  UNL1        0.0303
     57 H          -0.7968    1.0576    0.6771 H       1  UNL1        0.0427
     58 H          -1.7781    1.4580    2.1350 H       1  UNL1        0.0427
     59 H           2.6521   -1.6004   -1.6629 H       1  UNL1        0.0636
     60 H           4.8063   -0.3981   -1.8589 H       1  UNL1        0.0624
     61 H           4.9626    3.2152    0.7048 H       1  UNL1        0.0624
     62 H           7.0798    4.4644    0.5482 H       1  UNL1        0.0626
     63 H          11.3258    3.4521   -1.3001 H       1  UNL1        0.2954
     64 H           8.8342    1.0221   -1.3004 H       1  UNL1        0.0626
     65 H           6.7392   -0.1893   -1.1360 H       1  UNL1        0.0624
     66 H           3.9066    1.7927    1.7135 H       1  UNL1        0.0624
     67 H           1.8046    0.6221    1.9077 H       1  UNL1        0.0636
     68 H          -1.1725   -4.5572   -1.2723 H       1  UNL1        0.0706
     69 H          -2.9211   -7.5212    1.1494 H       1  UNL1        0.1698
     70 H          -2.6959   -6.1046    3.0546 H       1  UNL1        0.1028
@<TRIPOS>BOND
     1     1     2    1
     2     2     3   ar
     3     3     4   ar
     4     4     5   ar
     5     5     6   ar
     6     6     7   ar
     7     7     8    1
     8     8     9    1
     9     9    10    1
    10    10    11    1
    11    11    12    1
    12    12    13    1
    13    13    14    1
    14    12    15    1
    15    15    16    2
    16    15    17   am
    17    17    18    1
    18    18    19   ar
    19    19    20   ar
    20    20    21   ar
    21    21    22    1
    22    22    23   ar
    23    23    24   ar
    24    24    25   ar
    25    25    26    1
    26    26    27    2
    27    26    28    1
    28    25    29   ar
    29    29    30   ar
    30    21    31   ar
    31    31    32   ar
    32    17    33   am
    33    33    34    2
    34    33    35   am
    35    35    36    1
    36    36    37   ar
    37    37    38   ar
    38    38    39    2
    39    38    40   ar
    40    40    41   ar
    41    41    42   ar
    42     7     2   ar
    43    14     9    1
    44    32    18   ar
    45    42    36   ar
    46    35    12    1
    47    30    22   ar
    48     1    43    1
    49     1    44    1
    50     1    45    1
    51     3    46    1
    52     4    47    1
    53     5    48    1
    54     8    49    1
    55     8    50    1
    56    10    51    1
    57    10    52    1
    58    11    53    1
    59    11    54    1
    60    13    55    1
    61    13    56    1
    62    14    57    1
    63    14    58    1
    64    19    59    1
    65    20    60    1
    66    23    61    1
    67    24    62    1
    68    28    63    1
    69    29    64    1
    70    30    65    1
    71    31    66    1
    72    32    67    1
    73    37    68    1
    74    40    69    1
    75    41    70    1
