
     RDKit          3D

 70 75  0  0  0  0  0  0  0  0999 V2000
   -6.4267    1.0423    0.9361 C   0  0  0  0  0  0  0  0  0  0  0  0
   -5.9022    1.9223   -0.1505 C   0  0  0  0  0  0  0  0  0  0  0  0
   -6.7836    2.2845   -1.1767 C   0  0  0  0  0  0  0  0  0  0  0  0
   -6.4148    3.1195   -2.1866 C   0  0  0  0  0  0  0  0  0  0  0  0
   -5.1160    3.6100   -2.1684 C   0  0  0  0  0  0  0  0  0  0  0  0
   -4.2891    3.2563   -1.1869 N   0  0  0  0  0  0  0  0  0  0  0  0
   -4.6350    2.4171   -0.1599 C   0  0  0  0  0  0  0  0  0  0  0  0
   -3.6198    2.0550    0.8405 C   0  0  0  0  0  0  0  0  0  0  0  0
   -2.9171    0.8756    0.5232 N   0  0  0  0  0  0  0  0  0  0  0  0
   -3.5849   -0.3224    0.2671 C   0  0  0  0  0  0  0  0  0  0  0  0
   -2.7373   -1.5067   -0.1417 C   0  0  0  0  0  0  0  0  0  0  0  0
   -1.4148   -1.4708    0.4996 C   0  0  0  0  0  0  0  0  0  0  0  0
   -1.5191   -0.6320    1.7559 C   0  0  0  0  0  0  0  0  0  0  0  0
   -1.6756    0.7881    1.2571 C   0  0  0  0  0  0  0  0  0  0  0  0
   -0.3667   -0.8169   -0.3549 C   0  0  0  0  0  0  0  0  0  0  0  0
   -0.5124   -0.0616   -1.3497 O   0  0  0  0  0  0  0  0  0  0  0  0
    0.8695   -1.2562    0.2300 N   0  0  0  0  0  0  0  0  0  0  0  0
    2.1031   -0.5741    0.1141 C   0  0  0  0  0  0  0  0  0  0  0  0
    2.9460   -0.8530   -0.9337 C   0  0  0  0  0  0  0  0  0  0  0  0
    4.1491   -0.1777   -1.0380 C   0  0  0  0  0  0  0  0  0  0  0  0
    4.4836    0.7601   -0.0950 C   0  0  0  0  0  0  0  0  0  0  0  0
    5.7384    1.4725   -0.1975 C   0  0  0  0  0  0  0  0  0  0  0  0
    5.8480    2.7744    0.2694 C   0  0  0  0  0  0  0  0  0  0  0  0
    7.0367    3.4589    0.1751 C   0  0  0  0  0  0  0  0  0  0  0  0
    8.1284    2.8455   -0.3883 C   0  0  0  0  0  0  0  0  0  0  0  0
    9.3975    3.5470   -0.5010 C   0  0  0  0  0  0  0  0  0  0  0  0
    9.5390    4.7284   -0.0913 O   0  0  0  0  0  0  0  0  0  0  0  0
   10.4974    2.9230   -1.0703 O   0  0  0  0  0  0  0  0  0  0  0  0
    7.9936    1.5533   -0.8438 C   0  0  0  0  0  0  0  0  0  0  0  0
    6.8201    0.8347   -0.7672 C   0  0  0  0  0  0  0  0  0  0  0  0
    3.6550    1.0635    0.9730 C   0  0  0  0  0  0  0  0  0  0  0  0
    2.4419    0.3649    1.0553 C   0  0  0  0  0  0  0  0  0  0  0  0
    0.5879   -2.4751    0.9215 C   0  0  0  0  0  0  0  0  0  0  0  0
    1.4286   -3.1789    1.5723 O   0  0  0  0  0  0  0  0  0  0  0  0
   -0.8067   -2.7555    0.7470 N   0  0  0  0  0  0  0  0  0  0  0  0
   -1.3702   -4.0429    0.8199 C   0  0  0  0  0  0  0  0  0  0  0  0
   -1.4950   -4.8519   -0.2862 C   0  0  0  0  0  0  0  0  0  0  0  0
   -2.0630   -6.1207   -0.1552 C   0  0  0  0  0  0  0  0  0  0  0  0
   -2.1875   -6.8767   -1.1495 O   0  0  0  0  0  0  0  0  0  0  0  0
   -2.4910   -6.5656    1.0393 N   0  0  0  0  0  0  0  0  0  0  0  0
   -2.3560   -5.7543    2.0992 C   0  0  0  0  0  0  0  0  0  0  0  0
   -1.8088   -4.5210    1.9957 N   0  0  0  0  0  0  0  0  0  0  0  0
   -7.5302    1.2796    1.0673 H   0  0  0  0  0  0  0  0  0  0  0  0
   -6.4323   -0.0317    0.6324 H   0  0  0  0  0  0  0  0  0  0  0  0
   -5.9356    1.2287    1.9019 H   0  0  0  0  0  0  0  0  0  0  0  0
   -7.7786    1.8743   -1.1399 H   0  0  0  0  0  0  0  0  0  0  0  0
   -7.0518    3.4252   -2.9928 H   0  0  0  0  0  0  0  0  0  0  0  0
   -4.7596    4.2734   -2.9332 H   0  0  0  0  0  0  0  0  0  0  0  0
   -2.8566    2.8877    0.9316 H   0  0  0  0  0  0  0  0  0  0  0  0
   -4.1006    1.9440    1.8520 H   0  0  0  0  0  0  0  0  0  0  0  0
   -4.3737   -0.1775   -0.5446 H   0  0  0  0  0  0  0  0  0  0  0  0
   -4.1536   -0.6559    1.1577 H   0  0  0  0  0  0  0  0  0  0  0  0
   -2.6893   -1.4967   -1.2516 H   0  0  0  0  0  0  0  0  0  0  0  0
   -3.2591   -2.4364    0.1351 H   0  0  0  0  0  0  0  0  0  0  0  0
   -2.4006   -0.9618    2.3394 H   0  0  0  0  0  0  0  0  0  0  0  0
   -0.5958   -0.7493    2.3259 H   0  0  0  0  0  0  0  0  0  0  0  0
   -0.7968    1.0576    0.6771 H   0  0  0  0  0  0  0  0  0  0  0  0
   -1.7781    1.4580    2.1350 H   0  0  0  0  0  0  0  0  0  0  0  0
    2.6521   -1.6004   -1.6629 H   0  0  0  0  0  0  0  0  0  0  0  0
    4.8063   -0.3981   -1.8589 H   0  0  0  0  0  0  0  0  0  0  0  0
    4.9626    3.2152    0.7048 H   0  0  0  0  0  0  0  0  0  0  0  0
    7.0798    4.4644    0.5482 H   0  0  0  0  0  0  0  0  0  0  0  0
   11.3258    3.4521   -1.3001 H   0  0  0  0  0  0  0  0  0  0  0  0
    8.8342    1.0221   -1.3004 H   0  0  0  0  0  0  0  0  0  0  0  0
    6.7392   -0.1893   -1.1360 H   0  0  0  0  0  0  0  0  0  0  0  0
    3.9066    1.7927    1.7135 H   0  0  0  0  0  0  0  0  0  0  0  0
    1.8046    0.6221    1.9077 H   0  0  0  0  0  0  0  0  0  0  0  0
   -1.1725   -4.5572   -1.2723 H   0  0  0  0  0  0  0  0  0  0  0  0
   -2.9211   -7.5212    1.1494 H   0  0  0  0  0  0  0  0  0  0  0  0
   -2.6959   -6.1046    3.0546 H   0  0  0  0  0  0  0  0  0  0  0  0
  1  2  1  0
  2  3  2  0
  3  4  1  0
  4  5  2  0
  5  6  1  0
  6  7  2  0
  7  8  1  0
  8  9  1  0
  9 10  1  0
 10 11  1  0
 11 12  1  0
 12 13  1  0
 13 14  1  0
 12 15  1  0
 15 16  2  0
 15 17  1  0
 17 18  1  0
 18 19  2  0
 19 20  1  0
 20 21  2  0
 21 22  1  0
 22 23  2  0
 23 24  1  0
 24 25  2  0
 25 26  1  0
 26 27  2  0
 26 28  1  0
 25 29  1  0
 29 30  2  0
 21 31  1  0
 31 32  2  0
 17 33  1  0
 33 34  2  0
 33 35  1  0
 35 36  1  0
 36 37  2  0
 37 38  1  0
 38 39  2  0
 38 40  1  0
 40 41  1  0
 41 42  2  0
  7  2  1  0
 14  9  1  0
 32 18  1  0
 42 36  1  0
 35 12  1  0
 30 22  1  0
  1 43  1  0
  1 44  1  0
  1 45  1  0
  3 46  1  0
  4 47  1  0
  5 48  1  0
  8 49  1  0
  8 50  1  0
 10 51  1  0
 10 52  1  0
 11 53  1  0
 11 54  1  0
 13 55  1  0
 13 56  1  0
 14 57  1  0
 14 58  1  0
 19 59  1  0
 20 60  1  0
 23 61  1  0
 24 62  1  0
 28 63  1  0
 29 64  1  0
 30 65  1  0
 31 66  1  0
 32 67  1  0
 37 68  1  0
 40 69  1  0
 41 70  1  0
M  END
$$$$
