@<TRIPOS>MOLECULE
*****
 62 64 0 0 0
SMALL
GASTEIGER

@<TRIPOS>ATOM
      1 C          -2.1143   -1.7281    1.7810 C.3     1  UNL1       -0.0549
      2 C          -2.1884   -0.2298    1.5391 C.3     1  UNL1        0.0201
      3 C          -2.2787    0.4982    2.8238 C.3     1  UNL1       -0.0549
      4 C          -3.3147    0.0616    0.6011 C.3     1  UNL1       -0.0167
      5 C          -4.6525   -0.3404    1.0378 C.ar    1  UNL1       -0.0293
      6 C          -5.1144   -1.6039    0.6404 C.ar    1  UNL1       -0.0573
      7 C          -6.3492   -2.0130    1.0803 C.ar    1  UNL1       -0.0614
      8 C          -7.1783   -1.2673    1.8914 C.ar    1  UNL1       -0.0605
      9 C          -6.7224   -0.0273    2.2788 C.ar    1  UNL1       -0.0441
     10 C          -5.4667    0.4110    1.8420 C.ar    1  UNL1        0.0550
     11 C          -5.0578    1.7439    2.2396 C.1     1  UNL1        0.0994
     12 N          -4.7498    2.8086    2.5654 N.1     1  UNL1       -0.1909
     13 C          -0.9169    0.2594    0.8446 C.3     1  UNL1        0.1652
     14 O           0.1926   -0.0002    1.6091 O.3     1  UNL1       -0.3503
     15 C           1.3784   -0.0335    0.8845 C.3     1  UNL1        0.0564
     16 C           1.1627    0.8011   -0.3861 C.3     1  UNL1        0.0165
     17 C           2.4391    1.2246   -1.0259 C.3     1  UNL1       -0.0271
     18 C           3.3523    0.1699   -1.4461 C.2     1  UNL1       -0.0875
     19 C           4.5901   -0.0101   -1.0139 C.2     1  UNL1       -0.0874
     20 C           5.2674    0.8413   -0.0157 C.3     1  UNL1       -0.0247
     21 C           6.5259    1.4608   -0.6525 C.3     1  UNL1        0.0482
     22 C           7.1851    2.3064    0.3572 C.2     1  UNL1        0.3050
     23 O           6.7072    2.4355    1.5113 O.2     1  UNL1       -0.2510
     24 O           8.3559    2.9872    0.0636 O.3     1  UNL1       -0.4806
     25 C           0.0807    0.2858   -1.2392 C.3     1  UNL1        0.0932
     26 C           0.4084   -0.7070   -2.2563 C.ar    1  UNL1       -0.0003
     27 C           0.5181   -0.3074   -3.5717 C.ar    1  UNL1       -0.0532
     28 C           0.8163   -1.2371   -4.5706 C.ar    1  UNL1       -0.0433
     29 C           1.0000   -2.5567   -4.2313 C.ar    1  UNL1        0.0276
     30 N           0.8885   -2.9193   -2.9506 N.ar    1  UNL1       -0.2629
     31 C           0.6025   -2.0395   -1.9787 C.ar    1  UNL1        0.0332
     32 O          -0.8740   -0.3294   -0.3882 O.3     1  UNL1       -0.3426
     33 H          -2.0518   -2.2966    0.8302 H       1  UNL1        0.0237
     34 H          -1.2785   -1.9672    2.4571 H       1  UNL1        0.0237
     35 H          -3.0634   -2.0072    2.2942 H       1  UNL1        0.0237
     36 H          -3.0928    0.1555    3.4873 H       1  UNL1        0.0237
     37 H          -1.3216    0.2691    3.3859 H       1  UNL1        0.0237
     38 H          -2.2509    1.5871    2.6381 H       1  UNL1        0.0237
     39 H          -3.3319    1.1852    0.4501 H       1  UNL1        0.0320
     40 H          -3.0968   -0.3303   -0.4294 H       1  UNL1        0.0320
     41 H          -4.4973   -2.2464   -0.0072 H       1  UNL1        0.0621
     42 H          -6.7020   -2.9985    0.7676 H       1  UNL1        0.0618
     43 H          -8.1537   -1.6191    2.2240 H       1  UNL1        0.0618
     44 H          -7.3426    0.5928    2.9167 H       1  UNL1        0.0630
     45 H          -1.1139    1.3622    0.6928 H       1  UNL1        0.0915
     46 H           2.1395    0.5201    1.4738 H       1  UNL1        0.0564
     47 H           1.7521   -1.0346    0.6695 H       1  UNL1        0.0564
     48 H           0.7440    1.7820    0.0626 H       1  UNL1        0.0354
     49 H           2.9421    1.9161   -0.3223 H       1  UNL1        0.0312
     50 H           2.1440    1.8976   -1.8850 H       1  UNL1        0.0312
     51 H           3.0087   -0.5449   -2.1899 H       1  UNL1        0.0569
     52 H           5.1658   -0.8654   -1.4322 H       1  UNL1        0.0569
     53 H           4.7013    1.6958    0.3588 H       1  UNL1        0.0312
     54 H           5.6172    0.2187    0.8460 H       1  UNL1        0.0312
     55 H           7.1799    0.6929   -1.0784 H       1  UNL1        0.0380
     56 H           6.1518    2.0772   -1.5048 H       1  UNL1        0.0380
     57 H           8.7204    3.7651    0.5964 H       1  UNL1        0.2951
     58 H          -0.5128    1.1519   -1.6767 H       1  UNL1        0.0651
     59 H           0.3871    0.6966   -3.8929 H       1  UNL1        0.0622
     60 H           0.9096   -0.9586   -5.6143 H       1  UNL1        0.0633
     61 H           1.2319   -3.2651   -5.0283 H       1  UNL1        0.0829
     62 H           0.5210   -2.3773   -0.9539 H       1  UNL1        0.0833
@<TRIPOS>BOND
     1     1     2    1
     2     2     3    1
     3     2     4    1
     4     4     5    1
     5     5     6   ar
     6     6     7   ar
     7     7     8   ar
     8     8     9   ar
     9     9    10   ar
    10    10    11    1
    11    11    12    3
    12     2    13    1
    13    13    14    1
    14    14    15    1
    15    15    16    1
    16    16    17    1
    17    17    18    1
    18    18    19    2
    19    19    20    1
    20    20    21    1
    21    21    22    1
    22    22    23    2
    23    22    24    1
    24    16    25    1
    25    25    26    1
    26    26    27   ar
    27    27    28   ar
    28    28    29   ar
    29    29    30   ar
    30    30    31   ar
    31    25    32    1
    32    10     5   ar
    33    32    13    1
    34    31    26   ar
    35     1    33    1
    36     1    34    1
    37     1    35    1
    38     3    36    1
    39     3    37    1
    40     3    38    1
    41     4    39    1
    42     4    40    1
    43     6    41    1
    44     7    42    1
    45     8    43    1
    46     9    44    1
    47    13    45    1
    48    15    46    1
    49    15    47    1
    50    16    48    1
    51    17    49    1
    52    17    50    1
    53    18    51    1
    54    19    52    1
    55    20    53    1
    56    20    54    1
    57    21    55    1
    58    21    56    1
    59    24    57    1
    60    25    58    1
    61    27    59    1
    62    28    60    1
    63    29    61    1
    64    31    62    1
