@<TRIPOS>MOLECULE
*****
 66 69 0 0 0
SMALL
GASTEIGER

@<TRIPOS>ATOM
      1 C           0.4141    2.5279    2.6307 C.3     1  UNL1       -0.0421
      2 C           0.4925    2.1708    1.1592 C.3     1  UNL1        0.0515
      3 C           1.7862    1.5464    0.8134 C.ar    1  UNL1       -0.0271
      4 C           2.1441    0.2616    1.1398 C.ar    1  UNL1       -0.0562
      5 C           3.3709   -0.3057    0.7832 C.ar    1  UNL1       -0.0537
      6 C           4.2848    0.4234    0.0757 C.ar    1  UNL1       -0.0177
      7 C           5.5852   -0.1526   -0.3121 C.ar    1  UNL1       -0.0114
      8 C           6.6986    0.6393   -0.4259 C.ar    1  UNL1       -0.0376
      9 C           7.9089    0.1005   -0.7875 C.ar    1  UNL1        0.0082
     10 N           8.0169   -1.2359   -1.0385 N.ar    1  UNL1       -0.3182
     11 C           9.2981   -1.7771   -1.4162 C.3     1  UNL1        0.0147
     12 C           6.9176   -2.0013   -0.9234 C.ar    1  UNL1        0.2516
     13 O           7.0526   -3.2454   -1.1649 O.2     1  UNL1       -0.2677
     14 C           5.6800   -1.5029   -0.5627 C.ar    1  UNL1        0.0107
     15 C           3.9703    1.7018   -0.2676 C.ar    1  UNL1       -0.0537
     16 C           2.7621    2.2490    0.0875 C.ar    1  UNL1       -0.0562
     17 N          -0.6834    1.4862    0.7008 N.am    1  UNL1       -0.2605
     18 C          -1.0885    0.2042    1.1997 C.3     1  UNL1        0.0224
     19 C          -2.5811    0.0111    1.2070 C.3     1  UNL1        0.0076
     20 C          -3.2939    0.3754   -0.0232 C.3     1  UNL1        0.1440
     21 C          -4.6297    0.9875    0.2384 C.3     1  UNL1        0.0199
     22 C          -5.6614    0.2518    0.9530 C.3     1  UNL1        0.0645
     23 C          -6.1144   -1.0465    0.3390 C.3     1  UNL1       -0.0362
     24 C          -5.4691    0.0118    2.4256 C.3     1  UNL1       -0.0362
     25 O          -6.8238    1.0791    0.8798 O.3     1  UNL1       -0.3890
     26 C          -3.3714   -0.7236   -1.0617 C.ar    1  UNL1       -0.0040
     27 C          -2.8049   -1.9406   -0.8889 C.ar    1  UNL1       -0.0548
     28 C          -2.9031   -2.9074   -1.8561 C.ar    1  UNL1       -0.0614
     29 C          -3.5973   -2.6239   -3.0292 C.ar    1  UNL1       -0.0617
     30 C          -4.1685   -1.3781   -3.1892 C.ar    1  UNL1       -0.0614
     31 C          -4.0613   -0.4219   -2.2122 C.ar    1  UNL1       -0.0548
     32 O          -2.5869    1.4043   -0.7633 O.3     1  UNL1       -0.4387
     33 C          -1.5324    2.0970   -0.2781 C.2     1  UNL1        0.4042
     34 O          -1.2714    3.2510   -0.6528 O.2     1  UNL1       -0.2262
     35 H           0.1519    1.6666    3.2597 H       1  UNL1        0.0251
     36 H           1.3805    2.9799    2.9133 H       1  UNL1        0.0251
     37 H          -0.3623    3.3038    2.8007 H       1  UNL1        0.0251
     38 H           0.5157    3.1815    0.6345 H       1  UNL1        0.0549
     39 H           1.4818   -0.3761    1.7128 H       1  UNL1        0.0621
     40 H           3.6084   -1.3390    1.0688 H       1  UNL1        0.0624
     41 H           6.6585    1.7100   -0.2351 H       1  UNL1        0.0638
     42 H           8.7867    0.7211   -0.8778 H       1  UNL1        0.0810
     43 H           9.1844   -2.8876   -1.4871 H       1  UNL1        0.0457
     44 H           9.6575   -1.4148   -2.3994 H       1  UNL1        0.0457
     45 H          10.0927   -1.5682   -0.6601 H       1  UNL1        0.0457
     46 H           4.8443   -2.1813   -0.4917 H       1  UNL1        0.0678
     47 H           4.6711    2.3240   -0.8340 H       1  UNL1        0.0624
     48 H           2.5136    3.2723   -0.1882 H       1  UNL1        0.0621
     49 H          -0.5592   -0.5789    0.6304 H       1  UNL1        0.0467
     50 H          -0.7231    0.1240    2.2399 H       1  UNL1        0.0467
     51 H          -2.9564    0.6948    2.0271 H       1  UNL1        0.0322
     52 H          -2.8201   -1.0031    1.5566 H       1  UNL1        0.0322
     53 H          -4.4102    1.9167    0.8507 H       1  UNL1        0.0335
     54 H          -5.0826    1.4260   -0.6944 H       1  UNL1        0.0335
     55 H          -7.0087   -1.3688    0.9482 H       1  UNL1        0.0257
     56 H          -6.5214   -0.9091   -0.6878 H       1  UNL1        0.0257
     57 H          -5.3941   -1.8608    0.4231 H       1  UNL1        0.0257
     58 H          -4.9218   -0.9109    2.6742 H       1  UNL1        0.0257
     59 H          -6.5065   -0.1850    2.8407 H       1  UNL1        0.0257
     60 H          -5.1358    0.9077    2.9839 H       1  UNL1        0.0257
     61 H          -7.2768    0.8937    0.0098 H       1  UNL1        0.2101
     62 H          -2.2636   -2.1526    0.0259 H       1  UNL1        0.0622
     63 H          -2.4393   -3.8572   -1.6771 H       1  UNL1        0.0618
     64 H          -3.6669   -3.3913   -3.7803 H       1  UNL1        0.0618
     65 H          -4.7009   -1.1786   -4.1032 H       1  UNL1        0.0618
     66 H          -4.5375    0.5240   -2.4222 H       1  UNL1        0.0622
@<TRIPOS>BOND
     1     1     2    1
     2     2     3    1
     3     3     4   ar
     4     4     5   ar
     5     5     6   ar
     6     6     7    1
     7     7     8   ar
     8     8     9   ar
     9     9    10   ar
    10    10    11    1
    11    10    12   ar
    12    12    13    2
    13    12    14   ar
    14     6    15   ar
    15    15    16   ar
    16     2    17    1
    17    17    18    1
    18    18    19    1
    19    19    20    1
    20    20    21    1
    21    21    22    1
    22    22    23    1
    23    22    24    1
    24    22    25    1
    25    20    26    1
    26    26    27   ar
    27    27    28   ar
    28    28    29   ar
    29    29    30   ar
    30    30    31   ar
    31    20    32    1
    32    32    33    1
    33    33    34    2
    34    16     3   ar
    35    33    17   am
    36    14     7   ar
    37    31    26   ar
    38     1    35    1
    39     1    36    1
    40     1    37    1
    41     2    38    1
    42     4    39    1
    43     5    40    1
    44     8    41    1
    45     9    42    1
    46    11    43    1
    47    11    44    1
    48    11    45    1
    49    14    46    1
    50    15    47    1
    51    16    48    1
    52    18    49    1
    53    18    50    1
    54    19    51    1
    55    19    52    1
    56    21    53    1
    57    21    54    1
    58    23    55    1
    59    23    56    1
    60    23    57    1
    61    24    58    1
    62    24    59    1
    63    24    60    1
    64    25    61    1
    65    27    62    1
    66    28    63    1
    67    29    64    1
    68    30    65    1
    69    31    66    1
