@<TRIPOS>MOLECULE
*****
 95 100 0 0 0
SMALL
GASTEIGER

@<TRIPOS>ATOM
      1 O          11.3393    3.8907    1.6334 O.2     1  UNL1       -0.2737
      2 C          10.4435    4.7669    1.5279 C.2     1  UNL1        0.2354
      3 C           9.0225    4.4719    1.6948 C.3     1  UNL1        0.0259
      4 C           8.7302    3.0292    1.9838 C.3     1  UNL1       -0.0447
      5 C           9.1739    2.0816    0.9036 C.3     1  UNL1       -0.0526
      6 C           8.5189    2.3329   -0.4128 C.3     1  UNL1       -0.0526
      7 C           7.0077    2.1757   -0.3822 C.3     1  UNL1       -0.0448
      8 C           6.6762    0.7653    0.0124 C.3     1  UNL1        0.0243
      9 C           5.1930    0.5818    0.0200 C.2     1  UNL1        0.2172
     10 O           4.3639    1.4927   -0.1848 O.2     1  UNL1       -0.2755
     11 N           4.7368   -0.7321    0.2798 N.am    1  UNL1       -0.2855
     12 C           3.3594   -1.1156    0.3267 C.ar    1  UNL1        0.0334
     13 C           2.6887   -1.5109   -0.8166 C.ar    1  UNL1       -0.0401
     14 C           1.3677   -1.9106   -0.7897 C.ar    1  UNL1       -0.0520
     15 C           0.6424   -1.9363    0.3915 C.ar    1  UNL1        0.0080
     16 C          -0.7827   -2.3783    0.4066 C.3     1  UNL1        0.1863
     17 O          -0.9280   -3.5153   -0.4302 O.3     1  UNL1       -0.3392
     18 C          -2.0080   -4.2149    0.1573 C.3     1  UNL1        0.0893
     19 C          -2.2869   -5.4727   -0.5307 C.ar    1  UNL1       -0.0187
     20 C          -2.3324   -5.5849   -1.9121 C.ar    1  UNL1       -0.0558
     21 C          -2.6033   -6.8116   -2.5091 C.ar    1  UNL1       -0.0561
     22 C          -2.8299   -7.9309   -1.7676 C.ar    1  UNL1       -0.0222
     23 C          -3.1221   -9.2643   -2.3610 C.3     1  UNL1        0.0692
     24 O          -1.9873  -10.0032   -2.5881 O.3     1  UNL1       -0.3904
     25 C          -2.7867   -7.8306   -0.3965 C.ar    1  UNL1       -0.0561
     26 C          -2.5178   -6.6125    0.1984 C.ar    1  UNL1       -0.0558
     27 C          -3.2022   -3.2930    0.2109 C.3     1  UNL1        0.0050
     28 C          -2.9127   -1.9078   -0.2531 C.3     1  UNL1        0.0741
     29 C          -3.3373   -1.7130   -1.7144 C.3     1  UNL1        0.0291
     30 S          -2.9709    0.0044   -2.2286 S.3     1  UNL1       -0.0646
     31 C          -4.0851    1.0607   -1.2722 C.ar    1  UNL1        0.2581
     32 N          -4.1141    2.3991   -1.3533 N.ar    1  UNL1       -0.2027
     33 C          -5.0553    2.8378   -0.5110 C.ar    1  UNL1        0.1181
     34 C          -5.4836    4.1900   -0.2194 C.ar    1  UNL1        0.0041
     35 C          -6.7880    4.5529   -0.5409 C.ar    1  UNL1       -0.0524
     36 C          -7.1883    5.8330   -0.2571 C.ar    1  UNL1       -0.0611
     37 C          -6.3792    6.7737    0.3236 C.ar    1  UNL1       -0.0617
     38 C          -5.0880    6.3896    0.6337 C.ar    1  UNL1       -0.0611
     39 C          -4.6445    5.1291    0.3711 C.ar    1  UNL1       -0.0524
     40 C          -5.5883    1.7203    0.0769 C.ar    1  UNL1        0.1639
     41 C          -6.6645    1.7299    1.0788 C.ar    1  UNL1        0.0195
     42 C          -6.4122    2.3722    2.2667 C.ar    1  UNL1       -0.0510
     43 C          -7.4194    2.3949    3.2213 C.ar    1  UNL1       -0.0611
     44 C          -8.6398    1.7770    2.9568 C.ar    1  UNL1       -0.0617
     45 C          -8.8636    1.1374    1.7493 C.ar    1  UNL1       -0.0611
     46 C          -7.8692    1.1206    0.8192 C.ar    1  UNL1       -0.0510
     47 O          -4.9852    0.6926   -0.4026 O.2     1  UNL1       -0.4300
     48 O          -1.6466   -1.4336   -0.0515 O.3     1  UNL1       -0.3430
     49 C           1.3010   -1.5452    1.5282 C.ar    1  UNL1       -0.0520
     50 C           2.6372   -1.1407    1.5010 C.ar    1  UNL1       -0.0401
     51 N          10.8731    6.1121    1.2288 N.am    1  UNL1       -0.1975
     52 O          12.2052    6.3541    1.0788 O.3     1  UNL1       -0.2952
     53 H           8.4645    4.8469    0.8037 H       1  UNL1        0.0359
     54 H           8.6333    5.0491    2.5700 H       1  UNL1        0.0359
     55 H           9.2224    2.7574    2.9276 H       1  UNL1        0.0270
     56 H           7.6480    2.9150    2.1192 H       1  UNL1        0.0270
     57 H          10.2719    2.0642    0.7379 H       1  UNL1        0.0265
     58 H           8.9173    1.0577    1.2425 H       1  UNL1        0.0265
     59 H           8.9632    1.5933   -1.1362 H       1  UNL1        0.0265
     60 H           8.7206    3.3312   -0.8272 H       1  UNL1        0.0265
     61 H           6.5805    2.3374   -1.3946 H       1  UNL1        0.0270
     62 H           6.5652    2.8998    0.3239 H       1  UNL1        0.0270
     63 H           7.1896    0.0111   -0.6174 H       1  UNL1        0.0358
     64 H           7.0009    0.5214    1.0677 H       1  UNL1        0.0358
     65 H           5.4696   -1.4837    0.4497 H       1  UNL1        0.1548
     66 H           3.2322   -1.5022   -1.7600 H       1  UNL1        0.0636
     67 H           0.8174   -2.2263   -1.6742 H       1  UNL1        0.0622
     68 H          -1.0613   -2.6215    1.4572 H       1  UNL1        0.0965
     69 H          -1.6793   -4.4327    1.1912 H       1  UNL1        0.0648
     70 H          -2.1551   -4.7098   -2.5132 H       1  UNL1        0.0621
     71 H          -2.6438   -6.9230   -3.6018 H       1  UNL1        0.0621
     72 H          -3.8385   -9.8191   -1.7275 H       1  UNL1        0.0607
     73 H          -3.6553   -9.0954   -3.3372 H       1  UNL1        0.0607
     74 H          -1.7418   -9.9221   -3.5663 H       1  UNL1        0.2098
     75 H          -2.9633   -8.7048    0.2074 H       1  UNL1        0.0621
     76 H          -2.4956   -6.5960    1.2905 H       1  UNL1        0.0621
     77 H          -3.9557   -3.7277   -0.5099 H       1  UNL1        0.0319
     78 H          -3.7143   -3.3439    1.1948 H       1  UNL1        0.0319
     79 H          -3.6130   -1.2233    0.3130 H       1  UNL1        0.0606
     80 H          -2.7691   -2.4071   -2.3547 H       1  UNL1        0.0406
     81 H          -4.4105   -1.9369   -1.8530 H       1  UNL1        0.0406
     82 H          -7.4243    3.8112   -0.9975 H       1  UNL1        0.0624
     83 H          -8.2096    6.1498   -0.4975 H       1  UNL1        0.0618
     84 H          -6.6797    7.7892    0.5542 H       1  UNL1        0.0618
     85 H          -4.3808    7.0861    1.1005 H       1  UNL1        0.0618
     86 H          -3.6314    4.7756    0.5977 H       1  UNL1        0.0624
     87 H          -5.4729    2.8590    2.4960 H       1  UNL1        0.0625
     88 H          -7.2635    2.8901    4.1683 H       1  UNL1        0.0618
     89 H          -9.4351    1.7741    3.6666 H       1  UNL1        0.0618
     90 H          -9.8236    0.6480    1.5351 H       1  UNL1        0.0618
     91 H          -7.9838    0.6354   -0.1490 H       1  UNL1        0.0625
     92 H           0.7302   -1.5642    2.4600 H       1  UNL1        0.0622
     93 H           3.1405   -0.8369    2.4045 H       1  UNL1        0.0636
     94 H          10.1296    6.8332    1.1430 H       1  UNL1        0.1822
     95 H          12.5466    6.1282    0.1847 H       1  UNL1        0.2414
@<TRIPOS>BOND
     1     1     2    2
     2     2     3    1
     3     3     4    1
     4     4     5    1
     5     5     6    1
     6     6     7    1
     7     7     8    1
     8     8     9    1
     9     9    10    2
    10     9    11   am
    11    11    12    1
    12    12    13   ar
    13    13    14   ar
    14    14    15   ar
    15    15    16    1
    16    16    17    1
    17    17    18    1
    18    18    19    1
    19    19    20   ar
    20    20    21   ar
    21    21    22   ar
    22    22    23    1
    23    23    24    1
    24    22    25   ar
    25    25    26   ar
    26    18    27    1
    27    27    28    1
    28    28    29    1
    29    29    30    1
    30    30    31    1
    31    31    32   ar
    32    32    33   ar
    33    33    34    1
    34    34    35   ar
    35    35    36   ar
    36    36    37   ar
    37    37    38   ar
    38    38    39   ar
    39    33    40   ar
    40    40    41    1
    41    41    42   ar
    42    42    43   ar
    43    43    44   ar
    44    44    45   ar
    45    45    46   ar
    46    40    47   ar
    47    28    48    1
    48    15    49   ar
    49    49    50   ar
    50     2    51   am
    51    51    52    1
    52    50    12   ar
    53    48    16    1
    54    26    19   ar
    55    47    31   ar
    56    39    34   ar
    57    46    41   ar
    58     3    53    1
    59     3    54    1
    60     4    55    1
    61     4    56    1
    62     5    57    1
    63     5    58    1
    64     6    59    1
    65     6    60    1
    66     7    61    1
    67     7    62    1
    68     8    63    1
    69     8    64    1
    70    11    65    1
    71    13    66    1
    72    14    67    1
    73    16    68    1
    74    18    69    1
    75    20    70    1
    76    21    71    1
    77    23    72    1
    78    23    73    1
    79    24    74    1
    80    25    75    1
    81    26    76    1
    82    27    77    1
    83    27    78    1
    84    28    79    1
    85    29    80    1
    86    29    81    1
    87    35    82    1
    88    36    83    1
    89    37    84    1
    90    38    85    1
    91    39    86    1
    92    42    87    1
    93    43    88    1
    94    44    89    1
    95    45    90    1
    96    46    91    1
    97    49    92    1
    98    50    93    1
    99    51    94    1
   100    52    95    1
