@<TRIPOS>MOLECULE
*****
 55 57 0 0 0
SMALL
GASTEIGER

@<TRIPOS>ATOM
      1 C          -3.9522    4.8564    1.7004 C.3     1  UNL1        0.0788
      2 O          -2.9487    3.8906    1.7635 O.3     1  UNL1       -0.4951
      3 C          -2.6284    3.1594    0.6200 C.ar    1  UNL1        0.1207
      4 C          -3.2971    3.3874   -0.5652 C.ar    1  UNL1       -0.0199
      5 C          -2.9973    2.6842   -1.6888 C.ar    1  UNL1       -0.0577
      6 C          -1.9905    1.7187   -1.6179 C.ar    1  UNL1       -0.0524
      7 C          -1.3318    1.4963   -0.4416 C.ar    1  UNL1        0.0035
      8 C          -0.2944    0.4897   -0.3161 C.ar    1  UNL1        0.0697
      9 C           0.9369    0.8050    0.2409 C.ar    1  UNL1       -0.0108
     10 C           1.6920   -0.3424    0.2423 C.ar    1  UNL1        0.0892
     11 C           3.0883   -0.4135    0.7647 C.3     1  UNL1        0.0928
     12 O           3.9342   -0.1320   -0.2812 O.3     1  UNL1       -0.3566
     13 C           5.2717   -0.1537    0.0251 C.3     1  UNL1        0.1602
     14 C           5.6639    0.8442    1.0965 C.3     1  UNL1       -0.0256
     15 C           5.7422   -1.5400    0.3410 C.3     1  UNL1       -0.0256
     16 C           6.0076    0.2757   -1.2176 C.2     1  UNL1        0.3365
     17 O           7.2656    0.3442   -1.2138 O.2     1  UNL1       -0.2478
     18 O           5.3528    0.6060   -2.3892 O.3     1  UNL1       -0.4786
     19 N           0.9185   -1.2810   -0.2949 N.ar    1  UNL1       -0.1730
     20 N          -0.2671   -0.8063   -0.6331 N.ar    1  UNL1       -0.2590
     21 C          -1.3099   -1.5789   -1.2054 C.3     1  UNL1        0.0674
     22 C          -2.1878   -2.2176   -0.1825 C.ar    1  UNL1       -0.0232
     23 C          -2.0183   -2.0837    1.1615 C.ar    1  UNL1       -0.0566
     24 C          -2.8762   -2.7086    2.0535 C.ar    1  UNL1       -0.0614
     25 C          -3.9223   -3.4811    1.6110 C.ar    1  UNL1       -0.0615
     26 C          -4.0911   -3.6147    0.2494 C.ar    1  UNL1       -0.0585
     27 C          -3.2273   -2.9855   -0.6452 C.ar    1  UNL1       -0.0455
     28 C          -3.4930   -3.1909   -2.1018 C.3     1  UNL1       -0.0394
     29 C          -1.6297    2.2125    0.7215 C.ar    1  UNL1       -0.0108
     30 H          -3.7579    5.5465    0.8304 H       1  UNL1        0.0660
     31 H          -3.9248    5.4579    2.6518 H       1  UNL1        0.0660
     32 H          -4.9303    4.3582    1.6028 H       1  UNL1        0.0660
     33 H          -4.0879    4.1470   -0.6176 H       1  UNL1        0.0654
     34 H          -3.4946    2.8288   -2.6392 H       1  UNL1        0.0619
     35 H          -1.7660    1.1900   -2.5259 H       1  UNL1        0.0624
     36 H           1.2604    1.7656    0.6098 H       1  UNL1        0.0658
     37 H           3.2757   -1.3814    1.2602 H       1  UNL1        0.0626
     38 H           3.2378    0.3736    1.5450 H       1  UNL1        0.0626
     39 H           5.1879    0.6640    2.0629 H       1  UNL1        0.0263
     40 H           6.7846    0.7566    1.1914 H       1  UNL1        0.0263
     41 H           5.4913    1.8795    0.7393 H       1  UNL1        0.0263
     42 H           5.2126   -2.0156    1.1732 H       1  UNL1        0.0263
     43 H           5.5650   -2.1677   -0.5566 H       1  UNL1        0.0263
     44 H           6.8351   -1.4990    0.5724 H       1  UNL1        0.0263
     45 H           5.7531    1.1899   -3.1099 H       1  UNL1        0.2951
     46 H          -1.9838   -1.0048   -1.8590 H       1  UNL1        0.0559
     47 H          -0.8381   -2.3674   -1.8481 H       1  UNL1        0.0559
     48 H          -1.2174   -1.4920    1.5347 H       1  UNL1        0.0621
     49 H          -2.7437   -2.6038    3.1323 H       1  UNL1        0.0618
     50 H          -4.5764   -3.9573    2.3331 H       1  UNL1        0.0618
     51 H          -4.9142   -4.2226   -0.0997 H       1  UNL1        0.0620
     52 H          -2.6500   -2.8426   -2.7193 H       1  UNL1        0.0278
     53 H          -3.6330   -4.2720   -2.3378 H       1  UNL1        0.0278
     54 H          -4.3964   -2.5949   -2.3592 H       1  UNL1        0.0278
     55 H          -1.1001    2.0231    1.6361 H       1  UNL1        0.0661
@<TRIPOS>BOND
     1     1     2    1
     2     2     3    1
     3     3     4   ar
     4     4     5   ar
     5     5     6   ar
     6     6     7   ar
     7     7     8    1
     8     8     9   ar
     9     9    10   ar
    10    10    11    1
    11    11    12    1
    12    12    13    1
    13    13    14    1
    14    13    15    1
    15    13    16    1
    16    16    17    2
    17    16    18    1
    18    10    19   ar
    19    19    20   ar
    20    20    21    1
    21    21    22    1
    22    22    23   ar
    23    23    24   ar
    24    24    25   ar
    25    25    26   ar
    26    26    27   ar
    27    27    28    1
    28     7    29   ar
    29    29     3   ar
    30    20     8   ar
    31    27    22   ar
    32     1    30    1
    33     1    31    1
    34     1    32    1
    35     4    33    1
    36     5    34    1
    37     6    35    1
    38     9    36    1
    39    11    37    1
    40    11    38    1
    41    14    39    1
    42    14    40    1
    43    14    41    1
    44    15    42    1
    45    15    43    1
    46    15    44    1
    47    18    45    1
    48    21    46    1
    49    21    47    1
    50    23    48    1
    51    24    49    1
    52    25    50    1
    53    26    51    1
    54    28    52    1
    55    28    53    1
    56    28    54    1
    57    29    55    1
