
     RDKit          3D

 55 57  0  0  0  0  0  0  0  0999 V2000
   -3.9522    4.8564    1.7004 C   0  0  0  0  0  0  0  0  0  0  0  0
   -2.9487    3.8906    1.7635 O   0  0  0  0  0  0  0  0  0  0  0  0
   -2.6284    3.1594    0.6200 C   0  0  0  0  0  0  0  0  0  0  0  0
   -3.2971    3.3874   -0.5652 C   0  0  0  0  0  0  0  0  0  0  0  0
   -2.9973    2.6842   -1.6888 C   0  0  0  0  0  0  0  0  0  0  0  0
   -1.9905    1.7187   -1.6179 C   0  0  0  0  0  0  0  0  0  0  0  0
   -1.3318    1.4963   -0.4416 C   0  0  0  0  0  0  0  0  0  0  0  0
   -0.2944    0.4897   -0.3161 C   0  0  0  0  0  0  0  0  0  0  0  0
    0.9369    0.8050    0.2409 C   0  0  0  0  0  0  0  0  0  0  0  0
    1.6920   -0.3424    0.2423 C   0  0  0  0  0  0  0  0  0  0  0  0
    3.0883   -0.4135    0.7647 C   0  0  0  0  0  0  0  0  0  0  0  0
    3.9342   -0.1320   -0.2812 O   0  0  0  0  0  0  0  0  0  0  0  0
    5.2717   -0.1537    0.0251 C   0  0  0  0  0  0  0  0  0  0  0  0
    5.6639    0.8442    1.0965 C   0  0  0  0  0  0  0  0  0  0  0  0
    5.7422   -1.5400    0.3410 C   0  0  0  0  0  0  0  0  0  0  0  0
    6.0076    0.2757   -1.2176 C   0  0  0  0  0  0  0  0  0  0  0  0
    7.2656    0.3442   -1.2138 O   0  0  0  0  0  0  0  0  0  0  0  0
    5.3528    0.6060   -2.3892 O   0  0  0  0  0  0  0  0  0  0  0  0
    0.9185   -1.2810   -0.2949 N   0  0  0  0  0  0  0  0  0  0  0  0
   -0.2671   -0.8063   -0.6331 N   0  0  0  0  0  0  0  0  0  0  0  0
   -1.3099   -1.5789   -1.2054 C   0  0  0  0  0  0  0  0  0  0  0  0
   -2.1878   -2.2176   -0.1825 C   0  0  0  0  0  0  0  0  0  0  0  0
   -2.0183   -2.0837    1.1615 C   0  0  0  0  0  0  0  0  0  0  0  0
   -2.8762   -2.7086    2.0535 C   0  0  0  0  0  0  0  0  0  0  0  0
   -3.9223   -3.4811    1.6110 C   0  0  0  0  0  0  0  0  0  0  0  0
   -4.0911   -3.6147    0.2494 C   0  0  0  0  0  0  0  0  0  0  0  0
   -3.2273   -2.9855   -0.6452 C   0  0  0  0  0  0  0  0  0  0  0  0
   -3.4930   -3.1909   -2.1018 C   0  0  0  0  0  0  0  0  0  0  0  0
   -1.6297    2.2125    0.7215 C   0  0  0  0  0  0  0  0  0  0  0  0
   -3.7579    5.5465    0.8304 H   0  0  0  0  0  0  0  0  0  0  0  0
   -3.9248    5.4579    2.6518 H   0  0  0  0  0  0  0  0  0  0  0  0
   -4.9303    4.3582    1.6028 H   0  0  0  0  0  0  0  0  0  0  0  0
   -4.0879    4.1470   -0.6176 H   0  0  0  0  0  0  0  0  0  0  0  0
   -3.4946    2.8288   -2.6392 H   0  0  0  0  0  0  0  0  0  0  0  0
   -1.7660    1.1900   -2.5259 H   0  0  0  0  0  0  0  0  0  0  0  0
    1.2604    1.7656    0.6098 H   0  0  0  0  0  0  0  0  0  0  0  0
    3.2757   -1.3814    1.2602 H   0  0  0  0  0  0  0  0  0  0  0  0
    3.2378    0.3736    1.5450 H   0  0  0  0  0  0  0  0  0  0  0  0
    5.1879    0.6640    2.0629 H   0  0  0  0  0  0  0  0  0  0  0  0
    6.7846    0.7566    1.1914 H   0  0  0  0  0  0  0  0  0  0  0  0
    5.4913    1.8795    0.7393 H   0  0  0  0  0  0  0  0  0  0  0  0
    5.2126   -2.0156    1.1732 H   0  0  0  0  0  0  0  0  0  0  0  0
    5.5650   -2.1677   -0.5566 H   0  0  0  0  0  0  0  0  0  0  0  0
    6.8351   -1.4990    0.5724 H   0  0  0  0  0  0  0  0  0  0  0  0
    5.7531    1.1899   -3.1099 H   0  0  0  0  0  0  0  0  0  0  0  0
   -1.9838   -1.0048   -1.8590 H   0  0  0  0  0  0  0  0  0  0  0  0
   -0.8381   -2.3674   -1.8481 H   0  0  0  0  0  0  0  0  0  0  0  0
   -1.2174   -1.4920    1.5347 H   0  0  0  0  0  0  0  0  0  0  0  0
   -2.7437   -2.6038    3.1323 H   0  0  0  0  0  0  0  0  0  0  0  0
   -4.5764   -3.9573    2.3331 H   0  0  0  0  0  0  0  0  0  0  0  0
   -4.9142   -4.2226   -0.0997 H   0  0  0  0  0  0  0  0  0  0  0  0
   -2.6500   -2.8426   -2.7193 H   0  0  0  0  0  0  0  0  0  0  0  0
   -3.6330   -4.2720   -2.3378 H   0  0  0  0  0  0  0  0  0  0  0  0
   -4.3964   -2.5949   -2.3592 H   0  0  0  0  0  0  0  0  0  0  0  0
   -1.1001    2.0231    1.6361 H   0  0  0  0  0  0  0  0  0  0  0  0
  1  2  1  0
  2  3  1  0
  3  4  2  0
  4  5  1  0
  5  6  2  0
  6  7  1  0
  7  8  1  0
  8  9  2  0
  9 10  1  0
 10 11  1  0
 11 12  1  0
 12 13  1  0
 13 14  1  0
 13 15  1  0
 13 16  1  0
 16 17  2  0
 16 18  1  0
 10 19  2  0
 19 20  1  0
 20 21  1  0
 21 22  1  0
 22 23  2  0
 23 24  1  0
 24 25  2  0
 25 26  1  0
 26 27  2  0
 27 28  1  0
  7 29  2  0
 29  3  1  0
 20  8  1  0
 27 22  1  0
  1 30  1  0
  1 31  1  0
  1 32  1  0
  4 33  1  0
  5 34  1  0
  6 35  1  0
  9 36  1  0
 11 37  1  0
 11 38  1  0
 14 39  1  0
 14 40  1  0
 14 41  1  0
 15 42  1  0
 15 43  1  0
 15 44  1  0
 18 45  1  0
 21 46  1  0
 21 47  1  0
 23 48  1  0
 24 49  1  0
 25 50  1  0
 26 51  1  0
 28 52  1  0
 28 53  1  0
 28 54  1  0
 29 55  1  0
M  END
$$$$
