
     RDKit          3D

 45 46  0  0  0  0  0  0  0  0999 V2000
   -3.5187    2.5881    0.8910 O   0  0  0  0  0  0  0  0  0  0  0  0
   -2.3542    2.1681    0.2434 C   0  0  0  0  0  0  0  0  0  0  0  0
   -2.7899    1.2166   -0.8495 C   0  0  1  0  0  0  0  0  0  0  0  0
   -1.7594    0.7094   -1.5860 O   0  0  0  0  0  0  0  0  0  0  0  0
   -0.9982   -0.2721   -0.9716 C   0  0  1  0  0  0  0  0  0  0  0  0
   -0.1402    0.2204   -0.0287 O   0  0  0  0  0  0  0  0  0  0  0  0
    1.1929    0.0819   -0.1980 C   0  0  1  0  0  0  0  0  0  0  0  0
    1.9734    1.3519   -0.3758 C   0  0  2  0  0  0  0  0  0  0  0  0
    1.8908    1.7962   -1.6958 O   0  0  0  0  0  0  0  0  0  0  0  0
    3.4287    1.1941    0.0191 C   0  0  1  0  0  0  0  0  0  0  0  0
    3.6577    1.6600    1.3267 O   0  0  0  0  0  0  0  0  0  0  0  0
    3.9454   -0.1860   -0.1961 C   0  0  0  0  0  0  0  0  0  0  0  0
    5.1358   -0.2921    0.5271 O   0  0  0  0  0  0  0  0  0  0  0  0
    3.1084   -1.1887    0.1915 O   0  0  0  0  0  0  0  0  0  0  0  0
    1.9232   -0.7501    0.8235 C   0  0  2  0  0  0  0  0  0  0  0  0
    1.1770   -2.0317    1.1315 C   0  0  0  0  0  0  0  0  0  0  0  0
    2.0031   -2.8044    1.9788 O   0  0  0  0  0  0  0  0  0  0  0  0
   -1.8450   -1.3359   -0.3150 C   0  0  2  0  0  0  0  0  0  0  0  0
   -1.5077   -2.6280   -0.6087 O   0  0  0  0  0  0  0  0  0  0  0  0
   -3.2658   -1.1455   -0.8643 C   0  0  1  0  0  0  0  0  0  0  0  0
   -4.0778   -2.1866   -0.4638 O   0  0  0  0  0  0  0  0  0  0  0  0
   -3.7011    0.1809   -0.2442 C   0  0  1  0  0  0  0  0  0  0  0  0
   -3.3748    0.0611    1.1187 O   0  0  0  0  0  0  0  0  0  0  0  0
   -3.5772    2.2904    1.8123 H   0  0  0  0  0  0  0  0  0  0  0  0
   -1.8758    3.0737   -0.1588 H   0  0  0  0  0  0  0  0  0  0  0  0
   -1.7404    1.6592    1.0156 H   0  0  0  0  0  0  0  0  0  0  0  0
   -3.4174    1.8156   -1.5451 H   0  0  0  0  0  0  0  0  0  0  0  0
   -0.4700   -0.7613   -1.8208 H   0  0  0  0  0  0  0  0  0  0  0  0
    1.3171   -0.4613   -1.1694 H   0  0  0  0  0  0  0  0  0  0  0  0
    1.6164    2.1852    0.2527 H   0  0  0  0  0  0  0  0  0  0  0  0
    2.7847    1.8521   -2.1038 H   0  0  0  0  0  0  0  0  0  0  0  0
    4.0205    1.8841   -0.6452 H   0  0  0  0  0  0  0  0  0  0  0  0
    4.6017    1.9402    1.3776 H   0  0  0  0  0  0  0  0  0  0  0  0
    4.2593   -0.2803   -1.2759 H   0  0  0  0  0  0  0  0  0  0  0  0
    4.9614   -0.1111    1.4951 H   0  0  0  0  0  0  0  0  0  0  0  0
    2.1874   -0.1781    1.7324 H   0  0  0  0  0  0  0  0  0  0  0  0
    0.2270   -1.8596    1.6435 H   0  0  0  0  0  0  0  0  0  0  0  0
    1.1223   -2.6040    0.1899 H   0  0  0  0  0  0  0  0  0  0  0  0
    2.9487   -2.6257    1.8397 H   0  0  0  0  0  0  0  0  0  0  0  0
   -1.9106   -1.1899    0.7839 H   0  0  0  0  0  0  0  0  0  0  0  0
   -0.7907   -2.7466   -1.2534 H   0  0  0  0  0  0  0  0  0  0  0  0
   -3.2719   -0.9972   -1.9584 H   0  0  0  0  0  0  0  0  0  0  0  0
   -4.4910   -2.6950   -1.2049 H   0  0  0  0  0  0  0  0  0  0  0  0
   -4.7633    0.3681   -0.3943 H   0  0  0  0  0  0  0  0  0  0  0  0
   -3.8419   -0.7058    1.5336 H   0  0  0  0  0  0  0  0  0  0  0  0
  1  2  1  0
  2  3  1  0
  3  4  1  0
  4  5  1  0
  5  6  1  0
  6  7  1  0
  7  8  1  0
  8  9  1  0
  8 10  1  0
 10 11  1  0
 10 12  1  0
 12 13  1  0
 12 14  1  0
 14 15  1  0
 15 16  1  0
 16 17  1  0
  5 18  1  0
 18 19  1  0
 18 20  1  0
 20 21  1  0
 20 22  1  0
 22 23  1  0
 22  3  1  0
 15  7  1  0
  1 24  1  0
  2 25  1  0
  2 26  1  0
  3 27  1  6
  5 28  1  6
  7 29  1  6
  8 30  1  1
  9 31  1  0
 10 32  1  6
 11 33  1  0
 12 34  1  0
 13 35  1  0
 15 36  1  1
 16 37  1  0
 16 38  1  0
 17 39  1  0
 18 40  1  1
 19 41  1  0
 20 42  1  6
 21 43  1  0
 22 44  1  1
 23 45  1  0
M  END
$$$$
