@<TRIPOS>MOLECULE
*****
 32 32 0 0 0
SMALL
GASTEIGER

@<TRIPOS>ATOM
      1 C           3.8459   -2.3525    0.9096 C.3     1  UNL1        0.0788
      2 O           2.4734   -2.1352    1.1919 O.3     1  UNL1       -0.4951
      3 C           1.8383   -1.0438    0.6225 C.ar    1  UNL1        0.1207
      4 C           0.5091   -0.7916    0.8665 C.ar    1  UNL1       -0.0108
      5 C          -0.2418    0.2447    0.3727 C.ar    1  UNL1        0.0274
      6 C          -1.6426    0.5061    0.6329 C.3     1  UNL1        0.0985
      7 O          -2.0171    0.1525    1.9288 O.3     1  UNL1       -0.3855
      8 C          -2.6287   -0.1148   -0.2977 C.3     1  UNL1        0.0326
      9 C          -2.8313   -1.5877   -0.0062 C.3     1  UNL1       -0.0472
     10 N          -2.3807    0.1582   -1.6996 N.3     1  UNL1       -0.3251
     11 C           0.4720    1.1099   -0.4652 C.ar    1  UNL1        0.1260
     12 O          -0.2025    2.1945   -1.0172 O.3     1  UNL1       -0.4947
     13 C           0.3989    3.1267   -1.8668 C.3     1  UNL1        0.0788
     14 C           1.8093    0.9475   -0.7750 C.ar    1  UNL1       -0.0161
     15 C           2.4673   -0.1318   -0.2215 C.ar    1  UNL1       -0.0165
     16 H           4.1443   -3.3994    1.1496 H       1  UNL1        0.0660
     17 H           4.4543   -1.6921    1.5687 H       1  UNL1        0.0660
     18 H           4.1112   -2.2095   -0.1497 H       1  UNL1        0.0660
     19 H           0.0071   -1.4980    1.5249 H       1  UNL1        0.0659
     20 H          -1.8121    1.6205    0.5649 H       1  UNL1        0.0660
     21 H          -2.4058    0.8878    2.4493 H       1  UNL1        0.2103
     22 H          -3.6067    0.3716   -0.0884 H       1  UNL1        0.0484
     23 H          -3.3791   -2.0114   -0.8984 H       1  UNL1        0.0246
     24 H          -1.8776   -2.1250    0.1780 H       1  UNL1        0.0246
     25 H          -3.4693   -1.6456    0.9111 H       1  UNL1        0.0246
     26 H          -2.2004   -0.7709   -2.1431 H       1  UNL1        0.1185
     27 H          -3.1627    0.5920   -2.2045 H       1  UNL1        0.1185
     28 H           0.4921    2.7212   -2.9016 H       1  UNL1        0.0660
     29 H           1.3385    3.5097   -1.4708 H       1  UNL1        0.0660
     30 H          -0.3191    3.9953   -1.9234 H       1  UNL1        0.0660
     31 H           2.3026    1.6529   -1.4299 H       1  UNL1        0.0655
     32 H           3.5131   -0.2819   -0.4475 H       1  UNL1        0.0655
@<TRIPOS>BOND
     1     1     2    1
     2     2     3    1
     3     3     4   ar
     4     4     5   ar
     5     5     6    1
     6     6     7    1
     7     6     8    1
     8     8     9    1
     9     8    10    1
    10     5    11   ar
    11    11    12    1
    12    12    13    1
    13    11    14   ar
    14    14    15   ar
    15    15     3   ar
    16     1    16    1
    17     1    17    1
    18     1    18    1
    19     4    19    1
    20     6    20    1
    21     7    21    1
    22     8    22    1
    23     9    23    1
    24     9    24    1
    25     9    25    1
    26    10    26    1
    27    10    27    1
    28    13    28    1
    29    13    29    1
    30    13    30    1
    31    14    31    1
    32    15    32    1
