
     RDKit          3D

 32 32  0  0  0  0  0  0  0  0999 V2000
    3.8459   -2.3525    0.9096 C   0  0  0  0  0  0  0  0  0  0  0  0
    2.4734   -2.1352    1.1919 O   0  0  0  0  0  0  0  0  0  0  0  0
    1.8383   -1.0438    0.6225 C   0  0  0  0  0  0  0  0  0  0  0  0
    0.5091   -0.7916    0.8665 C   0  0  0  0  0  0  0  0  0  0  0  0
   -0.2418    0.2447    0.3727 C   0  0  0  0  0  0  0  0  0  0  0  0
   -1.6426    0.5061    0.6329 C   0  0  0  0  0  0  0  0  0  0  0  0
   -2.0171    0.1525    1.9288 O   0  0  0  0  0  0  0  0  0  0  0  0
   -2.6287   -0.1148   -0.2977 C   0  0  0  0  0  0  0  0  0  0  0  0
   -2.8313   -1.5877   -0.0062 C   0  0  0  0  0  0  0  0  0  0  0  0
   -2.3807    0.1582   -1.6996 N   0  0  0  0  0  0  0  0  0  0  0  0
    0.4720    1.1099   -0.4652 C   0  0  0  0  0  0  0  0  0  0  0  0
   -0.2025    2.1945   -1.0172 O   0  0  0  0  0  0  0  0  0  0  0  0
    0.3989    3.1267   -1.8668 C   0  0  0  0  0  0  0  0  0  0  0  0
    1.8093    0.9475   -0.7750 C   0  0  0  0  0  0  0  0  0  0  0  0
    2.4673   -0.1318   -0.2215 C   0  0  0  0  0  0  0  0  0  0  0  0
    4.1443   -3.3994    1.1496 H   0  0  0  0  0  0  0  0  0  0  0  0
    4.4543   -1.6921    1.5687 H   0  0  0  0  0  0  0  0  0  0  0  0
    4.1112   -2.2095   -0.1497 H   0  0  0  0  0  0  0  0  0  0  0  0
    0.0071   -1.4980    1.5249 H   0  0  0  0  0  0  0  0  0  0  0  0
   -1.8121    1.6205    0.5649 H   0  0  0  0  0  0  0  0  0  0  0  0
   -2.4058    0.8878    2.4493 H   0  0  0  0  0  0  0  0  0  0  0  0
   -3.6067    0.3716   -0.0884 H   0  0  0  0  0  0  0  0  0  0  0  0
   -3.3791   -2.0114   -0.8984 H   0  0  0  0  0  0  0  0  0  0  0  0
   -1.8776   -2.1250    0.1780 H   0  0  0  0  0  0  0  0  0  0  0  0
   -3.4693   -1.6456    0.9111 H   0  0  0  0  0  0  0  0  0  0  0  0
   -2.2004   -0.7709   -2.1431 H   0  0  0  0  0  0  0  0  0  0  0  0
   -3.1627    0.5920   -2.2045 H   0  0  0  0  0  0  0  0  0  0  0  0
    0.4921    2.7212   -2.9016 H   0  0  0  0  0  0  0  0  0  0  0  0
    1.3385    3.5097   -1.4708 H   0  0  0  0  0  0  0  0  0  0  0  0
   -0.3191    3.9953   -1.9234 H   0  0  0  0  0  0  0  0  0  0  0  0
    2.3026    1.6529   -1.4299 H   0  0  0  0  0  0  0  0  0  0  0  0
    3.5131   -0.2819   -0.4475 H   0  0  0  0  0  0  0  0  0  0  0  0
  1  2  1  0
  2  3  1  0
  3  4  2  0
  4  5  1  0
  5  6  1  0
  6  7  1  0
  6  8  1  0
  8  9  1  0
  8 10  1  0
  5 11  2  0
 11 12  1  0
 12 13  1  0
 11 14  1  0
 14 15  2  0
 15  3  1  0
  1 16  1  0
  1 17  1  0
  1 18  1  0
  4 19  1  0
  6 20  1  0
  7 21  1  0
  8 22  1  0
  9 23  1  0
  9 24  1  0
  9 25  1  0
 10 26  1  0
 10 27  1  0
 13 28  1  0
 13 29  1  0
 13 30  1  0
 14 31  1  0
 15 32  1  0
M  END
$$$$
