
     RDKit          3D

 55 58  0  0  0  0  0  0  0  0999 V2000
    4.8943    2.7658   -0.7681 C   0  0  0  0  0  0  0  0  0  0  0  0
    4.1083    1.9257    0.0247 O   0  0  0  0  0  0  0  0  0  0  0  0
    4.3105    0.5576    0.1112 C   0  0  0  0  0  0  0  0  0  0  0  0
    5.3586    0.0139   -0.6399 C   0  0  0  0  0  0  0  0  0  0  0  0
    5.5956   -1.3318   -0.5841 C   0  0  0  0  0  0  0  0  0  0  0  0
    6.6977   -1.9620   -1.3636 C   0  0  0  0  0  0  0  0  0  0  0  0
    4.8018   -2.0756    0.1984 N   0  0  0  0  0  0  0  0  0  0  0  0
    3.7875   -1.5641    0.9284 C   0  0  0  0  0  0  0  0  0  0  0  0
    3.0874   -2.3155    1.6394 O   0  0  0  0  0  0  0  0  0  0  0  0
    3.4923   -0.1939    0.9142 C   0  0  0  0  0  0  0  0  0  0  0  0
    2.3888    0.3287    1.7297 C   0  0  0  0  0  0  0  0  0  0  0  0
    1.2037    0.7161    1.0211 N   0  0  0  0  0  0  0  0  0  0  0  0
    0.9805    2.0869    0.5532 C   0  0  0  0  0  0  0  0  0  0  0  0
   -0.3026    2.5753    1.1734 C   0  0  0  0  0  0  0  0  0  0  0  0
   -1.4170    1.6583    0.8588 C   0  0  0  0  0  0  0  0  0  0  0  0
   -2.7251    2.1537    0.7701 C   0  0  0  0  0  0  0  0  0  0  0  0
   -3.0136    3.8601    1.0211 Cl  0  0  0  0  0  0  0  0  0  0  0  0
   -3.7732    1.3035    0.4880 C   0  0  0  0  0  0  0  0  0  0  0  0
   -3.5755   -0.0419    0.2863 C   0  0  0  0  0  0  0  0  0  0  0  0
   -4.7063   -0.9090   -0.0131 C   0  0  2  0  0  0  0  0  0  0  0  0
   -4.5405   -2.2086    0.4818 O   0  0  0  0  0  0  0  0  0  0  0  0
   -5.4989   -2.5170    1.4567 C   0  0  0  0  0  0  0  0  0  0  0  0
   -5.1052   -1.0182   -1.4317 C   0  0  0  0  0  0  0  0  0  0  0  0
   -4.1356   -1.5282   -2.4385 C   0  0  0  0  0  0  0  0  0  0  0  0
   -4.8304   -0.7339   -3.3860 O   0  0  0  0  0  0  0  0  0  0  0  0
   -4.9848    0.1848   -2.3177 C   0  0  0  0  0  0  0  0  0  0  0  0
   -2.2942   -0.5415    0.3706 C   0  0  0  0  0  0  0  0  0  0  0  0
   -1.9355   -2.2402    0.1365 Cl  0  0  0  0  0  0  0  0  0  0  0  0
   -1.2292    0.3110    0.6552 C   0  0  0  0  0  0  0  0  0  0  0  0
    0.1330   -0.1976    0.7370 C   0  0  0  0  0  0  0  0  0  0  0  0
    0.4039   -1.4138    0.5666 O   0  0  0  0  0  0  0  0  0  0  0  0
    5.1152    2.3880   -1.7711 H   0  0  0  0  0  0  0  0  0  0  0  0
    4.3174    3.7180   -0.9148 H   0  0  0  0  0  0  0  0  0  0  0  0
    5.8437    3.0877   -0.2741 H   0  0  0  0  0  0  0  0  0  0  0  0
    5.9924    0.6178   -1.2660 H   0  0  0  0  0  0  0  0  0  0  0  0
    6.3237   -2.9301   -1.7618 H   0  0  0  0  0  0  0  0  0  0  0  0
    7.5772   -2.0890   -0.7196 H   0  0  0  0  0  0  0  0  0  0  0  0
    6.9148   -1.3047   -2.2139 H   0  0  0  0  0  0  0  0  0  0  0  0
    4.9733   -3.1126    0.2506 H   0  0  0  0  0  0  0  0  0  0  0  0
    2.7451    1.2300    2.3170 H   0  0  0  0  0  0  0  0  0  0  0  0
    2.1649   -0.4166    2.5421 H   0  0  0  0  0  0  0  0  0  0  0  0
    1.7663    2.7838    0.9293 H   0  0  0  0  0  0  0  0  0  0  0  0
    0.8921    2.0867   -0.5336 H   0  0  0  0  0  0  0  0  0  0  0  0
   -0.5595    3.5833    0.7749 H   0  0  0  0  0  0  0  0  0  0  0  0
   -0.1736    2.6841    2.2786 H   0  0  0  0  0  0  0  0  0  0  0  0
   -4.7740    1.7576    0.4327 H   0  0  0  0  0  0  0  0  0  0  0  0
   -5.5958   -0.4858    0.5428 H   0  0  0  0  0  0  0  0  0  0  0  0
   -5.3745   -3.5276    1.8457 H   0  0  0  0  0  0  0  0  0  0  0  0
   -5.4086   -1.7277    2.2328 H   0  0  0  0  0  0  0  0  0  0  0  0
   -6.4877   -2.3776    0.9705 H   0  0  0  0  0  0  0  0  0  0  0  0
   -6.1140   -1.4617   -1.5246 H   0  0  0  0  0  0  0  0  0  0  0  0
   -4.2102   -2.5742   -2.7353 H   0  0  0  0  0  0  0  0  0  0  0  0
   -3.1195   -1.0920   -2.3524 H   0  0  0  0  0  0  0  0  0  0  0  0
   -4.0626    0.7685   -2.2380 H   0  0  0  0  0  0  0  0  0  0  0  0
   -5.9225    0.7455   -2.3409 H   0  0  0  0  0  0  0  0  0  0  0  0
  1  2  1  0
  2  3  1  0
  3  4  1  0
  4  5  2  0
  5  6  1  0
  5  7  1  0
  7  8  1  0
  8  9  2  0
  8 10  1  0
 10 11  1  0
 11 12  1  0
 12 13  1  0
 13 14  1  0
 14 15  1  0
 15 16  2  0
 16 17  1  0
 16 18  1  0
 18 19  2  0
 19 20  1  0
 20 21  1  0
 21 22  1  0
 20 23  1  0
 23 24  1  0
 24 25  1  0
 25 26  1  0
 19 27  1  0
 27 28  1  0
 27 29  2  0
 29 30  1  0
 30 31  2  0
 10  3  2  0
 30 12  1  0
 29 15  1  0
 26 23  1  0
  1 32  1  0
  1 33  1  0
  1 34  1  0
  4 35  1  0
  6 36  1  0
  6 37  1  0
  6 38  1  0
  7 39  1  0
 11 40  1  0
 11 41  1  0
 13 42  1  0
 13 43  1  0
 14 44  1  0
 14 45  1  0
 18 46  1  0
 20 47  1  1
 22 48  1  0
 22 49  1  0
 22 50  1  0
 23 51  1  0
 24 52  1  0
 24 53  1  0
 26 54  1  0
 26 55  1  0
M  END
$$$$
