@<TRIPOS>MOLECULE
*****
 55 58 0 0 0
SMALL
GASTEIGER

@<TRIPOS>ATOM
      1 C           4.8943    2.7658   -0.7681 C.3     1  UNL1        0.0788
      2 O           4.1083    1.9257    0.0247 O.3     1  UNL1       -0.4946
      3 C           4.3105    0.5576    0.1112 C.ar    1  UNL1        0.1316
      4 C           5.3586    0.0139   -0.6399 C.ar    1  UNL1       -0.0005
      5 C           5.5956   -1.3318   -0.5841 C.ar    1  UNL1        0.0195
      6 C           6.6977   -1.9620   -1.3636 C.3     1  UNL1       -0.0242
      7 N           4.8018   -2.0756    0.1984 N.ar    1  UNL1       -0.3260
      8 C           3.7875   -1.5641    0.9284 C.ar    1  UNL1        0.2571
      9 O           3.0874   -2.3155    1.6394 O.2     1  UNL1       -0.2674
     10 C           3.4923   -0.1939    0.9142 C.ar    1  UNL1        0.0756
     11 C           2.3888    0.3287    1.7297 C.3     1  UNL1        0.0487
     12 N           1.2037    0.7161    1.0211 N.am    1  UNL1       -0.2925
     13 C           0.9805    2.0869    0.5532 C.3     1  UNL1        0.0194
     14 C          -0.3026    2.5753    1.1734 C.3     1  UNL1       -0.0097
     15 C          -1.4170    1.6583    0.8588 C.ar    1  UNL1       -0.0141
     16 C          -2.7251    2.1537    0.7701 C.ar    1  UNL1        0.0453
     17 CL         -3.0136    3.8601    1.0211 Cl      1  UNL1       -0.0832
     18 C          -3.7732    1.3035    0.4880 C.ar    1  UNL1       -0.0360
     19 C          -3.5755   -0.0419    0.2863 C.ar    1  UNL1        0.0020
     20 C          -4.7063   -0.9090   -0.0131 C.3     1  UNL1        0.0917
     21 O          -4.5405   -2.2086    0.4818 O.3     1  UNL1       -0.3747
     22 C          -5.4989   -2.5170    1.4567 C.3     1  UNL1        0.0372
     23 C          -5.1052   -1.0182   -1.4317 C.3     1  UNL1        0.0362
     24 C          -4.1356   -1.5282   -2.4385 C.3     1  UNL1        0.0553
     25 O          -4.8304   -0.7339   -3.3860 O.3     1  UNL1       -0.3789
     26 C          -4.9848    0.1848   -2.3177 C.3     1  UNL1        0.0553
     27 C          -2.2942   -0.5415    0.3706 C.ar    1  UNL1        0.0590
     28 CL         -1.9355   -2.2402    0.1365 Cl      1  UNL1       -0.0824
     29 C          -1.2292    0.3110    0.6552 C.ar    1  UNL1        0.0601
     30 C           0.1330   -0.1976    0.7370 C.2     1  UNL1        0.2486
     31 O           0.4039   -1.4138    0.5666 O.2     1  UNL1       -0.2699
     32 H           5.1152    2.3880   -1.7711 H       1  UNL1        0.0660
     33 H           4.3174    3.7180   -0.9148 H       1  UNL1        0.0660
     34 H           5.8437    3.0877   -0.2741 H       1  UNL1        0.0660
     35 H           5.9924    0.6178   -1.2660 H       1  UNL1        0.0671
     36 H           6.3237   -2.9301   -1.7618 H       1  UNL1        0.0292
     37 H           7.5772   -2.0890   -0.7196 H       1  UNL1        0.0292
     38 H           6.9148   -1.3047   -2.2139 H       1  UNL1        0.0292
     39 H           4.9733   -3.1126    0.2506 H       1  UNL1        0.1686
     40 H           2.7451    1.2300    2.3170 H       1  UNL1        0.0517
     41 H           2.1649   -0.4166    2.5421 H       1  UNL1        0.0517
     42 H           1.7663    2.7838    0.9293 H       1  UNL1        0.0468
     43 H           0.8921    2.0867   -0.5336 H       1  UNL1        0.0468
     44 H          -0.5595    3.5833    0.7749 H       1  UNL1        0.0329
     45 H          -0.1736    2.6841    2.2786 H       1  UNL1        0.0329
     46 H          -4.7740    1.7576    0.4327 H       1  UNL1        0.0636
     47 H          -5.5958   -0.4858    0.5428 H       1  UNL1        0.0651
     48 H          -5.3745   -3.5276    1.8457 H       1  UNL1        0.0524
     49 H          -5.4086   -1.7277    2.2328 H       1  UNL1        0.0524
     50 H          -6.4877   -2.3776    0.9705 H       1  UNL1        0.0524
     51 H          -6.1140   -1.4617   -1.5246 H       1  UNL1        0.0374
     52 H          -4.2102   -2.5742   -2.7353 H       1  UNL1        0.0564
     53 H          -3.1195   -1.0920   -2.3524 H       1  UNL1        0.0564
     54 H          -4.0626    0.7685   -2.2380 H       1  UNL1        0.0564
     55 H          -5.9225    0.7455   -2.3409 H       1  UNL1        0.0564
@<TRIPOS>BOND
     1     1     2    1
     2     2     3    1
     3     3     4   ar
     4     4     5   ar
     5     5     6    1
     6     5     7   ar
     7     7     8   ar
     8     8     9    2
     9     8    10   ar
    10    10    11    1
    11    11    12    1
    12    12    13    1
    13    13    14    1
    14    14    15    1
    15    15    16   ar
    16    16    17    1
    17    16    18   ar
    18    18    19   ar
    19    19    20    1
    20    20    21    1
    21    21    22    1
    22    20    23    1
    23    23    24    1
    24    24    25    1
    25    25    26    1
    26    19    27   ar
    27    27    28    1
    28    27    29   ar
    29    29    30    1
    30    30    31    2
    31    10     3   ar
    32    30    12   am
    33    29    15   ar
    34    26    23    1
    35     1    32    1
    36     1    33    1
    37     1    34    1
    38     4    35    1
    39     6    36    1
    40     6    37    1
    41     6    38    1
    42     7    39    1
    43    11    40    1
    44    11    41    1
    45    13    42    1
    46    13    43    1
    47    14    44    1
    48    14    45    1
    49    18    46    1
    50    20    47    1
    51    22    48    1
    52    22    49    1
    53    22    50    1
    54    23    51    1
    55    24    52    1
    56    24    53    1
    57    26    54    1
    58    26    55    1
