
     RDKit          3D

 78 81  0  0  0  0  0  0  0  0999 V2000
    2.6233    4.2017   -1.2750 C   0  0  0  0  0  0  0  0  0  0  0  0
    1.1989    3.9269   -0.8527 C   0  0  0  0  0  0  0  0  0  0  0  0
    1.0303    2.4100   -0.7472 C   0  0  0  0  0  0  0  0  0  0  0  0
    2.0180    1.9419    0.2856 C   0  0  0  0  0  0  0  0  0  0  0  0
    2.0064    0.5301    0.5252 N   0  0  0  0  0  0  0  0  0  0  0  0
    2.7970   -0.3643   -0.2846 C   0  0  0  0  0  0  0  0  0  0  0  0
    2.2955   -0.9226   -1.4262 C   0  0  0  0  0  0  0  0  0  0  0  0
    3.0749   -1.7694   -2.1721 C   0  0  0  0  0  0  0  0  0  0  0  0
    4.3640   -2.0924   -1.8222 C   0  0  0  0  0  0  0  0  0  0  0  0
    4.8941   -1.5342   -0.6630 C   0  0  0  0  0  0  0  0  0  0  0  0
    6.2629   -1.8603   -0.2927 C   0  0  0  0  0  0  0  0  0  0  0  0
    7.2241   -0.9356    0.0348 C   0  0  0  0  0  0  0  0  0  0  0  0
    8.5168   -1.2619    0.3885 C   0  0  0  0  0  0  0  0  0  0  0  0
    8.8959   -2.5889    0.4242 C   0  0  0  0  0  0  0  0  0  0  0  0
   10.5173   -3.0955    0.8623 Cl  0  0  0  0  0  0  0  0  0  0  0  0
    7.9418   -3.5398    0.0970 C   0  0  0  0  0  0  0  0  0  0  0  0
    6.6571   -3.2038   -0.2538 C   0  0  0  0  0  0  0  0  0  0  0  0
    4.1073   -0.6892    0.0765 C   0  0  0  0  0  0  0  0  0  0  0  0
    4.6517   -0.0903    1.3275 C   0  0  0  0  0  0  0  0  0  0  0  0
    1.0294   -0.1025    1.7960 S   0  0  0  0  0  6  0  0  0  0  0  0
    1.2775   -1.5802    1.9253 O   0  0  0  0  0  0  0  0  0  0  0  0
    1.3647    0.5465    3.1332 O   0  0  0  0  0  0  0  0  0  0  0  0
   -0.6605    0.2436    1.5086 C   0  0  0  0  0  0  0  0  0  0  0  0
   -1.2599    1.3912    1.9982 C   0  0  0  0  0  0  0  0  0  0  0  0
   -2.5919    1.6626    1.7719 C   0  0  0  0  0  0  0  0  0  0  0  0
   -3.3994    0.8145    1.0506 C   0  0  0  0  0  0  0  0  0  0  0  0
   -4.7311    1.0501    0.8028 O   0  0  0  0  0  0  0  0  0  0  0  0
   -5.5068    2.1296    1.1929 C   0  0  0  0  0  0  0  0  0  0  0  0
   -6.1500    2.8363   -0.0095 C   0  0  0  0  0  0  0  0  0  0  0  0
   -6.6535    1.7413    2.0642 C   0  0  0  0  0  0  0  0  0  0  0  0
   -7.4537    2.6012    2.5059 O   0  0  0  0  0  0  0  0  0  0  0  0
   -6.8978    0.4232    2.4315 O   0  0  0  0  0  0  0  0  0  0  0  0
   -2.8130   -0.3349    0.5564 C   0  0  0  0  0  0  0  0  0  0  0  0
   -3.5848   -1.3042   -0.2201 C   0  0  0  0  0  0  0  0  0  0  0  0
   -3.5626   -0.9192   -1.6971 C   0  0  0  0  0  0  0  0  0  0  0  0
   -4.7391   -1.6884   -2.3086 C   0  0  0  0  0  0  0  0  0  0  0  0
   -4.9768   -2.9977   -1.5926 C   0  0  0  0  0  0  0  0  0  0  0  0
   -5.5185   -2.8031   -0.1869 C   0  0  0  0  0  0  0  0  0  0  0  0
   -5.0053   -1.4156    0.2428 C   0  0  0  0  0  0  0  0  0  0  0  0
   -1.4597   -0.6058    0.7891 C   0  0  0  0  0  0  0  0  0  0  0  0
    2.9973    3.3485   -1.8928 H   0  0  0  0  0  0  0  0  0  0  0  0
    2.7047    5.1192   -1.8816 H   0  0  0  0  0  0  0  0  0  0  0  0
    3.2491    4.2439   -0.3765 H   0  0  0  0  0  0  0  0  0  0  0  0
    0.4923    4.3006   -1.6213 H   0  0  0  0  0  0  0  0  0  0  0  0
    0.9313    4.4192    0.1035 H   0  0  0  0  0  0  0  0  0  0  0  0
   -0.0221    2.2239   -0.4655 H   0  0  0  0  0  0  0  0  0  0  0  0
    1.2585    2.0192   -1.7614 H   0  0  0  0  0  0  0  0  0  0  0  0
    3.0443    2.2487    0.0199 H   0  0  0  0  0  0  0  0  0  0  0  0
    1.7500    2.4906    1.2348 H   0  0  0  0  0  0  0  0  0  0  0  0
    1.2854   -0.7023   -1.7485 H   0  0  0  0  0  0  0  0  0  0  0  0
    2.6885   -2.2325   -3.1001 H   0  0  0  0  0  0  0  0  0  0  0  0
    4.9749   -2.7683   -2.4243 H   0  0  0  0  0  0  0  0  0  0  0  0
    6.9666    0.1122    0.0148 H   0  0  0  0  0  0  0  0  0  0  0  0
    9.2664   -0.5268    0.6452 H   0  0  0  0  0  0  0  0  0  0  0  0
    8.2251   -4.5932    0.1201 H   0  0  0  0  0  0  0  0  0  0  0  0
    5.9016   -3.9312   -0.5118 H   0  0  0  0  0  0  0  0  0  0  0  0
    5.0477    0.9245    1.1447 H   0  0  0  0  0  0  0  0  0  0  0  0
    5.4593   -0.7248    1.6868 H   0  0  0  0  0  0  0  0  0  0  0  0
    3.8348    0.0468    2.0711 H   0  0  0  0  0  0  0  0  0  0  0  0
   -0.6114    2.0530    2.5665 H   0  0  0  0  0  0  0  0  0  0  0  0
   -2.9760    2.5654    2.1819 H   0  0  0  0  0  0  0  0  0  0  0  0
   -4.9057    2.8434    1.7691 H   0  0  0  0  0  0  0  0  0  0  0  0
   -5.4711    3.6294   -0.3280 H   0  0  0  0  0  0  0  0  0  0  0  0
   -7.1314    3.2774    0.2626 H   0  0  0  0  0  0  0  0  0  0  0  0
   -6.3476    2.0673   -0.7667 H   0  0  0  0  0  0  0  0  0  0  0  0
   -7.6507    0.1466    3.0297 H   0  0  0  0  0  0  0  0  0  0  0  0
   -3.1470   -2.3298   -0.1786 H   0  0  0  0  0  0  0  0  0  0  0  0
   -2.6274   -1.2397   -2.1978 H   0  0  0  0  0  0  0  0  0  0  0  0
   -3.6962    0.1670   -1.8430 H   0  0  0  0  0  0  0  0  0  0  0  0
   -5.6520   -1.0962   -2.3583 H   0  0  0  0  0  0  0  0  0  0  0  0
   -4.4498   -1.9328   -3.3507 H   0  0  0  0  0  0  0  0  0  0  0  0
   -4.0418   -3.5802   -1.5185 H   0  0  0  0  0  0  0  0  0  0  0  0
   -5.7554   -3.5366   -2.1744 H   0  0  0  0  0  0  0  0  0  0  0  0
   -6.6063   -2.7739   -0.2326 H   0  0  0  0  0  0  0  0  0  0  0  0
   -5.0994   -3.5321    0.5290 H   0  0  0  0  0  0  0  0  0  0  0  0
   -5.6197   -0.7116   -0.3586 H   0  0  0  0  0  0  0  0  0  0  0  0
   -5.0551   -1.2763    1.3234 H   0  0  0  0  0  0  0  0  0  0  0  0
   -0.9962   -1.5092    0.4013 H   0  0  0  0  0  0  0  0  0  0  0  0
  1  2  1  0
  2  3  1  0
  3  4  1  0
  4  5  1  0
  5  6  1  0
  6  7  2  0
  7  8  1  0
  8  9  2  0
  9 10  1  0
 10 11  1  0
 11 12  2  0
 12 13  1  0
 13 14  2  0
 14 15  1  0
 14 16  1  0
 16 17  2  0
 10 18  2  0
 18 19  1  0
  5 20  1  0
 20 21  2  0
 20 22  2  0
 20 23  1  0
 23 24  2  0
 24 25  1  0
 25 26  2  0
 26 27  1  0
 27 28  1  0
 28 29  1  0
 28 30  1  0
 30 31  2  0
 30 32  1  0
 26 33  1  0
 33 34  1  0
 34 35  1  0
 35 36  1  0
 36 37  1  0
 37 38  1  0
 38 39  1  0
 33 40  2  0
 18  6  1  0
 40 23  1  0
 17 11  1  0
 39 34  1  0
  1 41  1  0
  1 42  1  0
  1 43  1  0
  2 44  1  0
  2 45  1  0
  3 46  1  0
  3 47  1  0
  4 48  1  0
  4 49  1  0
  7 50  1  0
  8 51  1  0
  9 52  1  0
 12 53  1  0
 13 54  1  0
 16 55  1  0
 17 56  1  0
 19 57  1  0
 19 58  1  0
 19 59  1  0
 24 60  1  0
 25 61  1  0
 28 62  1  0
 29 63  1  0
 29 64  1  0
 29 65  1  0
 32 66  1  0
 34 67  1  0
 35 68  1  0
 35 69  1  0
 36 70  1  0
 36 71  1  0
 37 72  1  0
 37 73  1  0
 38 74  1  0
 38 75  1  0
 39 76  1  0
 39 77  1  0
 40 78  1  0
M  END
$$$$
