@<TRIPOS>MOLECULE
*****
 78 81 0 0 0
SMALL
GASTEIGER

@<TRIPOS>ATOM
      1 C           2.6233    4.2017   -1.2750 C.3     1  UNL1       -0.0652
      2 C           1.1989    3.9269   -0.8527 C.3     1  UNL1       -0.0544
      3 C           1.0303    2.4100   -0.7472 C.3     1  UNL1       -0.0357
      4 C           2.0180    1.9419    0.2856 C.3     1  UNL1        0.0350
      5 N           2.0064    0.5301    0.5252 N.pl3   1  UNL1       -0.2027
      6 C           2.7970   -0.3643   -0.2846 C.ar    1  UNL1        0.0547
      7 C           2.2955   -0.9226   -1.4262 C.ar    1  UNL1       -0.0388
      8 C           3.0749   -1.7694   -2.1721 C.ar    1  UNL1       -0.0594
      9 C           4.3640   -2.0924   -1.8222 C.ar    1  UNL1       -0.0537
     10 C           4.8941   -1.5342   -0.6630 C.ar    1  UNL1       -0.0132
     11 C           6.2629   -1.8603   -0.2927 C.ar    1  UNL1       -0.0175
     12 C           7.2241   -0.9356    0.0348 C.ar    1  UNL1       -0.0526
     13 C           8.5168   -1.2619    0.3885 C.ar    1  UNL1       -0.0428
     14 C           8.8959   -2.5889    0.4242 C.ar    1  UNL1        0.0410
     15 CL         10.5173   -3.0955    0.8623 Cl      1  UNL1       -0.0835
     16 C           7.9418   -3.5398    0.0970 C.ar    1  UNL1       -0.0428
     17 C           6.6571   -3.2038   -0.2538 C.ar    1  UNL1       -0.0526
     18 C           4.1073   -0.6892    0.0765 C.ar    1  UNL1       -0.0202
     19 C           4.6517   -0.0903    1.3275 C.3     1  UNL1       -0.0373
     20 S           1.0294   -0.1025    1.7960 S.O2    1  UNL1        0.0747
     21 O           1.2775   -1.5802    1.9253 O.2     1  UNL1       -0.1498
     22 O           1.3647    0.5465    3.1332 O.2     1  UNL1       -0.1498
     23 C          -0.6605    0.2436    1.5086 C.ar    1  UNL1        0.1092
     24 C          -1.2599    1.3912    1.9982 C.ar    1  UNL1       -0.0316
     25 C          -2.5919    1.6626    1.7719 C.ar    1  UNL1       -0.0178
     26 C          -3.3994    0.8145    1.0506 C.ar    1  UNL1        0.1252
     27 O          -4.7311    1.0501    0.8028 O.3     1  UNL1       -0.4776
     28 C          -5.5068    2.1296    1.1929 C.3     1  UNL1        0.1931
     29 C          -6.1500    2.8363   -0.0095 C.3     1  UNL1       -0.0172
     30 C          -6.6535    1.7413    2.0642 C.2     1  UNL1        0.3456
     31 O          -7.4537    2.6012    2.5059 O.2     1  UNL1       -0.2468
     32 O          -6.8978    0.4232    2.4315 O.3     1  UNL1       -0.4781
     33 C          -2.8130   -0.3349    0.5564 C.ar    1  UNL1       -0.0007
     34 C          -3.5848   -1.3042   -0.2201 C.3     1  UNL1       -0.0123
     35 C          -3.5626   -0.9192   -1.6971 C.3     1  UNL1       -0.0461
     36 C          -4.7391   -1.6884   -2.3086 C.3     1  UNL1       -0.0525
     37 C          -4.9768   -2.9977   -1.5926 C.3     1  UNL1       -0.0530
     38 C          -5.5185   -2.8031   -0.1869 C.3     1  UNL1       -0.0525
     39 C          -5.0053   -1.4156    0.2428 C.3     1  UNL1       -0.0461
     40 C          -1.4597   -0.6058    0.7891 C.ar    1  UNL1       -0.0282
     41 H           2.9973    3.3485   -1.8928 H       1  UNL1        0.0230
     42 H           2.7047    5.1192   -1.8816 H       1  UNL1        0.0230
     43 H           3.2491    4.2439   -0.3765 H       1  UNL1        0.0230
     44 H           0.4923    4.3006   -1.6213 H       1  UNL1        0.0263
     45 H           0.9313    4.4192    0.1035 H       1  UNL1        0.0263
     46 H          -0.0221    2.2239   -0.4655 H       1  UNL1        0.0281
     47 H           1.2585    2.0192   -1.7614 H       1  UNL1        0.0281
     48 H           3.0443    2.2487    0.0199 H       1  UNL1        0.0482
     49 H           1.7500    2.4906    1.2348 H       1  UNL1        0.0482
     50 H           1.2854   -0.7023   -1.7485 H       1  UNL1        0.0637
     51 H           2.6885   -2.2325   -3.1001 H       1  UNL1        0.0618
     52 H           4.9749   -2.7683   -2.4243 H       1  UNL1        0.0624
     53 H           6.9666    0.1122    0.0148 H       1  UNL1        0.0624
     54 H           9.2664   -0.5268    0.6452 H       1  UNL1        0.0632
     55 H           8.2251   -4.5932    0.1201 H       1  UNL1        0.0632
     56 H           5.9016   -3.9312   -0.5118 H       1  UNL1        0.0624
     57 H           5.0477    0.9245    1.1447 H       1  UNL1        0.0278
     58 H           5.4593   -0.7248    1.6868 H       1  UNL1        0.0278
     59 H           3.8348    0.0468    2.0711 H       1  UNL1        0.0278
     60 H          -0.6114    2.0530    2.5665 H       1  UNL1        0.0638
     61 H          -2.9760    2.5654    2.1819 H       1  UNL1        0.0655
     62 H          -4.9057    2.8434    1.7691 H       1  UNL1        0.0849
     63 H          -5.4711    3.6294   -0.3280 H       1  UNL1        0.0271
     64 H          -7.1314    3.2774    0.2626 H       1  UNL1        0.0271
     65 H          -6.3476    2.0673   -0.7667 H       1  UNL1        0.0271
     66 H          -7.6507    0.1466    3.0297 H       1  UNL1        0.2952
     67 H          -3.1470   -2.3298   -0.1786 H       1  UNL1        0.0350
     68 H          -2.6274   -1.2397   -2.1978 H       1  UNL1        0.0271
     69 H          -3.6962    0.1670   -1.8430 H       1  UNL1        0.0271
     70 H          -5.6520   -1.0962   -2.3583 H       1  UNL1        0.0265
     71 H          -4.4498   -1.9328   -3.3507 H       1  UNL1        0.0265
     72 H          -4.0418   -3.5802   -1.5185 H       1  UNL1        0.0265
     73 H          -5.7554   -3.5366   -2.1744 H       1  UNL1        0.0265
     74 H          -6.6063   -2.7739   -0.2326 H       1  UNL1        0.0265
     75 H          -5.0994   -3.5321    0.5290 H       1  UNL1        0.0265
     76 H          -5.6197   -0.7116   -0.3586 H       1  UNL1        0.0271
     77 H          -5.0551   -1.2763    1.3234 H       1  UNL1        0.0271
     78 H          -0.9962   -1.5092    0.4013 H       1  UNL1        0.0641
@<TRIPOS>BOND
     1     1     2    1
     2     2     3    1
     3     3     4    1
     4     4     5    1
     5     5     6    1
     6     6     7   ar
     7     7     8   ar
     8     8     9   ar
     9     9    10   ar
    10    10    11    1
    11    11    12   ar
    12    12    13   ar
    13    13    14   ar
    14    14    15    1
    15    14    16   ar
    16    16    17   ar
    17    10    18   ar
    18    18    19    1
    19     5    20    1
    20    20    21    2
    21    20    22    2
    22    20    23    1
    23    23    24   ar
    24    24    25   ar
    25    25    26   ar
    26    26    27    1
    27    27    28    1
    28    28    29    1
    29    28    30    1
    30    30    31    2
    31    30    32    1
    32    26    33   ar
    33    33    34    1
    34    34    35    1
    35    35    36    1
    36    36    37    1
    37    37    38    1
    38    38    39    1
    39    33    40   ar
    40    18     6   ar
    41    40    23   ar
    42    17    11   ar
    43    39    34    1
    44     1    41    1
    45     1    42    1
    46     1    43    1
    47     2    44    1
    48     2    45    1
    49     3    46    1
    50     3    47    1
    51     4    48    1
    52     4    49    1
    53     7    50    1
    54     8    51    1
    55     9    52    1
    56    12    53    1
    57    13    54    1
    58    16    55    1
    59    17    56    1
    60    19    57    1
    61    19    58    1
    62    19    59    1
    63    24    60    1
    64    25    61    1
    65    28    62    1
    66    29    63    1
    67    29    64    1
    68    29    65    1
    69    32    66    1
    70    34    67    1
    71    35    68    1
    72    35    69    1
    73    36    70    1
    74    36    71    1
    75    37    72    1
    76    37    73    1
    77    38    74    1
    78    38    75    1
    79    39    76    1
    80    39    77    1
    81    40    78    1
