@<TRIPOS>MOLECULE
*****
 67 72 0 0 0
SMALL
GASTEIGER

@<TRIPOS>ATOM
      1 C          -4.8355   -2.8715   -1.1381 C.3     1  UNL1       -0.0057
      2 C          -4.9997   -2.7481    0.3460 C.ar    1  UNL1        0.1109
      3 O          -6.1250   -3.0790    0.9531 O.2     1  UNL1       -0.4674
      4 C          -6.0156   -2.8811    2.2467 C.ar    1  UNL1        0.0927
      5 C          -4.7363   -2.3877    2.5126 C.ar    1  UNL1       -0.0144
      6 C          -4.1210   -2.3144    1.3010 C.ar    1  UNL1        0.0416
      7 C          -2.7678   -1.8549    1.0436 C.ar    1  UNL1        0.0858
      8 N          -1.6888   -2.5745    1.4713 N.ar    1  UNL1       -0.2279
      9 C          -0.4475   -2.1311    1.2193 C.ar    1  UNL1        0.1589
     10 N           0.7152   -2.8510    1.6481 N.pl3   1  UNL1       -0.3402
     11 C          -0.2865   -0.9456    0.5265 C.ar    1  UNL1        0.1605
     12 O           1.0053   -0.5202    0.2850 O.3     1  UNL1       -0.4870
     13 C           1.2401    0.6850   -0.4185 C.3     1  UNL1        0.1051
     14 C           2.7289    0.9521   -0.5687 C.3     1  UNL1        0.0435
     15 N           2.9176    2.1663   -1.2742 N.3     1  UNL1       -0.3242
     16 C           3.3772    0.8681    0.7866 C.3     1  UNL1       -0.0065
     17 C           4.8242    1.1237    0.7562 C.ar    1  UNL1       -0.0083
     18 C           5.4922    2.3145    0.7548 C.ar    1  UNL1        0.1058
     19 C           4.9479    3.6497    0.8877 C.2     1  UNL1        0.2581
     20 N           3.6161    3.9552    1.1772 N.am    1  UNL1       -0.3241
     21 O           5.7215    4.6649    0.7374 O.2     1  UNL1       -0.2688
     22 N           6.8078    2.0164    0.6569 N.ar    1  UNL1       -0.3504
     23 C           6.9891    0.6865    0.5991 C.ar    1  UNL1        0.0473
     24 C           8.0970   -0.1350    0.4976 C.ar    1  UNL1       -0.0378
     25 C           7.9884   -1.5066    0.4575 C.ar    1  UNL1       -0.0598
     26 C           6.7390   -2.0884    0.5199 C.ar    1  UNL1       -0.0611
     27 C           5.6349   -1.2983    0.6200 C.ar    1  UNL1       -0.0523
     28 C           5.7565    0.0754    0.6594 C.ar    1  UNL1        0.0036
     29 C          -1.3431   -0.1915    0.0788 C.ar    1  UNL1       -0.0052
     30 C          -2.6267   -0.6607    0.3457 C.ar    1  UNL1        0.0315
     31 C          -3.8053    0.0765   -0.0904 C.ar    1  UNL1        0.0921
     32 C          -4.7663    0.5864    0.7531 C.ar    1  UNL1        0.0560
     33 N          -5.8236    1.2593    0.2998 N.ar    1  UNL1       -0.2326
     34 C          -5.9914    1.4669   -1.0163 C.ar    1  UNL1        0.1747
     35 N          -6.9353    2.0947   -1.7514 N.ar    1  UNL1       -0.2587
     36 N          -6.6105    2.0016   -3.0142 N.ar    1  UNL1       -0.1752
     37 C          -5.4573    1.3192   -3.1589 C.ar    1  UNL1        0.0872
     38 C          -4.8033    1.0300   -4.4413 C.3     1  UNL1       -0.0185
     39 C          -5.0410    0.9656   -1.8893 C.ar    1  UNL1        0.1306
     40 N          -3.9664    0.2801   -1.4089 N.ar    1  UNL1       -0.2401
     41 H          -5.4004   -2.1140   -1.6914 H       1  UNL1        0.0308
     42 H          -5.2251   -3.8670   -1.4772 H       1  UNL1        0.0308
     43 H          -3.7520   -2.8637   -1.4073 H       1  UNL1        0.0308
     44 H          -6.7589   -3.0547    3.0147 H       1  UNL1        0.1029
     45 H          -4.3622   -2.1313    3.5070 H       1  UNL1        0.0656
     46 H           0.9905   -3.7033    1.1185 H       1  UNL1        0.1438
     47 H           1.3079   -2.5790    2.4584 H       1  UNL1        0.1438
     48 H           0.8223    1.5148    0.1881 H       1  UNL1        0.0712
     49 H           0.7467    0.5964   -1.4077 H       1  UNL1        0.0712
     50 H           3.0992    0.1194   -1.2395 H       1  UNL1        0.0495
     51 H           2.0311    2.6225   -1.5754 H       1  UNL1        0.1186
     52 H           3.6249    2.1301   -2.0402 H       1  UNL1        0.1186
     53 H           2.8137    1.5557    1.4527 H       1  UNL1        0.0330
     54 H           3.1730   -0.1521    1.2285 H       1  UNL1        0.0330
     55 H           2.9797    4.3443    0.4578 H       1  UNL1        0.1453
     56 H           3.1809    3.8124    2.1380 H       1  UNL1        0.1453
     57 H           7.5684    2.7408    0.6312 H       1  UNL1        0.1660
     58 H           9.0895    0.2902    0.4469 H       1  UNL1        0.0638
     59 H           8.8644   -2.1483    0.3775 H       1  UNL1        0.0618
     60 H           6.6968   -3.1815    0.4846 H       1  UNL1        0.0618
     61 H           4.6543   -1.7274    0.6699 H       1  UNL1        0.0624
     62 H          -1.2148    0.7361   -0.4632 H       1  UNL1        0.0662
     63 H          -4.6465    0.4273    1.8375 H       1  UNL1        0.0852
     64 H          -7.7847    2.5766   -1.3921 H       1  UNL1        0.1906
     65 H          -4.7353   -0.0744   -4.6202 H       1  UNL1        0.0294
     66 H          -5.3831    1.4605   -5.2786 H       1  UNL1        0.0294
     67 H          -3.7855    1.4714   -4.4965 H       1  UNL1        0.0294
@<TRIPOS>BOND
     1     1     2    1
     2     2     3   ar
     3     3     4   ar
     4     4     5   ar
     5     5     6   ar
     6     6     7    1
     7     7     8   ar
     8     8     9   ar
     9     9    10    1
    10     9    11   ar
    11    11    12    1
    12    12    13    1
    13    13    14    1
    14    14    15    1
    15    14    16    1
    16    16    17    1
    17    17    18   ar
    18    18    19    1
    19    19    20   am
    20    19    21    2
    21    18    22   ar
    22    22    23   ar
    23    23    24   ar
    24    24    25   ar
    25    25    26   ar
    26    26    27   ar
    27    27    28   ar
    28    11    29   ar
    29    29    30   ar
    30    30    31    1
    31    31    32   ar
    32    32    33   ar
    33    33    34   ar
    34    34    35   ar
    35    35    36   ar
    36    36    37   ar
    37    37    38    1
    38    37    39   ar
    39    39    40   ar
    40     6     2   ar
    41    30     7   ar
    42    40    31   ar
    43    28    17   ar
    44    39    34   ar
    45    28    23   ar
    46     1    41    1
    47     1    42    1
    48     1    43    1
    49     4    44    1
    50     5    45    1
    51    10    46    1
    52    10    47    1
    53    13    48    1
    54    13    49    1
    55    14    50    1
    56    15    51    1
    57    15    52    1
    58    16    53    1
    59    16    54    1
    60    20    55    1
    61    20    56    1
    62    22    57    1
    63    24    58    1
    64    25    59    1
    65    26    60    1
    66    27    61    1
    67    29    62    1
    68    32    63    1
    69    35    64    1
    70    38    65    1
    71    38    66    1
    72    38    67    1
