
     RDKit          3D

 84 90  0  0  0  0  0  0  0  0999 V2000
   -9.9877   -4.4352   -0.2508 C   0  0  0  0  0  0  0  0  0  0  0  0
   -9.3705   -3.6040    0.6787 O   0  0  0  0  0  0  0  0  0  0  0  0
   -8.6119   -2.4867    0.4347 C   0  0  0  0  0  0  0  0  0  0  0  0
   -8.0731   -1.7798    1.5179 C   0  0  0  0  0  0  0  0  0  0  0  0
   -7.3081   -0.6540    1.3010 C   0  0  0  0  0  0  0  0  0  0  0  0
   -7.0351   -0.1693    0.0400 C   0  0  0  0  0  0  0  0  0  0  0  0
   -6.2458    1.0007   -0.1303 N   0  0  0  0  0  0  0  0  0  0  0  0
   -6.7661    2.2033   -0.1736 N   0  0  0  0  0  0  0  0  0  0  0  0
   -5.8190    3.1354   -0.3349 C   0  0  0  0  0  0  0  0  0  0  0  0
   -6.0062    4.5988   -0.4406 C   0  0  0  0  0  0  0  0  0  0  0  0
   -6.1313    5.0317   -1.8973 C   0  0  0  0  0  0  0  0  0  0  0  0
   -4.9770    5.3926    0.3053 C   0  0  0  0  0  0  0  0  0  0  0  0
   -7.3678    4.9286    0.1818 C   0  0  0  0  0  0  0  0  0  0  0  0
   -4.6242    2.4096   -0.3919 C   0  0  0  0  0  0  0  0  0  0  0  0
   -4.8998    1.0927   -0.2653 C   0  0  0  0  0  0  0  0  0  0  0  0
   -4.0597   -0.0382   -0.2642 N   0  0  0  0  0  0  0  0  0  0  0  0
   -2.6213    0.0284   -0.4191 C   0  0  0  0  0  0  0  0  0  0  0  0
   -2.1733    1.1720   -0.5508 O   0  0  0  0  0  0  0  0  0  0  0  0
   -1.8356   -1.1497   -0.4129 N   0  0  0  0  0  0  0  0  0  0  0  0
   -0.4253   -1.1564   -0.5578 C   0  0  0  0  0  0  0  0  0  0  0  0
    0.3158   -0.0187   -0.7377 C   0  0  0  0  0  0  0  0  0  0  0  0
    1.7029   -0.0967   -0.8642 C   0  0  0  0  0  0  0  0  0  0  0  0
    2.3675   -1.2934   -0.8141 C   0  0  0  0  0  0  0  0  0  0  0  0
    3.7278   -1.3157   -0.9424 O   0  0  0  0  0  0  0  0  0  0  0  0
    4.6242   -1.7100    0.0310 C   0  0  0  0  0  0  0  0  0  0  0  0
    4.3010   -2.0797    1.3165 C   0  0  0  0  0  0  0  0  0  0  0  0
    5.3124   -2.4466    2.1766 C   0  0  0  0  0  0  0  0  0  0  0  0
    6.5970   -2.4512    1.7906 N   0  0  0  0  0  0  0  0  0  0  0  0
    6.9146   -2.0901    0.5333 C   0  0  0  0  0  0  0  0  0  0  0  0
    8.2780   -2.0899    0.0854 N   0  0  0  0  0  0  0  0  0  0  0  0
    8.9853   -0.8647    0.1187 C   0  0  0  0  0  0  0  0  0  0  0  0
    8.4283    0.3456    0.4643 C   0  0  0  0  0  0  0  0  0  0  0  0
    9.2030    1.5093    0.4714 C   0  0  0  0  0  0  0  0  0  0  0  0
   10.5328    1.4468    0.1307 C   0  0  0  0  0  0  0  0  0  0  0  0
   11.0660    0.2282   -0.2101 C   0  0  0  0  0  0  0  0  0  0  0  0
   12.3920    0.4277   -0.5058 C   0  0  0  0  0  0  0  0  0  0  0  0
   12.5975    1.7509   -0.3311 N   0  0  0  0  0  0  0  0  0  0  0  0
   11.5067    2.3627    0.0444 N   0  0  0  0  0  0  0  0  0  0  0  0
   11.3808    3.7832    0.3159 C   0  0  0  0  0  0  0  0  0  0  0  0
   10.3130   -0.9040   -0.2173 C   0  0  0  0  0  0  0  0  0  0  0  0
    5.9312   -1.7366   -0.2924 N   0  0  0  0  0  0  0  0  0  0  0  0
    1.6467   -2.4579   -0.6357 C   0  0  0  0  0  0  0  0  0  0  0  0
    2.3009   -3.6797   -0.5999 C   0  0  0  0  0  0  0  0  0  0  0  0
    1.5430   -4.8164   -0.4321 C   0  0  0  0  0  0  0  0  0  0  0  0
    0.1784   -4.7701   -0.3027 C   0  0  0  0  0  0  0  0  0  0  0  0
   -0.4710   -3.5399   -0.3416 C   0  0  0  0  0  0  0  0  0  0  0  0
    0.2528   -2.3880   -0.5073 C   0  0  0  0  0  0  0  0  0  0  0  0
   -7.5647   -0.8643   -1.0337 C   0  0  0  0  0  0  0  0  0  0  0  0
   -8.3352   -1.9980   -0.8146 C   0  0  0  0  0  0  0  0  0  0  0  0
  -10.1727   -3.9407   -1.2198 H   0  0  0  0  0  0  0  0  0  0  0  0
   -9.4614   -5.4144   -0.3765 H   0  0  0  0  0  0  0  0  0  0  0  0
  -10.9972   -4.6965    0.1571 H   0  0  0  0  0  0  0  0  0  0  0  0
   -8.2854   -2.1571    2.5300 H   0  0  0  0  0  0  0  0  0  0  0  0
   -6.9309   -0.1669    2.1966 H   0  0  0  0  0  0  0  0  0  0  0  0
   -5.9768    6.1212   -1.9780 H   0  0  0  0  0  0  0  0  0  0  0  0
   -5.3762    4.4943   -2.5216 H   0  0  0  0  0  0  0  0  0  0  0  0
   -7.1283    4.7699   -2.3034 H   0  0  0  0  0  0  0  0  0  0  0  0
   -4.1412    5.6593   -0.3536 H   0  0  0  0  0  0  0  0  0  0  0  0
   -5.4497    6.3539    0.6352 H   0  0  0  0  0  0  0  0  0  0  0  0
   -4.6501    4.8010    1.1743 H   0  0  0  0  0  0  0  0  0  0  0  0
   -7.4674    6.0299    0.1731 H   0  0  0  0  0  0  0  0  0  0  0  0
   -7.4953    4.4940    1.1831 H   0  0  0  0  0  0  0  0  0  0  0  0
   -8.1864    4.5460   -0.4742 H   0  0  0  0  0  0  0  0  0  0  0  0
   -3.6803    2.8725   -0.5163 H   0  0  0  0  0  0  0  0  0  0  0  0
   -4.4793   -1.0093   -0.1478 H   0  0  0  0  0  0  0  0  0  0  0  0
   -2.3886   -2.0158   -0.2942 H   0  0  0  0  0  0  0  0  0  0  0  0
   -0.1626    0.9432   -0.7848 H   0  0  0  0  0  0  0  0  0  0  0  0
    2.2241    0.8626   -1.0062 H   0  0  0  0  0  0  0  0  0  0  0  0
    3.2774   -2.0703    1.6049 H   0  0  0  0  0  0  0  0  0  0  0  0
    5.0979   -2.7432    3.1907 H   0  0  0  0  0  0  0  0  0  0  0  0
    8.6673   -2.9807   -0.2352 H   0  0  0  0  0  0  0  0  0  0  0  0
    7.3968    0.3946    0.7270 H   0  0  0  0  0  0  0  0  0  0  0  0
    8.7803    2.4657    0.7402 H   0  0  0  0  0  0  0  0  0  0  0  0
   13.0859   -0.3435   -0.8097 H   0  0  0  0  0  0  0  0  0  0  0  0
   12.3587    4.2945    0.1189 H   0  0  0  0  0  0  0  0  0  0  0  0
   10.6200    4.2555   -0.3606 H   0  0  0  0  0  0  0  0  0  0  0  0
   11.1249    3.9960    1.3695 H   0  0  0  0  0  0  0  0  0  0  0  0
   10.7873   -1.8566   -0.4987 H   0  0  0  0  0  0  0  0  0  0  0  0
    3.3671   -3.7482   -0.7166 H   0  0  0  0  0  0  0  0  0  0  0  0
    2.0461   -5.7841   -0.4016 H   0  0  0  0  0  0  0  0  0  0  0  0
   -0.4442   -5.6377   -0.1698 H   0  0  0  0  0  0  0  0  0  0  0  0
   -1.5353   -3.5031   -0.2402 H   0  0  0  0  0  0  0  0  0  0  0  0
   -7.3544   -0.4933   -2.0122 H   0  0  0  0  0  0  0  0  0  0  0  0
   -8.7596   -2.5558   -1.6590 H   0  0  0  0  0  0  0  0  0  0  0  0
  1  2  1  0
  2  3  1  0
  3  4  2  0
  4  5  1  0
  5  6  2  0
  6  7  1  0
  7  8  1  0
  8  9  2  0
  9 10  1  0
 10 11  1  0
 10 12  1  0
 10 13  1  0
  9 14  1  0
 14 15  2  0
 15 16  1  0
 16 17  1  0
 17 18  2  0
 17 19  1  0
 19 20  1  0
 20 21  2  0
 21 22  1  0
 22 23  2  0
 23 24  1  0
 24 25  1  0
 25 26  2  0
 26 27  1  0
 27 28  2  0
 28 29  1  0
 29 30  1  0
 30 31  1  0
 31 32  2  0
 32 33  1  0
 33 34  2  0
 34 35  1  0
 35 36  1  0
 36 37  2  0
 37 38  1  0
 38 39  1  0
 35 40  2  0
 29 41  2  0
 23 42  1  0
 42 43  2  0
 43 44  1  0
 44 45  2  0
 45 46  1  0
 46 47  2  0
  6 48  1  0
 48 49  2  0
 49  3  1  0
 15  7  1  0
 47 20  1  0
 41 25  1  0
 47 42  1  0
 40 31  1  0
 38 34  1  0
  1 50  1  0
  1 51  1  0
  1 52  1  0
  4 53  1  0
  5 54  1  0
 11 55  1  0
 11 56  1  0
 11 57  1  0
 12 58  1  0
 12 59  1  0
 12 60  1  0
 13 61  1  0
 13 62  1  0
 13 63  1  0
 14 64  1  0
 16 65  1  0
 19 66  1  0
 21 67  1  0
 22 68  1  0
 26 69  1  0
 27 70  1  0
 30 71  1  0
 32 72  1  0
 33 73  1  0
 36 74  1  0
 39 75  1  0
 39 76  1  0
 39 77  1  0
 40 78  1  0
 43 79  1  0
 44 80  1  0
 45 81  1  0
 46 82  1  0
 48 83  1  0
 49 84  1  0
M  END
$$$$
