@<TRIPOS>MOLECULE
*****
 84 90 0 0 0
SMALL
GASTEIGER

@<TRIPOS>ATOM
      1 C          -9.9877   -4.4352   -0.2508 C.3     1  UNL1        0.0788
      2 O          -9.3705   -3.6040    0.6787 O.3     1  UNL1       -0.4951
      3 C          -8.6119   -2.4867    0.4347 C.ar    1  UNL1        0.1202
      4 C          -8.0731   -1.7798    1.5179 C.ar    1  UNL1       -0.0179
      5 C          -7.3081   -0.6540    1.3010 C.ar    1  UNL1       -0.0327
      6 C          -7.0351   -0.1693    0.0400 C.ar    1  UNL1        0.0677
      7 N          -6.2458    1.0007   -0.1303 N.ar    1  UNL1       -0.2181
      8 N          -6.7661    2.2033   -0.1736 N.ar    1  UNL1       -0.1691
      9 C          -5.8190    3.1354   -0.3349 C.ar    1  UNL1        0.0706
     10 C          -6.0062    4.5988   -0.4406 C.3     1  UNL1        0.0063
     11 C          -6.1313    5.0317   -1.8973 C.3     1  UNL1       -0.0546
     12 C          -4.9770    5.3926    0.3053 C.3     1  UNL1       -0.0546
     13 C          -7.3678    4.9286    0.1818 C.3     1  UNL1       -0.0546
     14 C          -4.6242    2.4096   -0.3919 C.ar    1  UNL1        0.0021
     15 C          -4.8998    1.0927   -0.2653 C.ar    1  UNL1        0.1299
     16 N          -4.0597   -0.0382   -0.2642 N.am    1  UNL1       -0.2538
     17 C          -2.6213    0.0284   -0.4191 C.2     1  UNL1        0.3092
     18 O          -2.1733    1.1720   -0.5508 O.2     1  UNL1       -0.2521
     19 N          -1.8356   -1.1497   -0.4129 N.am    1  UNL1       -0.2686
     20 C          -0.4253   -1.1564   -0.5578 C.ar    1  UNL1        0.0427
     21 C           0.3158   -0.0187   -0.7377 C.ar    1  UNL1       -0.0363
     22 C           1.7029   -0.0967   -0.8642 C.ar    1  UNL1       -0.0169
     23 C           2.3675   -1.2934   -0.8141 C.ar    1  UNL1        0.1381
     24 O           3.7278   -1.3157   -0.9424 O.3     1  UNL1       -0.4373
     25 C           4.6242   -1.7100    0.0310 C.ar    1  UNL1        0.2249
     26 C           4.3010   -2.0797    1.3165 C.ar    1  UNL1        0.0186
     27 C           5.3124   -2.4466    2.1766 C.ar    1  UNL1        0.0362
     28 N           6.5970   -2.4512    1.7906 N.ar    1  UNL1       -0.2225
     29 C           6.9146   -2.0901    0.5333 C.ar    1  UNL1        0.2226
     30 N           8.2780   -2.0899    0.0854 N.pl3   1  UNL1       -0.2835
     31 C           8.9853   -0.8647    0.1187 C.ar    1  UNL1        0.0343
     32 C           8.4283    0.3456    0.4643 C.ar    1  UNL1       -0.0384
     33 C           9.2030    1.5093    0.4714 C.ar    1  UNL1       -0.0343
     34 C          10.5328    1.4468    0.1307 C.ar    1  UNL1        0.0687
     35 C          11.0660    0.2282   -0.2101 C.ar    1  UNL1        0.0215
     36 C          12.3920    0.4277   -0.5058 C.ar    1  UNL1        0.0572
     37 N          12.5975    1.7509   -0.3311 N.ar    1  UNL1       -0.1788
     38 N          11.5067    2.3627    0.0444 N.ar    1  UNL1       -0.2667
     39 C          11.3808    3.7832    0.3159 C.3     1  UNL1        0.0309
     40 C          10.3130   -0.9040   -0.2173 C.ar    1  UNL1       -0.0298
     41 N           5.9312   -1.7366   -0.2924 N.ar    1  UNL1       -0.1789
     42 C           1.6467   -2.4579   -0.6357 C.ar    1  UNL1        0.0262
     43 C           2.3009   -3.6797   -0.5999 C.ar    1  UNL1       -0.0505
     44 C           1.5430   -4.8164   -0.4321 C.ar    1  UNL1       -0.0611
     45 C           0.1784   -4.7701   -0.3027 C.ar    1  UNL1       -0.0611
     46 C          -0.4710   -3.5399   -0.3416 C.ar    1  UNL1       -0.0521
     47 C           0.2528   -2.3880   -0.5073 C.ar    1  UNL1        0.0069
     48 C          -7.5647   -0.8643   -1.0337 C.ar    1  UNL1       -0.0327
     49 C          -8.3352   -1.9980   -0.8146 C.ar    1  UNL1       -0.0179
     50 H         -10.1727   -3.9407   -1.2198 H       1  UNL1        0.0660
     51 H          -9.4614   -5.4144   -0.3765 H       1  UNL1        0.0660
     52 H         -10.9972   -4.6965    0.1571 H       1  UNL1        0.0660
     53 H          -8.2854   -2.1571    2.5300 H       1  UNL1        0.0655
     54 H          -6.9309   -0.1669    2.1966 H       1  UNL1        0.0640
     55 H          -5.9768    6.1212   -1.9780 H       1  UNL1        0.0239
     56 H          -5.3762    4.4943   -2.5216 H       1  UNL1        0.0239
     57 H          -7.1283    4.7699   -2.3034 H       1  UNL1        0.0239
     58 H          -4.1412    5.6593   -0.3536 H       1  UNL1        0.0239
     59 H          -5.4497    6.3539    0.6352 H       1  UNL1        0.0239
     60 H          -4.6501    4.8010    1.1743 H       1  UNL1        0.0239
     61 H          -7.4674    6.0299    0.1731 H       1  UNL1        0.0239
     62 H          -7.4953    4.4940    1.1831 H       1  UNL1        0.0239
     63 H          -8.1864    4.5460   -0.4742 H       1  UNL1        0.0239
     64 H          -3.6803    2.8725   -0.5163 H       1  UNL1        0.0671
     65 H          -4.4793   -1.0093   -0.1478 H       1  UNL1        0.1578
     66 H          -2.3886   -2.0158   -0.2942 H       1  UNL1        0.1564
     67 H          -0.1626    0.9432   -0.7848 H       1  UNL1        0.0637
     68 H           2.2241    0.8626   -1.0062 H       1  UNL1        0.0655
     69 H           3.2774   -2.0703    1.6049 H       1  UNL1        0.0686
     70 H           5.0979   -2.7432    3.1907 H       1  UNL1        0.0832
     71 H           8.6673   -2.9807   -0.2352 H       1  UNL1        0.1550
     72 H           7.3968    0.3946    0.7270 H       1  UNL1        0.0637
     73 H           8.7803    2.4657    0.7402 H       1  UNL1        0.0639
     74 H          13.0859   -0.3435   -0.8097 H       1  UNL1        0.0854
     75 H          12.3587    4.2945    0.1189 H       1  UNL1        0.0473
     76 H          10.6200    4.2555   -0.3606 H       1  UNL1        0.0473
     77 H          11.1249    3.9960    1.3695 H       1  UNL1        0.0473
     78 H          10.7873   -1.8566   -0.4987 H       1  UNL1        0.0643
     79 H           3.3671   -3.7482   -0.7166 H       1  UNL1        0.0625
     80 H           2.0461   -5.7841   -0.4016 H       1  UNL1        0.0618
     81 H          -0.4442   -5.6377   -0.1698 H       1  UNL1        0.0618
     82 H          -1.5353   -3.5031   -0.2402 H       1  UNL1        0.0624
     83 H          -7.3544   -0.4933   -2.0122 H       1  UNL1        0.0640
     84 H          -8.7596   -2.5558   -1.6590 H       1  UNL1        0.0655
@<TRIPOS>BOND
     1     1     2    1
     2     2     3    1
     3     3     4   ar
     4     4     5   ar
     5     5     6   ar
     6     6     7    1
     7     7     8   ar
     8     8     9   ar
     9     9    10    1
    10    10    11    1
    11    10    12    1
    12    10    13    1
    13     9    14   ar
    14    14    15   ar
    15    15    16    1
    16    16    17   am
    17    17    18    2
    18    17    19   am
    19    19    20    1
    20    20    21   ar
    21    21    22   ar
    22    22    23   ar
    23    23    24    1
    24    24    25    1
    25    25    26   ar
    26    26    27   ar
    27    27    28   ar
    28    28    29   ar
    29    29    30    1
    30    30    31    1
    31    31    32   ar
    32    32    33   ar
    33    33    34   ar
    34    34    35   ar
    35    35    36   ar
    36    36    37   ar
    37    37    38   ar
    38    38    39    1
    39    35    40   ar
    40    29    41   ar
    41    23    42   ar
    42    42    43   ar
    43    43    44   ar
    44    44    45   ar
    45    45    46   ar
    46    46    47   ar
    47     6    48   ar
    48    48    49   ar
    49    49     3   ar
    50    15     7   ar
    51    47    20   ar
    52    41    25   ar
    53    47    42   ar
    54    40    31   ar
    55    38    34   ar
    56     1    50    1
    57     1    51    1
    58     1    52    1
    59     4    53    1
    60     5    54    1
    61    11    55    1
    62    11    56    1
    63    11    57    1
    64    12    58    1
    65    12    59    1
    66    12    60    1
    67    13    61    1
    68    13    62    1
    69    13    63    1
    70    14    64    1
    71    16    65    1
    72    19    66    1
    73    21    67    1
    74    22    68    1
    75    26    69    1
    76    27    70    1
    77    30    71    1
    78    32    72    1
    79    33    73    1
    80    36    74    1
    81    39    75    1
    82    39    76    1
    83    39    77    1
    84    40    78    1
    85    43    79    1
    86    44    80    1
    87    45    81    1
    88    46    82    1
    89    48    83    1
    90    49    84    1
