@<TRIPOS>MOLECULE
*****
 72 76 0 0 0
SMALL
GASTEIGER

@<TRIPOS>ATOM
      1 C          -5.9003    3.2408   -1.0051 C.3     1  UNL1       -0.0219
      2 C          -6.0949    1.7754   -1.1850 C.ar    1  UNL1        0.0485
      3 N          -7.0046    1.3422   -2.0419 N.ar    1  UNL1       -0.2371
      4 C          -7.1999    0.0288   -2.2244 C.ar    1  UNL1        0.1199
      5 N          -8.1849   -0.4523   -3.1484 N.pl3   1  UNL1       -0.3430
      6 C          -6.4522   -0.8889   -1.5216 C.ar    1  UNL1        0.0200
      7 C          -5.4697   -0.5165   -0.6008 C.ar    1  UNL1        0.1301
      8 C          -5.3127    0.8878   -0.4475 C.ar    1  UNL1        0.0324
      9 C          -4.4372    1.4595    0.5275 C.3     1  UNL1        0.0423
     10 N          -2.9945    1.4659    0.2511 N.am    1  UNL1       -0.3070
     11 C          -2.1824    2.1087    1.1960 C.2     1  UNL1        0.2473
     12 O          -3.0349    2.5675    2.1016 O.2     1  UNL1       -0.2701
     13 C          -0.7651    2.3799    1.4266 C.ar    1  UNL1        0.0741
     14 C          -0.3087    3.6423    1.9088 C.ar    1  UNL1        0.0615
     15 N           0.9788    3.5284    2.0745 N.ar    1  UNL1       -0.1786
     16 N           1.4027    2.2762    1.7347 N.ar    1  UNL1       -0.2662
     17 C           0.3534    1.5732    1.3363 C.ar    1  UNL1        0.0380
     18 C           2.8128    1.9135    1.9309 C.3     1  UNL1        0.0699
     19 C           3.5249    1.4114    0.7577 C.ar    1  UNL1        0.0155
     20 C           4.2746    2.2583   -0.0183 C.ar    1  UNL1       -0.0530
     21 C           4.9760    1.7904   -1.0920 C.ar    1  UNL1       -0.0563
     22 C           4.9256    0.4630   -1.3902 C.ar    1  UNL1       -0.0227
     23 C           5.7050   -0.0232   -2.5737 C.3     1  UNL1        0.0666
     24 N           7.0556   -0.4167   -2.1790 N.ar    1  UNL1       -0.2671
     25 C           8.1345    0.4010   -2.1560 C.ar    1  UNL1        0.0258
     26 C           9.2339   -0.2961   -1.7381 C.ar    1  UNL1       -0.0242
     27 C           8.7928   -1.5858   -1.5011 C.ar    1  UNL1        0.0494
     28 N           7.4810   -1.5927   -1.7835 N.ar    1  UNL1       -0.1794
     29 C           4.1737   -0.3982   -0.6165 C.ar    1  UNL1       -0.0147
     30 C           3.4429    0.0136    0.4795 C.ar    1  UNL1        0.1257
     31 O           2.7189   -0.7105    1.2429 O.3     1  UNL1       -0.4916
     32 C           1.9738   -1.4557    2.0290 C.3     1  UNL1        0.0899
     33 C           1.0501   -2.3267    1.1760 C.3     1  UNL1       -0.0152
     34 C          -0.0297   -3.0253    1.9561 C.3     1  UNL1       -0.0317
     35 C          -0.7470   -3.8670    0.9660 C.2     1  UNL1       -0.0877
     36 C          -1.9701   -3.8157    0.6012 C.2     1  UNL1       -0.0847
     37 C          -2.9969   -2.8651    1.1024 C.3     1  UNL1       -0.0004
     38 C          -3.5018   -2.0414   -0.0867 C.3     1  UNL1        0.0930
     39 O          -4.6784   -1.3627    0.1333 O.3     1  UNL1       -0.4912
     40 H          -4.8201    3.4929   -0.9715 H       1  UNL1        0.0293
     41 H          -6.4242    3.7493   -1.8375 H       1  UNL1        0.0293
     42 H          -6.4411    3.5290   -0.0795 H       1  UNL1        0.0293
     43 H          -7.8283   -0.9844   -3.9586 H       1  UNL1        0.1437
     44 H          -9.1806   -0.2448   -2.9576 H       1  UNL1        0.1437
     45 H          -6.6817   -1.9524   -1.7033 H       1  UNL1        0.0689
     46 H          -4.5889    0.8829    1.4997 H       1  UNL1        0.0513
     47 H          -4.7790    2.4897    0.8013 H       1  UNL1        0.0513
     48 H          -2.7863    0.9843   -0.6198 H       1  UNL1        0.1493
     49 H          -0.9461    4.5340    2.1012 H       1  UNL1        0.0855
     50 H           0.3458    0.4771    0.9512 H       1  UNL1        0.0834
     51 H           3.4178    2.8277    2.2420 H       1  UNL1        0.0560
     52 H           2.9619    1.2631    2.8380 H       1  UNL1        0.0560
     53 H           4.3168    3.3325    0.2213 H       1  UNL1        0.0622
     54 H           5.5624    2.4747   -1.6931 H       1  UNL1        0.0621
     55 H           5.2258   -0.9124   -3.0222 H       1  UNL1        0.0558
     56 H           5.7867    0.7546   -3.3585 H       1  UNL1        0.0558
     57 H           8.1579    1.4458   -2.4203 H       1  UNL1        0.0826
     58 H          10.2499    0.0306   -1.6021 H       1  UNL1        0.0648
     59 H           9.3747   -2.4456   -1.1533 H       1  UNL1        0.0848
     60 H           4.2212   -1.4416   -0.9678 H       1  UNL1        0.0657
     61 H           2.6164   -2.2206    2.5711 H       1  UNL1        0.0696
     62 H           1.4038   -0.9798    2.8572 H       1  UNL1        0.0696
     63 H           0.6307   -1.7849    0.3344 H       1  UNL1        0.0301
     64 H           1.6666   -3.1606    0.7170 H       1  UNL1        0.0301
     65 H          -0.6681   -2.3767    2.5474 H       1  UNL1        0.0308
     66 H           0.4444   -3.7362    2.6756 H       1  UNL1        0.0308
     67 H          -0.1002   -4.6402    0.4947 H       1  UNL1        0.0569
     68 H          -2.3408   -4.5353   -0.1634 H       1  UNL1        0.0570
     69 H          -2.5065   -2.1414    1.7780 H       1  UNL1        0.0340
     70 H          -3.7945   -3.4270    1.5932 H       1  UNL1        0.0340
     71 H          -2.6503   -1.3847   -0.3974 H       1  UNL1        0.0699
     72 H          -3.5913   -2.7873   -0.8985 H       1  UNL1        0.0699
@<TRIPOS>BOND
     1     1     2    1
     2     2     3   ar
     3     3     4   ar
     4     4     5    1
     5     4     6   ar
     6     6     7   ar
     7     7     8   ar
     8     8     9    1
     9     9    10    1
    10    10    11   am
    11    11    12    2
    12    11    13    1
    13    13    14   ar
    14    14    15   ar
    15    15    16   ar
    16    16    17   ar
    17    16    18    1
    18    18    19    1
    19    19    20   ar
    20    20    21   ar
    21    21    22   ar
    22    22    23    1
    23    23    24    1
    24    24    25   ar
    25    25    26   ar
    26    26    27   ar
    27    27    28   ar
    28    22    29   ar
    29    29    30   ar
    30    30    31    1
    31    31    32    1
    32    32    33    1
    33    33    34    1
    34    34    35    1
    35    35    36    2
    36    36    37    1
    37    37    38    1
    38    38    39    1
    39     8     2   ar
    40    17    13   ar
    41    30    19   ar
    42    39     7    1
    43    28    24   ar
    44     1    40    1
    45     1    41    1
    46     1    42    1
    47     5    43    1
    48     5    44    1
    49     6    45    1
    50     9    46    1
    51     9    47    1
    52    10    48    1
    53    14    49    1
    54    17    50    1
    55    18    51    1
    56    18    52    1
    57    20    53    1
    58    21    54    1
    59    23    55    1
    60    23    56    1
    61    25    57    1
    62    26    58    1
    63    27    59    1
    64    29    60    1
    65    32    61    1
    66    32    62    1
    67    33    63    1
    68    33    64    1
    69    34    65    1
    70    34    66    1
    71    35    67    1
    72    36    68    1
    73    37    69    1
    74    37    70    1
    75    38    71    1
    76    38    72    1
