@<TRIPOS>MOLECULE
*****
 51 54 0 0 0
SMALL
GASTEIGER

@<TRIPOS>ATOM
      1 C          -3.9512   -2.7296    0.4800 C.1     1  UNL1       -0.1163
      2 C          -3.6532   -1.5859    0.2823 C.1     1  UNL1       -0.0704
      3 C          -3.3035   -0.2009    0.0663 C.3     1  UNL1        0.1319
      4 O          -4.1681    0.6673    0.7344 O.3     1  UNL1       -0.3760
      5 C          -3.4236    0.1235   -1.4206 C.3     1  UNL1       -0.0118
      6 C          -2.0299    0.3877   -1.9351 C.3     1  UNL1       -0.0458
      7 C          -1.1799   -0.1949   -0.8602 C.3     1  UNL1       -0.0286
      8 C           0.2281    0.2160   -0.7870 C.3     1  UNL1       -0.0339
      9 C           0.9387   -0.1092   -2.1140 C.3     1  UNL1       -0.0460
     10 C           2.2975    0.5155   -2.0236 C.3     1  UNL1       -0.0308
     11 C           2.9257    0.3809   -0.6889 C.2     1  UNL1       -0.0629
     12 C           4.2169    0.6488   -0.5812 C.2     1  UNL1       -0.0197
     13 C           4.8312    0.5150    0.7316 C.2     1  UNL1        0.1561
     14 O           5.6590    1.3874    1.1306 O.2     1  UNL1       -0.2927
     15 C           4.4616   -0.6524    1.5634 C.3     1  UNL1        0.0104
     16 C           3.0185   -0.9681    1.3906 C.3     1  UNL1       -0.0392
     17 C           2.2379   -0.0229    0.5419 C.3     1  UNL1       -0.0160
     18 C           0.9009   -0.6591    0.2442 C.3     1  UNL1       -0.0314
     19 C           0.1376   -0.9241    1.4684 C.3     1  UNL1       -0.0488
     20 C          -1.3371   -1.0931    1.3509 C.3     1  UNL1       -0.0433
     21 C          -1.8649    0.0227    0.4373 C.3     1  UNL1        0.0136
     22 C          -1.6297    1.2866    1.1634 C.3     1  UNL1       -0.0464
     23 C          -2.0093    2.5515    0.4515 C.3     1  UNL1       -0.0646
     24 H          -4.2310   -3.7348    0.6582 H       1  UNL1        0.1229
     25 H          -4.9886    0.8169    0.1958 H       1  UNL1        0.2114
     26 H          -4.0984    0.9540   -1.6259 H       1  UNL1        0.0303
     27 H          -3.8607   -0.7680   -1.9586 H       1  UNL1        0.0303
     28 H          -1.8831   -0.2140   -2.8815 H       1  UNL1        0.0269
     29 H          -1.8254    1.4157   -2.2087 H       1  UNL1        0.0269
     30 H          -1.1717   -1.3140   -1.0513 H       1  UNL1        0.0310
     31 H           0.4247    1.2884   -0.6340 H       1  UNL1        0.0307
     32 H           1.0608   -1.2120   -2.1265 H       1  UNL1        0.0271
     33 H           0.3887    0.2781   -2.9705 H       1  UNL1        0.0271
     34 H           2.2827    1.5753   -2.3155 H       1  UNL1        0.0310
     35 H           2.9747   -0.0376   -2.7375 H       1  UNL1        0.0310
     36 H           4.8150    0.9664   -1.4434 H       1  UNL1        0.0652
     37 H           4.6497   -0.4551    2.6523 H       1  UNL1        0.0345
     38 H           5.1023   -1.5320    1.2526 H       1  UNL1        0.0345
     39 H           2.9282   -2.0254    1.0000 H       1  UNL1        0.0275
     40 H           2.4951   -1.0224    2.3922 H       1  UNL1        0.0275
     41 H           2.0262    0.9236    1.1179 H       1  UNL1        0.0349
     42 H           1.1393   -1.6415   -0.2605 H       1  UNL1        0.0309
     43 H           0.3950   -0.2212    2.3172 H       1  UNL1        0.0268
     44 H           0.5156   -1.9121    1.8837 H       1  UNL1        0.0268
     45 H          -1.5604   -2.0366    0.8152 H       1  UNL1        0.0272
     46 H          -1.7926   -1.0567    2.3392 H       1  UNL1        0.0272
     47 H          -0.5795    1.3578    1.5076 H       1  UNL1        0.0269
     48 H          -2.2394    1.2523    2.0960 H       1  UNL1        0.0269
     49 H          -2.7967    2.4567   -0.2865 H       1  UNL1        0.0230
     50 H          -1.0947    3.0072    0.0223 H       1  UNL1        0.0230
     51 H          -2.3790    3.3282    1.1872 H       1  UNL1        0.0230
@<TRIPOS>BOND
     1     1     2    3
     2     3     2    1
     3     3     4    1
     4     3     5    1
     5     5     6    1
     6     6     7    1
     7     7     8    1
     8     8     9    1
     9     9    10    1
    10    10    11    1
    11    11    12    2
    12    12    13    1
    13    13    14    2
    14    13    15    1
    15    15    16    1
    16    16    17    1
    17    17    18    1
    18    18    19    1
    19    19    20    1
    20    20    21    1
    21    21    22    1
    22    22    23    1
    23    21     3    1
    24    21     7    1
    25    18     8    1
    26    17    11    1
    27     1    24    1
    28     4    25    1
    29     5    26    1
    30     5    27    1
    31     6    28    1
    32     6    29    1
    33     7    30    1
    34     8    31    1
    35     9    32    1
    36     9    33    1
    37    10    34    1
    38    10    35    1
    39    12    36    1
    40    15    37    1
    41    15    38    1
    42    16    39    1
    43    16    40    1
    44    17    41    1
    45    18    42    1
    46    19    43    1
    47    19    44    1
    48    20    45    1
    49    20    46    1
    50    22    47    1
    51    22    48    1
    52    23    49    1
    53    23    50    1
    54    23    51    1
