
     RDKit          3D

 53 56  0  0  0  0  0  0  0  0999 V2000
    4.1116    2.0834    1.0875 C   0  0  0  0  0  0  0  0  0  0  0  0
    4.0520    1.1178    0.0281 N   0  0  0  0  0  0  0  0  0  0  0  0
    4.4336   -0.1864    0.3372 C   0  0  0  0  0  0  0  0  0  0  0  0
    3.6214   -1.0508    1.2154 C   0  0  0  0  0  0  0  0  0  0  0  0
    2.3735   -1.3995    0.9238 O   0  0  0  0  0  0  0  0  0  0  0  0
    1.1267   -0.9894    0.7046 C   0  0  0  0  0  0  0  0  0  0  0  0
    0.7699    0.3423    0.7668 C   0  0  0  0  0  0  0  0  0  0  0  0
   -0.5406    0.7873    0.5404 C   0  0  0  0  0  0  0  0  0  0  0  0
   -1.5370   -0.1118    0.2419 C   0  0  0  0  0  0  0  0  0  0  0  0
   -2.9100    0.3155    0.0000 C   0  0  0  0  0  0  0  0  0  0  0  0
   -3.8991   -0.5670    0.3640 C   0  0  0  0  0  0  0  0  0  0  0  0
   -5.2360   -0.3000    0.1957 C   0  0  0  0  0  0  0  0  0  0  0  0
   -5.5816    0.9156   -0.3665 C   0  0  0  0  0  0  0  0  0  0  0  0
   -4.5967    1.8171   -0.7396 C   0  0  0  0  0  0  0  0  0  0  0  0
   -3.2563    1.5083   -0.5520 C   0  0  0  0  0  0  0  0  0  0  0  0
   -5.0275    3.0122   -1.2963 O   0  0  0  0  0  0  0  0  0  0  0  0
   -6.3379    3.4540   -0.9415 C   0  0  0  0  0  0  0  0  0  0  0  0
   -7.3160    2.3459   -1.2621 C   0  0  0  0  0  0  0  0  0  0  0  0
   -6.9233    1.1992   -0.5421 O   0  0  0  0  0  0  0  0  0  0  0  0
   -1.1758   -1.4515    0.1799 C   0  0  0  0  0  0  0  0  0  0  0  0
    0.0917   -1.8874    0.3980 C   0  0  0  0  0  0  0  0  0  0  0  0
    0.4693   -3.3204    0.3216 C   0  0  0  0  0  0  0  0  0  0  0  0
   -0.2686   -4.3901    0.0835 C   0  0  0  0  0  0  0  0  0  0  0  0
    0.2709   -5.6159    0.0603 C   0  0  0  0  0  0  0  0  0  0  0  0
    1.6439   -5.6883    0.3002 C   0  0  0  0  0  0  0  0  0  0  0  0
    2.0928   -3.9552    0.5512 S   0  0  0  0  0  0  0  0  0  0  0  0
    4.6304    1.6283   -1.2078 C   0  0  0  0  0  0  0  0  0  0  0  0
    6.0861    1.8101   -1.0917 C   0  0  0  0  0  0  0  0  0  0  0  0
    6.7593    1.6138   -0.0345 O   0  0  0  0  0  0  0  0  0  0  0  0
    6.8270    2.2274   -2.1957 O   0  0  0  0  0  0  0  0  0  0  0  0
    4.1111    1.6663    2.0944 H   0  0  0  0  0  0  0  0  0  0  0  0
    3.2308    2.7529    0.9891 H   0  0  0  0  0  0  0  0  0  0  0  0
    5.0060    2.7552    1.0067 H   0  0  0  0  0  0  0  0  0  0  0  0
    4.6298   -0.7491   -0.6097 H   0  0  0  0  0  0  0  0  0  0  0  0
    5.4667   -0.1352    0.8115 H   0  0  0  0  0  0  0  0  0  0  0  0
    3.6676   -0.6972    2.2997 H   0  0  0  0  0  0  0  0  0  0  0  0
    4.2396   -2.0223    1.3107 H   0  0  0  0  0  0  0  0  0  0  0  0
    1.4794    1.1023    1.0018 H   0  0  0  0  0  0  0  0  0  0  0  0
   -0.7777    1.8538    0.5994 H   0  0  0  0  0  0  0  0  0  0  0  0
   -3.6679   -1.5415    0.8140 H   0  0  0  0  0  0  0  0  0  0  0  0
   -6.0059   -1.0238    0.4970 H   0  0  0  0  0  0  0  0  0  0  0  0
   -2.4976    2.2106   -0.8434 H   0  0  0  0  0  0  0  0  0  0  0  0
   -6.6294    4.3510   -1.5411 H   0  0  0  0  0  0  0  0  0  0  0  0
   -6.3953    3.6872    0.1548 H   0  0  0  0  0  0  0  0  0  0  0  0
   -7.2652    2.1074   -2.3423 H   0  0  0  0  0  0  0  0  0  0  0  0
   -8.3380    2.6105   -0.9222 H   0  0  0  0  0  0  0  0  0  0  0  0
   -1.9431   -2.1741   -0.0537 H   0  0  0  0  0  0  0  0  0  0  0  0
   -1.3742   -4.2676   -0.1032 H   0  0  0  0  0  0  0  0  0  0  0  0
   -0.3299   -6.5597   -0.1402 H   0  0  0  0  0  0  0  0  0  0  0  0
    2.3376   -6.5649    0.3389 H   0  0  0  0  0  0  0  0  0  0  0  0
    4.1085    2.5782   -1.4471 H   0  0  0  0  0  0  0  0  0  0  0  0
    4.4324    0.9167   -2.0077 H   0  0  0  0  0  0  0  0  0  0  0  0
    7.7611    1.8789   -2.3722 H   0  0  0  0  0  0  0  0  0  0  0  0
  1  2  1  0
  2  3  1  0
  3  4  1  0
  4  5  1  0
  5  6  1  0
  6  7  2  0
  7  8  1  0
  8  9  2  0
  9 10  1  0
 10 11  2  0
 11 12  1  0
 12 13  2  0
 13 14  1  0
 14 15  2  0
 14 16  1  0
 16 17  1  0
 17 18  1  0
 18 19  1  0
  9 20  1  0
 20 21  2  0
 21 22  1  0
 22 23  2  0
 23 24  1  0
 24 25  2  0
 25 26  1  0
  2 27  1  0
 27 28  1  0
 28 29  2  0
 28 30  1  0
 21  6  1  0
 26 22  1  0
 15 10  1  0
 19 13  1  0
  1 31  1  0
  1 32  1  0
  1 33  1  0
  3 34  1  0
  3 35  1  0
  4 36  1  0
  4 37  1  0
  7 38  1  0
  8 39  1  0
 11 40  1  0
 12 41  1  0
 15 42  1  0
 17 43  1  0
 17 44  1  0
 18 45  1  0
 18 46  1  0
 20 47  1  0
 23 48  1  0
 24 49  1  0
 25 50  1  0
 27 51  1  0
 27 52  1  0
 30 53  1  0
M  END
$$$$
