@<TRIPOS>MOLECULE
*****
 53 56 0 0 0
SMALL
GASTEIGER

@<TRIPOS>ATOM
      1 C           4.1116    2.0834    1.0875 C.3     1  UNL1       -0.0121
      2 N           4.0520    1.1178    0.0281 N.3     1  UNL1       -0.2923
      3 C           4.4336   -0.1864    0.3372 C.3     1  UNL1        0.0334
      4 C           3.6214   -1.0508    1.2154 C.3     1  UNL1        0.1023
      5 O           2.3735   -1.3995    0.9238 O.3     1  UNL1       -0.4901
      6 C           1.1267   -0.9894    0.7046 C.ar    1  UNL1        0.1288
      7 C           0.7699    0.3423    0.7668 C.ar    1  UNL1       -0.0187
      8 C          -0.5406    0.7873    0.5404 C.ar    1  UNL1       -0.0505
      9 C          -1.5370   -0.1118    0.2419 C.ar    1  UNL1       -0.0170
     10 C          -2.9100    0.3155    0.0000 C.ar    1  UNL1       -0.0142
     11 C          -3.8991   -0.5670    0.3640 C.ar    1  UNL1       -0.0503
     12 C          -5.2360   -0.3000    0.1957 C.ar    1  UNL1       -0.0157
     13 C          -5.5816    0.9156   -0.3665 C.ar    1  UNL1        0.1621
     14 C          -4.5967    1.8171   -0.7396 C.ar    1  UNL1        0.1626
     15 C          -3.2563    1.5083   -0.5520 C.ar    1  UNL1       -0.0086
     16 O          -5.0275    3.0122   -1.2963 O.3     1  UNL1       -0.4849
     17 C          -6.3379    3.4540   -0.9415 C.3     1  UNL1        0.1237
     18 C          -7.3160    2.3459   -1.2621 C.3     1  UNL1        0.1237
     19 O          -6.9233    1.1992   -0.5421 O.3     1  UNL1       -0.4849
     20 C          -1.1758   -1.4515    0.1799 C.ar    1  UNL1       -0.0423
     21 C           0.0917   -1.8874    0.3980 C.ar    1  UNL1        0.0309
     22 C           0.4693   -3.3204    0.3216 C.ar    1  UNL1        0.0228
     23 C          -0.2686   -4.3901    0.0835 C.ar    1  UNL1       -0.0468
     24 C           0.2709   -5.6159    0.0603 C.ar    1  UNL1       -0.0541
     25 C           1.6439   -5.6883    0.3002 C.ar    1  UNL1       -0.0237
     26 S           2.0928   -3.9552    0.5512 S.2     1  UNL1       -0.0965
     27 C           4.6304    1.6283   -1.2078 C.3     1  UNL1        0.0966
     28 C           6.0861    1.8101   -1.0917 C.2     1  UNL1        0.3189
     29 O           6.7593    1.6138   -0.0345 O.2     1  UNL1       -0.2496
     30 O           6.8270    2.2274   -2.1957 O.3     1  UNL1       -0.4797
     31 H           4.1111    1.6663    2.0944 H       1  UNL1        0.0391
     32 H           3.2308    2.7529    0.9891 H       1  UNL1        0.0391
     33 H           5.0060    2.7552    1.0067 H       1  UNL1        0.0391
     34 H           4.6298   -0.7491   -0.6097 H       1  UNL1        0.0460
     35 H           5.4667   -0.1352    0.8115 H       1  UNL1        0.0460
     36 H           3.6676   -0.6972    2.2997 H       1  UNL1        0.0709
     37 H           4.2396   -2.0223    1.3107 H       1  UNL1        0.0709
     38 H           1.4794    1.1023    1.0018 H       1  UNL1        0.0654
     39 H          -0.7777    1.8538    0.5994 H       1  UNL1        0.0625
     40 H          -3.6679   -1.5415    0.8140 H       1  UNL1        0.0625
     41 H          -6.0059   -1.0238    0.4970 H       1  UNL1        0.0655
     42 H          -2.4976    2.2106   -0.8434 H       1  UNL1        0.0661
     43 H          -6.6294    4.3510   -1.5411 H       1  UNL1        0.0731
     44 H          -6.3953    3.6872    0.1548 H       1  UNL1        0.0731
     45 H          -7.2652    2.1074   -2.3423 H       1  UNL1        0.0731
     46 H          -8.3380    2.6105   -0.9222 H       1  UNL1        0.0731
     47 H          -1.9431   -2.1741   -0.0537 H       1  UNL1        0.0631
     48 H          -1.3742   -4.2676   -0.1032 H       1  UNL1        0.0629
     49 H          -0.3299   -6.5597   -0.1402 H       1  UNL1        0.0623
     50 H           2.3376   -6.5649    0.3389 H       1  UNL1        0.0693
     51 H           4.1085    2.5782   -1.4471 H       1  UNL1        0.0541
     52 H           4.4324    0.9167   -2.0077 H       1  UNL1        0.0541
     53 H           7.7611    1.8789   -2.3722 H       1  UNL1        0.2951
@<TRIPOS>BOND
     1     1     2    1
     2     2     3    1
     3     3     4    1
     4     4     5    1
     5     5     6    1
     6     6     7   ar
     7     7     8   ar
     8     8     9   ar
     9     9    10    1
    10    10    11   ar
    11    11    12   ar
    12    12    13   ar
    13    13    14   ar
    14    14    15   ar
    15    14    16    1
    16    16    17    1
    17    17    18    1
    18    18    19    1
    19     9    20   ar
    20    20    21   ar
    21    21    22    1
    22    22    23   ar
    23    23    24   ar
    24    24    25   ar
    25    25    26   ar
    26     2    27    1
    27    27    28    1
    28    28    29    2
    29    28    30    1
    30    21     6   ar
    31    26    22   ar
    32    15    10   ar
    33    19    13    1
    34     1    31    1
    35     1    32    1
    36     1    33    1
    37     3    34    1
    38     3    35    1
    39     4    36    1
    40     4    37    1
    41     7    38    1
    42     8    39    1
    43    11    40    1
    44    12    41    1
    45    15    42    1
    46    17    43    1
    47    17    44    1
    48    18    45    1
    49    18    46    1
    50    20    47    1
    51    23    48    1
    52    24    49    1
    53    25    50    1
    54    27    51    1
    55    27    52    1
    56    30    53    1
