
     RDKit          3D

 52 55  0  0  0  0  0  0  0  0999 V2000
    5.8016    0.6447    1.3692 C   0  0  0  0  0  0  0  0  0  0  0  0
    5.0134    0.3576    0.2308 O   0  0  0  0  0  0  0  0  0  0  0  0
    3.7666   -0.0945    0.5866 C   0  0  2  0  0  0  0  0  0  0  0  0
    3.4479   -1.4697    0.0185 C   0  0  0  0  0  0  0  0  0  0  0  0
    2.4087   -1.2251   -1.0786 C   0  0  0  0  0  0  0  0  0  0  0  0
    1.0504   -1.5627   -0.5030 C   0  0  0  0  0  0  0  0  0  0  0  0
    0.3838   -0.2738   -0.0400 C   0  0  1  0  0  0  0  0  0  0  0  0
   -0.7926   -0.4771    0.6009 O   0  0  0  0  0  0  0  0  0  0  0  0
   -1.8160    0.1557   -0.1027 C   0  0  0  0  0  0  0  0  0  0  0  0
   -2.5055    1.2025    0.6615 C   0  0  0  0  0  0  0  0  0  0  0  0
   -2.8294    2.4377    0.1077 C   0  0  0  0  0  0  0  0  0  0  0  0
   -3.4712    3.3980    0.8444 C   0  0  0  0  0  0  0  0  0  0  0  0
   -3.8223    3.1754    2.1697 C   0  0  0  0  0  0  0  0  0  0  0  0
   -4.4544    4.0986    2.9232 F   0  0  0  0  0  0  0  0  0  0  0  0
   -3.5027    1.9518    2.7226 C   0  0  0  0  0  0  0  0  0  0  0  0
   -2.8540    0.9877    1.9699 C   0  0  0  0  0  0  0  0  0  0  0  0
   -2.7516   -0.8940   -0.5854 C   0  0  0  0  0  0  0  0  0  0  0  0
   -3.1412   -1.9310    0.2296 C   0  0  0  0  0  0  0  0  0  0  0  0
   -3.9979   -2.8818   -0.2198 C   0  0  0  0  0  0  0  0  0  0  0  0
   -4.4806   -2.8056   -1.5052 C   0  0  0  0  0  0  0  0  0  0  0  0
   -5.3372   -3.7531   -1.9600 F   0  0  0  0  0  0  0  0  0  0  0  0
   -4.1086   -1.7854   -2.3344 C   0  0  0  0  0  0  0  0  0  0  0  0
   -3.2410   -0.8329   -1.8617 C   0  0  0  0  0  0  0  0  0  0  0  0
    1.4108    0.4674    0.8032 C   0  0  0  0  0  0  0  0  0  0  0  0
    2.6433    0.7438   -0.0318 C   0  0  0  0  0  0  0  0  0  0  0  0
    2.4758    0.1700   -1.3268 N   0  0  0  0  0  0  0  0  0  0  0  0
    3.4018    0.5899   -2.3151 C   0  0  0  0  0  0  0  0  0  0  0  0
    5.8900   -0.3023    1.9405 H   0  0  0  0  0  0  0  0  0  0  0  0
    6.7791    1.0354    1.0206 H   0  0  0  0  0  0  0  0  0  0  0  0
    5.2726    1.3588    2.0480 H   0  0  0  0  0  0  0  0  0  0  0  0
    3.6440   -0.1380    1.6940 H   0  0  0  0  0  0  0  0  0  0  0  0
    4.3884   -1.8721   -0.4074 H   0  0  0  0  0  0  0  0  0  0  0  0
    3.0889   -2.1531    0.7906 H   0  0  0  0  0  0  0  0  0  0  0  0
    2.6718   -1.8667   -1.9383 H   0  0  0  0  0  0  0  0  0  0  0  0
    0.4474   -1.9978   -1.3242 H   0  0  0  0  0  0  0  0  0  0  0  0
    1.1118   -2.2207    0.3859 H   0  0  0  0  0  0  0  0  0  0  0  0
    0.2435    0.3375   -0.9534 H   0  0  0  0  0  0  0  0  0  0  0  0
   -1.3952    0.6710   -1.0211 H   0  0  0  0  0  0  0  0  0  0  0  0
   -2.5679    2.6442   -0.9300 H   0  0  0  0  0  0  0  0  0  0  0  0
   -3.7177    4.3581    0.3978 H   0  0  0  0  0  0  0  0  0  0  0  0
   -3.7734    1.7695    3.7578 H   0  0  0  0  0  0  0  0  0  0  0  0
   -2.6391    0.0651    2.4699 H   0  0  0  0  0  0  0  0  0  0  0  0
   -2.7489   -1.9678    1.2266 H   0  0  0  0  0  0  0  0  0  0  0  0
   -4.3106   -3.7089    0.4260 H   0  0  0  0  0  0  0  0  0  0  0  0
   -4.4881   -1.7219   -3.3512 H   0  0  0  0  0  0  0  0  0  0  0  0
   -2.9658   -0.0306   -2.5555 H   0  0  0  0  0  0  0  0  0  0  0  0
    1.6115   -0.1540    1.6855 H   0  0  0  0  0  0  0  0  0  0  0  0
    0.9550    1.4322    1.1437 H   0  0  0  0  0  0  0  0  0  0  0  0
    2.9198    1.8090   -0.0518 H   0  0  0  0  0  0  0  0  0  0  0  0
    3.7147   -0.2093   -3.0183 H   0  0  0  0  0  0  0  0  0  0  0  0
    4.2692    1.1045   -1.8560 H   0  0  0  0  0  0  0  0  0  0  0  0
    2.9012    1.3637   -2.9527 H   0  0  0  0  0  0  0  0  0  0  0  0
  1  2  1  0
  2  3  1  0
  3  4  1  0
  4  5  1  0
  5  6  1  0
  6  7  1  0
  7  8  1  0
  8  9  1  0
  9 10  1  0
 10 11  2  0
 11 12  1  0
 12 13  2  0
 13 14  1  0
 13 15  1  0
 15 16  2  0
  9 17  1  0
 17 18  2  0
 18 19  1  0
 19 20  2  0
 20 21  1  0
 20 22  1  0
 22 23  2  0
  7 24  1  0
 24 25  1  0
 25 26  1  0
 26 27  1  0
 25  3  1  0
 26  5  1  0
 16 10  1  0
 23 17  1  0
  1 28  1  0
  1 29  1  0
  1 30  1  0
  3 31  1  1
  4 32  1  0
  4 33  1  0
  5 34  1  0
  6 35  1  0
  6 36  1  0
  7 37  1  6
  9 38  1  0
 11 39  1  0
 12 40  1  0
 15 41  1  0
 16 42  1  0
 18 43  1  0
 19 44  1  0
 22 45  1  0
 23 46  1  0
 24 47  1  0
 24 48  1  0
 25 49  1  0
 27 50  1  0
 27 51  1  0
 27 52  1  0
M  END
$$$$
