@<TRIPOS>MOLECULE
*****
 52 55 0 0 0
SMALL
GASTEIGER

@<TRIPOS>ATOM
      1 C           5.8016    0.6447    1.3692 C.3     1  UNL1        0.0369
      2 O           5.0134    0.3576    0.2308 O.3     1  UNL1       -0.3782
      3 C           3.7666   -0.0945    0.5866 C.3     1  UNL1        0.0753
      4 C           3.4479   -1.4697    0.0185 C.3     1  UNL1       -0.0094
      5 C           2.4087   -1.2251   -1.0786 C.3     1  UNL1        0.0152
      6 C           1.0504   -1.5627   -0.5030 C.3     1  UNL1       -0.0108
      7 C           0.3838   -0.2738   -0.0400 C.3     1  UNL1        0.0628
      8 O          -0.7926   -0.4771    0.6009 O.3     1  UNL1       -0.3640
      9 C          -1.8160    0.1557   -0.1027 C.3     1  UNL1        0.1090
     10 C          -2.5055    1.2025    0.6615 C.ar    1  UNL1       -0.0143
     11 C          -2.8294    2.4377    0.1077 C.ar    1  UNL1       -0.0531
     12 C          -3.4712    3.3980    0.8444 C.ar    1  UNL1       -0.0261
     13 C          -3.8223    3.1754    2.1697 C.ar    1  UNL1        0.1234
     14 F          -4.4544    4.0986    2.9232 F       1  UNL1       -0.2055
     15 C          -3.5027    1.9518    2.7226 C.ar    1  UNL1       -0.0261
     16 C          -2.8540    0.9877    1.9699 C.ar    1  UNL1       -0.0531
     17 C          -2.7516   -0.8940   -0.5854 C.ar    1  UNL1       -0.0143
     18 C          -3.1412   -1.9310    0.2296 C.ar    1  UNL1       -0.0531
     19 C          -3.9979   -2.8818   -0.2198 C.ar    1  UNL1       -0.0261
     20 C          -4.4806   -2.8056   -1.5052 C.ar    1  UNL1        0.1234
     21 F          -5.3372   -3.7531   -1.9600 F       1  UNL1       -0.2055
     22 C          -4.1086   -1.7854   -2.3344 C.ar    1  UNL1       -0.0261
     23 C          -3.2410   -0.8329   -1.8617 C.ar    1  UNL1       -0.0531
     24 C           1.4108    0.4674    0.8032 C.3     1  UNL1       -0.0084
     25 C           2.6433    0.7438   -0.0318 C.3     1  UNL1        0.0390
     26 N           2.4758    0.1700   -1.3268 N.3     1  UNL1       -0.2968
     27 C           3.4018    0.5899   -2.3151 C.3     1  UNL1       -0.0121
     28 H           5.8900   -0.3023    1.9405 H       1  UNL1        0.0524
     29 H           6.7791    1.0354    1.0206 H       1  UNL1        0.0524
     30 H           5.2726    1.3588    2.0480 H       1  UNL1        0.0524
     31 H           3.6440   -0.1380    1.6940 H       1  UNL1        0.0612
     32 H           4.3884   -1.8721   -0.4074 H       1  UNL1        0.0306
     33 H           3.0889   -2.1531    0.7906 H       1  UNL1        0.0306
     34 H           2.6718   -1.8667   -1.9383 H       1  UNL1        0.0464
     35 H           0.4474   -1.9978   -1.3242 H       1  UNL1        0.0305
     36 H           1.1118   -2.2207    0.3859 H       1  UNL1        0.0305
     37 H           0.2435    0.3375   -0.9534 H       1  UNL1        0.0597
     38 H          -1.3952    0.6710   -1.0211 H       1  UNL1        0.0697
     39 H          -2.5679    2.6442   -0.9300 H       1  UNL1        0.0622
     40 H          -3.7177    4.3581    0.3978 H       1  UNL1        0.0646
     41 H          -3.7734    1.7695    3.7578 H       1  UNL1        0.0646
     42 H          -2.6391    0.0651    2.4699 H       1  UNL1        0.0622
     43 H          -2.7489   -1.9678    1.2266 H       1  UNL1        0.0622
     44 H          -4.3106   -3.7089    0.4260 H       1  UNL1        0.0646
     45 H          -4.4881   -1.7219   -3.3512 H       1  UNL1        0.0646
     46 H          -2.9658   -0.0306   -2.5555 H       1  UNL1        0.0622
     47 H           1.6115   -0.1540    1.6855 H       1  UNL1        0.0306
     48 H           0.9550    1.4322    1.1437 H       1  UNL1        0.0306
     49 H           2.9198    1.8090   -0.0518 H       1  UNL1        0.0489
     50 H           3.7147   -0.2093   -3.0183 H       1  UNL1        0.0391
     51 H           4.2692    1.1045   -1.8560 H       1  UNL1        0.0391
     52 H           2.9012    1.3637   -2.9527 H       1  UNL1        0.0391
@<TRIPOS>BOND
     1     1     2    1
     2     2     3    1
     3     3     4    1
     4     4     5    1
     5     5     6    1
     6     6     7    1
     7     7     8    1
     8     8     9    1
     9     9    10    1
    10    10    11   ar
    11    11    12   ar
    12    12    13   ar
    13    13    14    1
    14    13    15   ar
    15    15    16   ar
    16     9    17    1
    17    17    18   ar
    18    18    19   ar
    19    19    20   ar
    20    20    21    1
    21    20    22   ar
    22    22    23   ar
    23     7    24    1
    24    24    25    1
    25    25    26    1
    26    26    27    1
    27    25     3    1
    28    26     5    1
    29    16    10   ar
    30    23    17   ar
    31     1    28    1
    32     1    29    1
    33     1    30    1
    34     3    31    1
    35     4    32    1
    36     4    33    1
    37     5    34    1
    38     6    35    1
    39     6    36    1
    40     7    37    1
    41     9    38    1
    42    11    39    1
    43    12    40    1
    44    15    41    1
    45    16    42    1
    46    18    43    1
    47    19    44    1
    48    22    45    1
    49    23    46    1
    50    24    47    1
    51    24    48    1
    52    25    49    1
    53    27    50    1
    54    27    51    1
    55    27    52    1
