
     RDKit          3D

 45 47  0  0  0  0  0  0  0  0999 V2000
    2.2794   -1.2705   -0.6245 C   0  0  2  0  0  0  0  0  0  0  0  0
    2.4218   -2.1527    0.5985 C   0  0  0  0  0  0  0  0  0  0  0  0
    3.5370   -0.9766   -1.1541 O   0  0  0  0  0  0  0  0  0  0  0  0
    1.4806   -0.0377   -0.3694 C   0  0  1  0  0  0  0  0  0  0  0  0
    0.0753   -0.2871    0.0834 C   0  0  0  0  0  0  0  0  0  0  0  0
   -0.7020   -1.0676   -0.9276 C   0  0  0  0  0  0  0  0  0  0  0  0
   -2.1034   -1.3356   -0.5257 C   0  0  0  0  0  0  0  0  0  0  0  0
   -2.4944   -2.5668   -0.0194 C   0  0  0  0  0  0  0  0  0  0  0  0
   -3.7639   -2.9132    0.3945 C   0  0  0  0  0  0  0  0  0  0  0  0
   -4.7449   -1.9279    0.2923 C   0  0  0  0  0  0  0  0  0  0  0  0
   -4.4285   -0.6789   -0.2031 C   0  0  0  0  0  0  0  0  0  0  0  0
   -3.1311   -0.4194   -0.5943 C   0  0  0  0  0  0  0  0  0  0  0  0
   -2.8589    0.8388   -1.0890 C   0  0  0  0  0  0  0  0  0  0  0  0
   -3.8675    1.7751   -1.1740 C   0  0  0  0  0  0  0  0  0  0  0  0
   -5.1611    1.5205   -0.7847 C   0  0  0  0  0  0  0  0  0  0  0  0
   -5.4307    0.2549   -0.2886 C   0  0  0  0  0  0  0  0  0  0  0  0
    2.1936    0.8208    0.5559 N   0  0  0  0  0  0  0  0  0  0  0  0
    2.0350    0.7944    1.8957 C   0  0  0  0  0  0  0  0  0  0  0  0
    2.8579    1.7301    2.4462 N   0  0  0  0  0  0  0  0  0  0  0  0
    3.5003    2.3062    1.4264 C   0  0  0  0  0  0  0  0  0  0  0  0
    3.1158    1.7676    0.2174 C   0  0  0  0  0  0  0  0  0  0  0  0
    4.4903    3.3694    1.5087 C   0  0  0  0  0  0  0  0  0  0  0  0
    5.1406    3.9454    0.3936 N   0  0  0  0  0  0  0  0  0  0  0  0
    4.9182    3.9335    2.5453 O   0  0  0  0  0  0  0  0  0  0  0  0
    1.7897   -1.9028   -1.4156 H   0  0  0  0  0  0  0  0  0  0  0  0
    2.8613   -3.1469    0.3118 H   0  0  0  0  0  0  0  0  0  0  0  0
    3.0866   -1.6720    1.3624 H   0  0  0  0  0  0  0  0  0  0  0  0
    1.4440   -2.3730    1.0382 H   0  0  0  0  0  0  0  0  0  0  0  0
    4.1818   -1.6965   -1.0750 H   0  0  0  0  0  0  0  0  0  0  0  0
    1.4408    0.5191   -1.3471 H   0  0  0  0  0  0  0  0  0  0  0  0
   -0.3962    0.6677    0.3761 H   0  0  0  0  0  0  0  0  0  0  0  0
    0.0476   -0.9048    1.0295 H   0  0  0  0  0  0  0  0  0  0  0  0
   -0.7506   -0.5781   -1.9212 H   0  0  0  0  0  0  0  0  0  0  0  0
   -0.1963   -2.0714   -0.9996 H   0  0  0  0  0  0  0  0  0  0  0  0
   -1.7549   -3.3658    0.0766 H   0  0  0  0  0  0  0  0  0  0  0  0
   -3.9880   -3.8929    0.7771 H   0  0  0  0  0  0  0  0  0  0  0  0
   -5.7623   -2.1292    0.5988 H   0  0  0  0  0  0  0  0  0  0  0  0
   -1.8681    1.1136   -1.4202 H   0  0  0  0  0  0  0  0  0  0  0  0
   -3.6086    2.7600   -1.5719 H   0  0  0  0  0  0  0  0  0  0  0  0
   -5.8781    2.3293   -0.8937 H   0  0  0  0  0  0  0  0  0  0  0  0
   -6.4445    0.0595    0.0153 H   0  0  0  0  0  0  0  0  0  0  0  0
    1.3728    0.1489    2.4632 H   0  0  0  0  0  0  0  0  0  0  0  0
    3.4520    2.0191   -0.7893 H   0  0  0  0  0  0  0  0  0  0  0  0
    5.8403    3.4509   -0.2349 H   0  0  0  0  0  0  0  0  0  0  0  0
    5.7711    3.2425   -0.0431 H   0  0  0  0  0  0  0  0  0  0  0  0
  1  2  1  0
  1  3  1  0
  1  4  1  0
  4  5  1  0
  5  6  1  0
  6  7  1  0
  7  8  2  0
  8  9  1  0
  9 10  2  0
 10 11  1  0
 11 12  2  0
 12 13  1  0
 13 14  2  0
 14 15  1  0
 15 16  2  0
  4 17  1  0
 17 18  1  0
 18 19  2  0
 19 20  1  0
 20 21  2  0
 20 22  1  0
 22 23  1  0
 22 24  2  0
 12  7  1  0
 21 17  1  0
 16 11  1  0
  1 25  1  6
  2 26  1  0
  2 27  1  0
  2 28  1  0
  3 29  1  0
  4 30  1  6
  5 31  1  0
  5 32  1  0
  6 33  1  0
  6 34  1  0
  8 35  1  0
  9 36  1  0
 10 37  1  0
 13 38  1  0
 14 39  1  0
 15 40  1  0
 16 41  1  0
 18 42  1  0
 21 43  1  0
 23 44  1  0
 23 45  1  0
M  END
$$$$
