@<TRIPOS>MOLECULE
*****
 45 47 0 0 0
SMALL
GASTEIGER

@<TRIPOS>ATOM
      1 C           2.2794   -1.2705   -0.6245 C.3     1  UNL1        0.0731
      2 C           2.4218   -2.1527    0.5985 C.3     1  UNL1       -0.0370
      3 O           3.5370   -0.9766   -1.1541 O.3     1  UNL1       -0.3900
      4 C           1.4806   -0.0377   -0.3694 C.3     1  UNL1        0.0613
      5 C           0.0753   -0.2871    0.0834 C.3     1  UNL1       -0.0257
      6 C          -0.7020   -1.0676   -0.9276 C.3     1  UNL1       -0.0251
      7 C          -2.1034   -1.3356   -0.5257 C.ar    1  UNL1       -0.0396
      8 C          -2.4944   -2.5668   -0.0194 C.ar    1  UNL1       -0.0580
      9 C          -3.7639   -2.9132    0.3945 C.ar    1  UNL1       -0.0609
     10 C          -4.7449   -1.9279    0.2923 C.ar    1  UNL1       -0.0540
     11 C          -4.4285   -0.6789   -0.2031 C.ar    1  UNL1       -0.0176
     12 C          -3.1311   -0.4194   -0.5943 C.ar    1  UNL1       -0.0147
     13 C          -2.8589    0.8388   -1.0890 C.ar    1  UNL1       -0.0538
     14 C          -3.8675    1.7751   -1.1740 C.ar    1  UNL1       -0.0612
     15 C          -5.1611    1.5205   -0.7847 C.ar    1  UNL1       -0.0612
     16 C          -5.4307    0.2549   -0.2886 C.ar    1  UNL1       -0.0540
     17 N           2.1936    0.8208    0.5559 N.ar    1  UNL1       -0.3305
     18 C           2.0350    0.7944    1.8957 C.ar    1  UNL1        0.0971
     19 N           2.8579    1.7301    2.4462 N.ar    1  UNL1       -0.2311
     20 C           3.5003    2.3062    1.4264 C.ar    1  UNL1        0.1428
     21 C           3.1158    1.7676    0.2174 C.ar    1  UNL1        0.0368
     22 C           4.4903    3.3694    1.5087 C.2     1  UNL1        0.2613
     23 N           5.1406    3.9454    0.3936 N.am    1  UNL1       -0.3240
     24 O           4.9182    3.9335    2.5453 O.2     1  UNL1       -0.2687
     25 H           1.7897   -1.9028   -1.4156 H       1  UNL1        0.0611
     26 H           2.8613   -3.1469    0.3118 H       1  UNL1        0.0255
     27 H           3.0866   -1.6720    1.3624 H       1  UNL1        0.0255
     28 H           1.4440   -2.3730    1.0382 H       1  UNL1        0.0255
     29 H           4.1818   -1.6965   -1.0750 H       1  UNL1        0.2099
     30 H           1.4408    0.5191   -1.3471 H       1  UNL1        0.0553
     31 H          -0.3962    0.6677    0.3761 H       1  UNL1        0.0289
     32 H           0.0476   -0.9048    1.0295 H       1  UNL1        0.0289
     33 H          -0.7506   -0.5781   -1.9212 H       1  UNL1        0.0314
     34 H          -0.1963   -2.0714   -0.9996 H       1  UNL1        0.0314
     35 H          -1.7549   -3.3658    0.0766 H       1  UNL1        0.0620
     36 H          -3.9880   -3.8929    0.7771 H       1  UNL1        0.0618
     37 H          -5.7623   -2.1292    0.5988 H       1  UNL1        0.0624
     38 H          -1.8681    1.1136   -1.4202 H       1  UNL1        0.0624
     39 H          -3.6086    2.7600   -1.5719 H       1  UNL1        0.0618
     40 H          -5.8781    2.3293   -0.8937 H       1  UNL1        0.0618
     41 H          -6.4445    0.0595    0.0153 H       1  UNL1        0.0624
     42 H           1.3728    0.1489    2.4632 H       1  UNL1        0.1029
     43 H           3.4520    2.0191   -0.7893 H       1  UNL1        0.0833
     44 H           5.8403    3.4509   -0.2349 H       1  UNL1        0.1453
     45 H           5.7711    3.2425   -0.0431 H       1  UNL1        0.1453
@<TRIPOS>BOND
     1     1     2    1
     2     1     3    1
     3     1     4    1
     4     4     5    1
     5     5     6    1
     6     6     7    1
     7     7     8   ar
     8     8     9   ar
     9     9    10   ar
    10    10    11   ar
    11    11    12   ar
    12    12    13   ar
    13    13    14   ar
    14    14    15   ar
    15    15    16   ar
    16     4    17    1
    17    17    18   ar
    18    18    19   ar
    19    19    20   ar
    20    20    21   ar
    21    20    22    1
    22    22    23   am
    23    22    24    2
    24    12     7   ar
    25    21    17   ar
    26    16    11   ar
    27     1    25    1
    28     2    26    1
    29     2    27    1
    30     2    28    1
    31     3    29    1
    32     4    30    1
    33     5    31    1
    34     5    32    1
    35     6    33    1
    36     6    34    1
    37     8    35    1
    38     9    36    1
    39    10    37    1
    40    13    38    1
    41    14    39    1
    42    15    40    1
    43    16    41    1
    44    18    42    1
    45    21    43    1
    46    23    44    1
    47    23    45    1
