
     RDKit          3D

 49 51  0  0  0  0  0  0  0  0999 V2000
    6.1962    0.0964    0.0404 C   0  0  0  0  0  0  0  0  0  0  0  0
    5.4238   -0.3572   -0.9191 C   0  0  0  0  0  0  0  0  0  0  0  0
    3.9909   -0.1447   -1.0756 C   0  0  0  0  0  0  0  0  0  0  0  0
    3.2705    0.6121   -0.1443 C   0  0  0  0  0  0  0  0  0  0  0  0
    1.9137    0.8112   -0.3020 C   0  0  0  0  0  0  0  0  0  0  0  0
    1.2455    0.2721   -1.3723 C   0  0  0  0  0  0  0  0  0  0  0  0
   -0.2192    0.3806   -1.7164 C   0  0  0  0  0  0  0  0  0  0  0  0
   -0.9721   -0.6809   -1.1244 N   0  0  0  0  0  0  0  0  0  0  0  0
   -1.0306   -0.6912    0.2918 C   0  0  0  0  0  0  0  0  0  0  0  0
   -1.8566    0.4208    0.8751 C   0  0  0  0  0  0  0  0  0  0  0  0
   -3.2797    0.4033    0.4941 C   0  0  0  0  0  0  0  0  0  0  0  0
   -4.0447    0.7652   -0.5900 C   0  0  0  0  0  0  0  0  0  0  0  0
   -3.4608    1.3909   -1.8027 C   0  0  0  0  0  0  0  0  0  0  0  0
   -5.3475    0.4951   -0.3937 N   0  0  0  0  0  0  0  0  0  0  0  0
   -5.5288   -0.0548    0.8152 C   0  0  0  0  0  0  0  0  0  0  0  0
   -6.6729   -0.4890    1.4432 C   0  0  0  0  0  0  0  0  0  0  0  0
   -6.5429   -1.0251    2.7218 C   0  0  0  0  0  0  0  0  0  0  0  0
   -5.3051   -1.1091    3.3202 C   0  0  0  0  0  0  0  0  0  0  0  0
   -4.1832   -0.6530    2.6350 C   0  0  0  0  0  0  0  0  0  0  0  0
   -4.2644   -0.1071    1.3498 C   0  0  0  0  0  0  0  0  0  0  0  0
    1.9597   -0.4811   -2.2997 C   0  0  0  0  0  0  0  0  0  0  0  0
    3.3154   -0.6834   -2.1478 C   0  0  0  0  0  0  0  0  0  0  0  0
    7.6207   -0.2166    0.0380 C   0  0  0  0  0  0  0  0  0  0  0  0
    8.1696   -0.9892   -0.9705 O   0  0  0  0  0  0  0  0  0  0  0  0
    8.3882    0.2251    0.9808 N   0  0  0  0  0  0  0  0  0  0  0  0
    7.8534    0.9908    1.9831 O   0  0  0  0  0  0  0  0  0  0  0  0
    5.7332    0.6892    0.7972 H   0  0  0  0  0  0  0  0  0  0  0  0
    5.9263   -0.9658   -1.6858 H   0  0  0  0  0  0  0  0  0  0  0  0
    3.7423    1.0587    0.7158 H   0  0  0  0  0  0  0  0  0  0  0  0
    1.2781    1.3762    0.3599 H   0  0  0  0  0  0  0  0  0  0  0  0
   -0.6106    1.3516   -1.3216 H   0  0  0  0  0  0  0  0  0  0  0  0
   -0.3797    0.3697   -2.8108 H   0  0  0  0  0  0  0  0  0  0  0  0
   -0.9211   -1.5961   -1.5858 H   0  0  0  0  0  0  0  0  0  0  0  0
   -0.0343   -0.6392    0.7902 H   0  0  0  0  0  0  0  0  0  0  0  0
   -1.4856   -1.6851    0.5834 H   0  0  0  0  0  0  0  0  0  0  0  0
   -1.3803    1.3816    0.5562 H   0  0  0  0  0  0  0  0  0  0  0  0
   -1.7783    0.3544    1.9806 H   0  0  0  0  0  0  0  0  0  0  0  0
   -2.7937    2.2178   -1.4914 H   0  0  0  0  0  0  0  0  0  0  0  0
   -3.0086    0.6255   -2.4395 H   0  0  0  0  0  0  0  0  0  0  0  0
   -4.3197    1.8049   -2.4147 H   0  0  0  0  0  0  0  0  0  0  0  0
   -6.0982    0.6894   -1.0882 H   0  0  0  0  0  0  0  0  0  0  0  0
   -7.6202   -0.4054    0.9401 H   0  0  0  0  0  0  0  0  0  0  0  0
   -7.4759   -1.3585    3.1873 H   0  0  0  0  0  0  0  0  0  0  0  0
   -5.2485   -1.5300    4.3101 H   0  0  0  0  0  0  0  0  0  0  0  0
   -3.2244   -0.7366    3.1407 H   0  0  0  0  0  0  0  0  0  0  0  0
    1.5282   -0.9467   -3.1744 H   0  0  0  0  0  0  0  0  0  0  0  0
    3.8854   -1.2675   -2.8621 H   0  0  0  0  0  0  0  0  0  0  0  0
    9.1620   -1.0848   -1.1099 H   0  0  0  0  0  0  0  0  0  0  0  0
    8.4843    1.5950    2.4926 H   0  0  0  0  0  0  0  0  0  0  0  0
  1  2  2  0
  2  3  1  0
  3  4  2  0
  4  5  1  0
  5  6  2  0
  6  7  1  0
  7  8  1  0
  8  9  1  0
  9 10  1  0
 10 11  1  0
 11 12  2  0
 12 13  1  0
 12 14  1  0
 14 15  1  0
 15 16  2  0
 16 17  1  0
 17 18  2  0
 18 19  1  0
 19 20  2  0
  6 21  1  0
 21 22  2  0
  1 23  1  0
 23 24  1  0
 23 25  2  0
 25 26  1  0
 22  3  1  0
 20 11  1  0
 20 15  1  0
  1 27  1  0
  2 28  1  0
  4 29  1  0
  5 30  1  0
  7 31  1  0
  7 32  1  0
  8 33  1  0
  9 34  1  0
  9 35  1  0
 10 36  1  0
 10 37  1  0
 13 38  1  0
 13 39  1  0
 13 40  1  0
 14 41  1  0
 16 42  1  0
 17 43  1  0
 18 44  1  0
 19 45  1  0
 21 46  1  0
 22 47  1  0
 24 48  1  0
 26 49  1  0
M  END
$$$$
