@<TRIPOS>MOLECULE
*****
 49 51 0 0 0
SMALL
GASTEIGER

@<TRIPOS>ATOM
      1 C           6.1962    0.0964    0.0404 C.2     1  UNL1        0.0033
      2 C           5.4238   -0.3572   -0.9191 C.2     1  UNL1       -0.0495
      3 C           3.9909   -0.1447   -1.0756 C.ar    1  UNL1       -0.0248
      4 C           3.2705    0.6121   -0.1443 C.ar    1  UNL1       -0.0543
      5 C           1.9137    0.8112   -0.3020 C.ar    1  UNL1       -0.0568
      6 C           1.2455    0.2721   -1.3723 C.ar    1  UNL1       -0.0335
      7 C          -0.2192    0.3806   -1.7164 C.3     1  UNL1        0.0213
      8 N          -0.9721   -0.6809   -1.1244 N.3     1  UNL1       -0.3117
      9 C          -1.0306   -0.6912    0.2918 C.3     1  UNL1        0.0002
     10 C          -1.8566    0.4208    0.8751 C.3     1  UNL1       -0.0129
     11 C          -3.2797    0.4033    0.4941 C.ar    1  UNL1       -0.0182
     12 C          -4.0447    0.7652   -0.5900 C.ar    1  UNL1        0.0171
     13 C          -3.4608    1.3909   -1.8027 C.3     1  UNL1       -0.0242
     14 N          -5.3475    0.4951   -0.3937 N.ar    1  UNL1       -0.3579
     15 C          -5.5288   -0.0548    0.8152 C.ar    1  UNL1        0.0469
     16 C          -6.6729   -0.4890    1.4432 C.ar    1  UNL1       -0.0378
     17 C          -6.5429   -1.0251    2.7218 C.ar    1  UNL1       -0.0598
     18 C          -5.3051   -1.1091    3.3202 C.ar    1  UNL1       -0.0611
     19 C          -4.1832   -0.6530    2.6350 C.ar    1  UNL1       -0.0523
     20 C          -4.2644   -0.1071    1.3498 C.ar    1  UNL1        0.0031
     21 C           1.9597   -0.4811   -2.2997 C.ar    1  UNL1       -0.0568
     22 C           3.3154   -0.6834   -2.1478 C.ar    1  UNL1       -0.0543
     23 C           7.6207   -0.2166    0.0380 C.2     1  UNL1        0.2484
     24 O           8.1696   -0.9892   -0.9705 O.2     1  UNL1       -0.4905
     25 N           8.3882    0.2251    0.9808 N.2     1  UNL1       -0.0486
     26 O           7.8534    0.9908    1.9831 O.2     1  UNL1       -0.4064
     27 H           5.7332    0.6892    0.7972 H       1  UNL1        0.0672
     28 H           5.9263   -0.9658   -1.6858 H       1  UNL1        0.0625
     29 H           3.7423    1.0587    0.7158 H       1  UNL1        0.0624
     30 H           1.2781    1.3762    0.3599 H       1  UNL1        0.0621
     31 H          -0.6106    1.3516   -1.3216 H       1  UNL1        0.0473
     32 H          -0.3797    0.3697   -2.8108 H       1  UNL1        0.0473
     33 H          -0.9211   -1.5961   -1.5858 H       1  UNL1        0.1223
     34 H          -0.0343   -0.6392    0.7902 H       1  UNL1        0.0427
     35 H          -1.4856   -1.6851    0.5834 H       1  UNL1        0.0427
     36 H          -1.3803    1.3816    0.5562 H       1  UNL1        0.0326
     37 H          -1.7783    0.3544    1.9806 H       1  UNL1        0.0326
     38 H          -2.7937    2.2178   -1.4914 H       1  UNL1        0.0292
     39 H          -3.0086    0.6255   -2.4395 H       1  UNL1        0.0292
     40 H          -4.3197    1.8049   -2.4147 H       1  UNL1        0.0292
     41 H          -6.0982    0.6894   -1.0882 H       1  UNL1        0.1656
     42 H          -7.6202   -0.4054    0.9401 H       1  UNL1        0.0638
     43 H          -7.4759   -1.3585    3.1873 H       1  UNL1        0.0618
     44 H          -5.2485   -1.5300    4.3101 H       1  UNL1        0.0618
     45 H          -3.2244   -0.7366    3.1407 H       1  UNL1        0.0624
     46 H           1.5282   -0.9467   -3.1744 H       1  UNL1        0.0621
     47 H           3.8854   -1.2675   -2.8621 H       1  UNL1        0.0624
     48 H           9.1620   -1.0848   -1.1099 H       1  UNL1        0.2938
     49 H           8.4843    1.5950    2.4926 H       1  UNL1        0.3279
@<TRIPOS>BOND
     1     1     2    2
     2     2     3    1
     3     3     4   ar
     4     4     5   ar
     5     5     6   ar
     6     6     7    1
     7     7     8    1
     8     8     9    1
     9     9    10    1
    10    10    11    1
    11    11    12   ar
    12    12    13    1
    13    12    14   ar
    14    14    15   ar
    15    15    16   ar
    16    16    17   ar
    17    17    18   ar
    18    18    19   ar
    19    19    20   ar
    20     6    21   ar
    21    21    22   ar
    22     1    23    1
    23    23    24    1
    24    23    25    2
    25    25    26    1
    26    22     3   ar
    27    20    11   ar
    28    20    15   ar
    29     1    27    1
    30     2    28    1
    31     4    29    1
    32     5    30    1
    33     7    31    1
    34     7    32    1
    35     8    33    1
    36     9    34    1
    37     9    35    1
    38    10    36    1
    39    10    37    1
    40    13    38    1
    41    13    39    1
    42    13    40    1
    43    14    41    1
    44    16    42    1
    45    17    43    1
    46    18    44    1
    47    19    45    1
    48    21    46    1
    49    22    47    1
    50    24    48    1
    51    26    49    1
