@<TRIPOS>MOLECULE
*****
 58 60 0 0 0
SMALL
GASTEIGER

@<TRIPOS>ATOM
      1 C          -7.9412    0.4902   -0.3889 C.3     1  UNL1       -0.0157
      2 N          -7.1332   -0.6400    0.0090 N.3     1  UNL1       -0.3178
      3 C          -6.3541   -0.3069    1.2143 C.3     1  UNL1        0.0084
      4 C          -5.3118    0.7257    0.9049 C.3     1  UNL1        0.0115
      5 N          -4.5234    1.0715    2.0653 N.3     1  UNL1       -0.3000
      6 C          -3.6433    2.2038    1.7176 C.3     1  UNL1       -0.0124
      7 C          -3.6730   -0.0262    2.5254 C.3     1  UNL1        0.0238
      8 C          -2.6407   -0.4094    1.5477 C.ar    1  UNL1       -0.0333
      9 C          -2.8817   -1.3918    0.6275 C.ar    1  UNL1       -0.0566
     10 C          -1.9000   -1.7235   -0.2797 C.ar    1  UNL1       -0.0493
     11 C          -0.6806   -1.0975   -0.2914 C.ar    1  UNL1        0.0370
     12 C           0.2999   -1.5386   -1.3089 C.2     1  UNL1        0.2483
     13 O          -0.0227   -2.5093   -2.0211 O.2     1  UNL1       -0.2699
     14 N           1.5552   -0.9171   -1.4992 N.am    1  UNL1       -0.2808
     15 C           2.5467   -1.2616   -2.4438 C.ar    1  UNL1        0.0459
     16 C           2.1969   -1.9545   -3.6213 C.ar    1  UNL1       -0.0384
     17 C           3.1518   -2.3114   -4.5440 C.ar    1  UNL1       -0.0416
     18 C           4.4435   -1.9873   -4.3090 C.ar    1  UNL1        0.0418
     19 CL          5.6623   -2.4389   -5.4822 Cl      1  UNL1       -0.0835
     20 C           4.8107   -1.3014   -3.1495 C.ar    1  UNL1       -0.0295
     21 C           3.8551   -0.9324   -2.2021 C.ar    1  UNL1        0.0596
     22 C           4.3462   -0.2735   -1.0259 C.2     1  UNL1        0.2511
     23 O           3.5939   -0.0406   -0.0464 O.2     1  UNL1       -0.2697
     24 N           5.6840    0.1821   -0.8257 N.am    1  UNL1       -0.2663
     25 C           6.1221    0.8351    0.3601 C.ar    1  UNL1        0.1252
     26 C           6.6319    0.1885    1.4636 C.ar    1  UNL1       -0.0201
     27 C           7.0561    0.8113    2.5964 C.ar    1  UNL1       -0.0387
     28 C           6.9736    2.1967    2.6565 C.ar    1  UNL1        0.0592
     29 CL          7.5031    3.0667    4.0895 Cl      1  UNL1       -0.0820
     30 C           6.4644    2.8510    1.5567 C.ar    1  UNL1        0.0480
     31 N           6.0497    2.1854    0.4377 N.ar    1  UNL1       -0.2387
     32 C          -0.4189   -0.1140    0.6189 C.ar    1  UNL1       -0.0493
     33 C          -1.4277    0.2106    1.5338 C.ar    1  UNL1       -0.0566
     34 H          -8.5881    0.2164   -1.2288 H       1  UNL1        0.0388
     35 H          -8.5534    0.8131    0.4655 H       1  UNL1        0.0388
     36 H          -7.2743    1.3103   -0.7637 H       1  UNL1        0.0388
     37 H          -6.4803   -0.9414   -0.7383 H       1  UNL1        0.1217
     38 H          -5.8664   -1.2108    1.6030 H       1  UNL1        0.0436
     39 H          -7.1014    0.0591    1.9590 H       1  UNL1        0.0436
     40 H          -4.6284    0.3249    0.1209 H       1  UNL1        0.0439
     41 H          -5.7508    1.6806    0.5365 H       1  UNL1        0.0439
     42 H          -3.0319    1.9444    0.8504 H       1  UNL1        0.0391
     43 H          -4.3236    3.0753    1.4917 H       1  UNL1        0.0391
     44 H          -3.0421    2.4743    2.6086 H       1  UNL1        0.0391
     45 H          -4.3393   -0.8480    2.8386 H       1  UNL1        0.0476
     46 H          -3.1618    0.3374    3.4470 H       1  UNL1        0.0476
     47 H          -3.8551   -1.9136    0.6176 H       1  UNL1        0.0621
     48 H          -2.1670   -2.5244   -0.9910 H       1  UNL1        0.0625
     49 H           1.7069   -0.0827   -0.8605 H       1  UNL1        0.1552
     50 H           1.1512   -2.1758   -3.7745 H       1  UNL1        0.0637
     51 H           2.8410   -2.8394   -5.4280 H       1  UNL1        0.0633
     52 H           5.8329   -1.0766   -3.0171 H       1  UNL1        0.0640
     53 H           6.3768    0.0400   -1.5708 H       1  UNL1        0.1566
     54 H           6.6875   -0.8947    1.3951 H       1  UNL1        0.0652
     55 H           7.4569    0.3082    3.4640 H       1  UNL1        0.0634
     56 H           6.4011    3.9320    1.6053 H       1  UNL1        0.0845
     57 H           0.5158    0.3842    0.6325 H       1  UNL1        0.0625
     58 H          -1.2007    0.9944    2.2510 H       1  UNL1        0.0621
@<TRIPOS>BOND
     1     1     2    1
     2     2     3    1
     3     3     4    1
     4     4     5    1
     5     5     6    1
     6     5     7    1
     7     7     8    1
     8     8     9   ar
     9     9    10   ar
    10    10    11   ar
    11    11    12    1
    12    12    13    2
    13    12    14   am
    14    14    15    1
    15    15    16   ar
    16    16    17   ar
    17    17    18   ar
    18    18    19    1
    19    18    20   ar
    20    20    21   ar
    21    21    22    1
    22    22    23    2
    23    22    24   am
    24    24    25    1
    25    25    26   ar
    26    26    27   ar
    27    27    28   ar
    28    28    29    1
    29    28    30   ar
    30    30    31   ar
    31    11    32   ar
    32    32    33   ar
    33    33     8   ar
    34    21    15   ar
    35    31    25   ar
    36     1    34    1
    37     1    35    1
    38     1    36    1
    39     2    37    1
    40     3    38    1
    41     3    39    1
    42     4    40    1
    43     4    41    1
    44     6    42    1
    45     6    43    1
    46     6    44    1
    47     7    45    1
    48     7    46    1
    49     9    47    1
    50    10    48    1
    51    14    49    1
    52    16    50    1
    53    17    51    1
    54    20    52    1
    55    24    53    1
    56    26    54    1
    57    27    55    1
    58    30    56    1
    59    32    57    1
    60    33    58    1
