@<TRIPOS>MOLECULE
*****
 45 48 0 0 0
SMALL
GASTEIGER

@<TRIPOS>ATOM
      1 C          -3.3632   -2.4412    1.6608 C.3     1  UNL1        0.0573
      2 N          -2.9083   -1.3095    0.8283 N.am    1  UNL1       -0.1614
      3 C          -1.8638   -0.3666    1.1246 C.2     1  UNL1        0.3303
      4 O          -1.1847   -0.3080    2.1349 O.2     1  UNL1       -0.2520
      5 C          -1.7014    0.5625   -0.0504 C.3     1  UNL1        0.2647
      6 C          -1.9860    1.9488    0.2093 C.ar    1  UNL1        0.0135
      7 C          -1.9735    2.5606    1.4005 C.ar    1  UNL1       -0.0359
      8 C          -2.3016    3.9240    1.5881 C.ar    1  UNL1        0.0280
      9 N          -2.6380    4.6174    0.5248 N.ar    1  UNL1       -0.2632
     10 C          -2.6875    4.0716   -0.6986 C.ar    1  UNL1        0.0280
     11 C          -2.3699    2.7494   -0.8910 C.ar    1  UNL1       -0.0359
     12 C          -0.4075    0.1905   -0.6701 C.ar    1  UNL1        0.0112
     13 C          -0.4931   -0.5039   -1.8960 C.ar    1  UNL1       -0.0540
     14 C           0.6422   -1.0532   -2.4515 C.ar    1  UNL1       -0.0608
     15 C           1.7950   -0.8811   -1.7662 C.ar    1  UNL1       -0.0540
     16 C           1.9781   -0.2439   -0.5854 C.ar    1  UNL1       -0.0174
     17 C           3.1410   -0.5281    0.2447 C.ar    1  UNL1       -0.0167
     18 C           3.4101   -1.8934    0.4364 C.ar    1  UNL1       -0.0540
     19 C           4.5709   -2.3326    0.9977 C.ar    1  UNL1       -0.0600
     20 C           5.5314   -1.4996    1.4079 C.ar    1  UNL1       -0.0443
     21 C           5.2681   -0.0595    1.2231 C.ar    1  UNL1        0.0523
     22 C           6.5008    0.6914    1.3588 C.1     1  UNL1        0.0992
     23 N           7.5952    1.3385    1.4820 N.1     1  UNL1       -0.1909
     24 C           4.1367    0.3629    0.6755 C.ar    1  UNL1       -0.0366
     25 C           0.7998    0.3289   -0.0314 C.ar    1  UNL1       -0.0463
     26 N          -2.7880    0.0809   -0.9094 N.2     1  UNL1       -0.0891
     27 C          -3.4068   -0.9280   -0.4229 C.2     1  UNL1        0.3731
     28 N          -4.4739   -1.6345   -1.1262 N.pl3   1  UNL1       -0.2512
     29 H          -2.5688   -2.5847    2.3754 H       1  UNL1        0.0602
     30 H          -4.3135   -2.1645    2.1428 H       1  UNL1        0.0602
     31 H          -3.5434   -3.3118    0.9963 H       1  UNL1        0.0602
     32 H          -1.6845    2.0191    2.2583 H       1  UNL1        0.0637
     33 H          -2.2885    4.3924    2.5626 H       1  UNL1        0.0829
     34 H          -2.9692    4.7087   -1.5028 H       1  UNL1        0.0829
     35 H          -2.4053    2.3228   -1.8909 H       1  UNL1        0.0637
     36 H          -1.4460   -0.6183   -2.3738 H       1  UNL1        0.0622
     37 H           0.5609   -1.6207   -3.3952 H       1  UNL1        0.0618
     38 H           2.7203   -1.3520   -2.2394 H       1  UNL1        0.0624
     39 H           2.6293   -2.5997    0.1478 H       1  UNL1        0.0624
     40 H           4.7503   -3.4105    1.1144 H       1  UNL1        0.0618
     41 H           6.4801   -1.7735    1.8513 H       1  UNL1        0.0630
     42 H           4.0099    1.4218    0.4876 H       1  UNL1        0.0636
     43 H           0.8717    0.8374    0.9062 H       1  UNL1        0.0628
     44 H          -4.2397   -2.5493   -1.5240 H       1  UNL1        0.2412
     45 H          -5.3854   -1.1614   -1.2146 H       1  UNL1        0.2412
@<TRIPOS>BOND
     1     1     2    1
     2     2     3   am
     3     3     4    2
     4     3     5    1
     5     5     6    1
     6     6     7   ar
     7     7     8   ar
     8     8     9   ar
     9     9    10   ar
    10    10    11   ar
    11     5    12    1
    12    12    13   ar
    13    13    14   ar
    14    14    15   ar
    15    15    16   ar
    16    16    17    1
    17    17    18   ar
    18    18    19   ar
    19    19    20   ar
    20    20    21   ar
    21    21    22    1
    22    22    23    3
    23    21    24   ar
    24    16    25   ar
    25     5    26    1
    26    26    27    2
    27    27    28    1
    28    27     2    1
    29    11     6   ar
    30    25    12   ar
    31    24    17   ar
    32     1    29    1
    33     1    30    1
    34     1    31    1
    35     7    32    1
    36     8    33    1
    37    10    34    1
    38    11    35    1
    39    13    36    1
    40    14    37    1
    41    15    38    1
    42    18    39    1
    43    19    40    1
    44    20    41    1
    45    24    42    1
    46    25    43    1
    47    28    44    1
    48    28    45    1
