@<TRIPOS>MOLECULE
*****
 75 79 0 0 0
SMALL
GASTEIGER

@<TRIPOS>ATOM
      1 O           4.8996   -0.2336   -2.6071 O.3     1  UNL1       -0.3875
      2 C           5.8755    0.2641   -1.7827 C.3     1  UNL1        0.1013
      3 C           5.4253    0.9337   -0.5352 C.3     1  UNL1        0.0652
      4 N           4.4888    1.9706   -0.7602 N.3     1  UNL1       -0.3031
      5 C           3.2277    1.6211   -1.2756 C.3     1  UNL1        0.0421
      6 C           2.5212    0.5817   -0.4451 C.ar    1  UNL1        0.0966
      7 C           1.6702    0.8124    0.6150 C.ar    1  UNL1        0.0503
      8 N           1.2291   -0.3631    1.1099 N.ar    1  UNL1       -0.2471
      9 C           0.3065   -0.5430    2.2417 C.3     1  UNL1        0.0684
     10 C          -1.0526   -0.5534    1.6712 C.ar    1  UNL1       -0.0192
     11 C          -1.6713   -1.7124    1.2554 C.ar    1  UNL1       -0.0148
     12 C          -2.9430   -1.7097    0.7230 C.ar    1  UNL1        0.1248
     13 O          -3.5806   -2.8614    0.3002 O.3     1  UNL1       -0.4872
     14 C          -4.8674   -2.8194   -0.2335 C.3     1  UNL1        0.1146
     15 C          -5.3312   -4.1808   -0.6117 C.ar    1  UNL1       -0.0104
     16 C          -5.1014   -4.6919   -1.8735 C.ar    1  UNL1       -0.0554
     17 C          -5.5335   -5.9518   -2.2153 C.ar    1  UNL1       -0.0614
     18 C          -6.2080   -6.7483   -1.3185 C.ar    1  UNL1       -0.0617
     19 C          -6.4363   -6.2416   -0.0663 C.ar    1  UNL1       -0.0614
     20 C          -6.0107   -4.9768    0.2995 C.ar    1  UNL1       -0.0554
     21 C          -3.6008   -0.5071    0.6099 C.ar    1  UNL1        0.0218
     22 C          -3.0018    0.6666    1.0195 C.ar    1  UNL1        0.1248
     23 O          -3.6211    1.9006    0.9269 O.3     1  UNL1       -0.4872
     24 C          -4.9031    2.1111    0.4182 C.3     1  UNL1        0.1146
     25 C          -5.2162    3.5549    0.4819 C.ar    1  UNL1       -0.0104
     26 C          -4.9120    4.3968   -0.5735 C.ar    1  UNL1       -0.0554
     27 C          -5.2076    5.7419   -0.5050 C.ar    1  UNL1       -0.0614
     28 C          -5.8145    6.2848    0.6173 C.ar    1  UNL1       -0.0617
     29 C          -6.1258    5.4491    1.6859 C.ar    1  UNL1       -0.0614
     30 C          -5.8183    4.1000    1.5923 C.ar    1  UNL1       -0.0554
     31 C          -1.7272    0.6399    1.5498 C.ar    1  UNL1       -0.0148
     32 N           1.7939   -1.3040    0.3730 N.ar    1  UNL1       -0.0651
     33 N           2.5693   -0.7559   -0.5609 N.ar    1  UNL1       -0.1332
     34 C           6.6668    1.5384    0.1485 C.3     1  UNL1        0.1013
     35 O           6.2859    2.2796    1.2642 O.3     1  UNL1       -0.3875
     36 C           7.6162    0.4243    0.5192 C.3     1  UNL1        0.1108
     37 O           8.6806    0.8888    1.2494 O.3     1  UNL1       -0.3865
     38 C           8.0730   -0.1850   -0.8158 C.3     1  UNL1        0.1117
     39 O           9.1521   -1.0193   -0.6646 O.3     1  UNL1       -0.3865
     40 C           6.8474   -0.8658   -1.3777 C.3     1  UNL1        0.1108
     41 O           7.1255   -1.6994   -2.4338 O.3     1  UNL1       -0.3865
     42 H           5.0895    0.0455   -3.5323 H       1  UNL1        0.2100
     43 H           6.5500    0.9988   -2.3167 H       1  UNL1        0.0636
     44 H           5.0246    0.1498    0.1844 H       1  UNL1        0.0513
     45 H           4.4915    2.6856   -0.0086 H       1  UNL1        0.1227
     46 H           3.2823    1.2303   -2.2996 H       1  UNL1        0.0490
     47 H           2.5656    2.5501   -1.3134 H       1  UNL1        0.0490
     48 H           1.3880    1.7782    1.0044 H       1  UNL1        0.0846
     49 H           0.5751   -1.5386    2.6787 H       1  UNL1        0.0559
     50 H           0.4571    0.2280    3.0100 H       1  UNL1        0.0559
     51 H          -1.1788   -2.6840    1.3303 H       1  UNL1        0.0657
     52 H          -5.5821   -2.3988    0.5151 H       1  UNL1        0.0748
     53 H          -4.9182   -2.1702   -1.1486 H       1  UNL1        0.0748
     54 H          -4.5701   -4.0824   -2.6011 H       1  UNL1        0.0621
     55 H          -5.3488   -6.3450   -3.2078 H       1  UNL1        0.0618
     56 H          -6.5504   -7.7510   -1.5951 H       1  UNL1        0.0618
     57 H          -6.9667   -6.8486    0.6624 H       1  UNL1        0.0618
     58 H          -6.1793   -4.5546    1.2827 H       1  UNL1        0.0621
     59 H          -4.6081   -0.4132    0.2008 H       1  UNL1        0.0691
     60 H          -4.9196    1.7659   -0.6397 H       1  UNL1        0.0748
     61 H          -5.6589    1.5433    1.0214 H       1  UNL1        0.0748
     62 H          -4.4387    3.9274   -1.4288 H       1  UNL1        0.0621
     63 H          -4.9579    6.3687   -1.3433 H       1  UNL1        0.0618
     64 H          -6.0473    7.3439    0.6713 H       1  UNL1        0.0618
     65 H          -6.6003    5.8282    2.5829 H       1  UNL1        0.0618
     66 H          -6.0641    3.4387    2.4365 H       1  UNL1        0.0621
     67 H          -1.2535    1.5730    1.8743 H       1  UNL1        0.0657
     68 H           7.1592    2.1508   -0.6331 H       1  UNL1        0.0636
     69 H           6.3359    1.7186    2.0933 H       1  UNL1        0.2100
     70 H           7.0224   -0.3302    1.0938 H       1  UNL1        0.0646
     71 H           8.9169    0.2305    1.9291 H       1  UNL1        0.2100
     72 H           8.3118    0.7077   -1.4647 H       1  UNL1        0.0647
     73 H           9.5793   -0.7980    0.2201 H       1  UNL1        0.2100
     74 H           6.3276   -1.3921   -0.5292 H       1  UNL1        0.0646
     75 H           6.9961   -1.1931   -3.2855 H       1  UNL1        0.2100
@<TRIPOS>BOND
     1     1     2    1
     2     2     3    1
     3     3     4    1
     4     4     5    1
     5     5     6    1
     6     6     7   ar
     7     7     8   ar
     8     8     9    1
     9     9    10    1
    10    10    11   ar
    11    11    12   ar
    12    12    13    1
    13    13    14    1
    14    14    15    1
    15    15    16   ar
    16    16    17   ar
    17    17    18   ar
    18    18    19   ar
    19    19    20   ar
    20    12    21   ar
    21    21    22   ar
    22    22    23    1
    23    23    24    1
    24    24    25    1
    25    25    26   ar
    26    26    27   ar
    27    27    28   ar
    28    28    29   ar
    29    29    30   ar
    30    22    31   ar
    31     8    32   ar
    32    32    33   ar
    33     3    34    1
    34    34    35    1
    35    34    36    1
    36    36    37    1
    37    36    38    1
    38    38    39    1
    39    38    40    1
    40    40    41    1
    41    40     2    1
    42    33     6   ar
    43    31    10   ar
    44    20    15   ar
    45    30    25   ar
    46     1    42    1
    47     2    43    1
    48     3    44    1
    49     4    45    1
    50     5    46    1
    51     5    47    1
    52     7    48    1
    53     9    49    1
    54     9    50    1
    55    11    51    1
    56    14    52    1
    57    14    53    1
    58    16    54    1
    59    17    55    1
    60    18    56    1
    61    19    57    1
    62    20    58    1
    63    21    59    1
    64    24    60    1
    65    24    61    1
    66    26    62    1
    67    27    63    1
    68    28    64    1
    69    29    65    1
    70    30    66    1
    71    31    67    1
    72    34    68    1
    73    35    69    1
    74    36    70    1
    75    37    71    1
    76    38    72    1
    77    39    73    1
    78    40    74    1
    79    41    75    1
