@<TRIPOS>MOLECULE
*****
 59 62 0 0 0
SMALL
GASTEIGER

@<TRIPOS>ATOM
      1 C          -7.1747    1.1709    0.3597 C.3     1  UNL1       -0.0288
      2 C          -6.5595   -0.1011   -0.1926 C.3     1  UNL1        0.1831
      3 C          -7.6841   -1.1204   -0.2344 C.3     1  UNL1       -0.0288
      4 C          -5.5213   -0.5735    0.7281 C.2     1  UNL1        0.3068
      5 N          -5.9978   -1.1019    1.9885 N.pl3   1  UNL1       -0.2488
      6 N          -4.3009   -0.5504    0.5050 N.2     1  UNL1       -0.0698
      7 C          -3.4930   -0.1226   -0.5735 C.3     1  UNL1        0.2263
      8 C          -2.8681   -1.3386   -1.2298 C.3     1  UNL1        0.1433
      9 F          -2.0822   -1.0278   -2.3186 F       1  UNL1       -0.2438
     10 C          -2.3967    0.7877   -0.1010 C.ar    1  UNL1        0.0448
     11 C          -1.0719    0.4719   -0.2643 C.ar    1  UNL1       -0.0300
     12 C          -0.1208    1.3877    0.2233 C.ar    1  UNL1        0.0343
     13 N           1.2580    1.0843    0.0662 N.am    1  UNL1       -0.2802
     14 C           2.0060    0.3642    1.0230 C.2     1  UNL1        0.2681
     15 O           1.4563   -0.0379    2.0666 O.2     1  UNL1       -0.2681
     16 C           3.4059    0.0975    0.7862 C.ar    1  UNL1        0.1439
     17 C           4.1336   -0.5996    1.7082 C.ar    1  UNL1        0.0619
     18 N           5.4449   -0.8454    1.4781 N.ar    1  UNL1       -0.2177
     19 C           6.0302   -0.4033    0.3426 C.ar    1  UNL1        0.2335
     20 O           7.3702   -0.6499    0.0990 O.3     1  UNL1       -0.4751
     21 C           8.1147   -1.3718    1.0583 C.3     1  UNL1        0.0941
     22 C           9.5299   -1.4835    0.5235 C.3     1  UNL1       -0.0067
     23 C          10.3361   -0.2906    0.2394 C.3     1  UNL1       -0.0468
     24 C           9.7911   -1.0643   -0.9038 C.3     1  UNL1       -0.0468
     25 C           5.3145    0.3014   -0.5997 C.ar    1  UNL1        0.0899
     26 N           4.0140    0.5338   -0.3503 N.ar    1  UNL1       -0.2435
     27 C          -0.5090    2.5542    0.8404 C.ar    1  UNL1       -0.0377
     28 C          -1.8476    2.8716    1.0054 C.ar    1  UNL1       -0.0243
     29 C          -2.7814    1.9574    0.5185 C.ar    1  UNL1        0.1312
     30 F          -4.0963    2.2127    0.6623 F       1  UNL1       -0.2050
     31 C          -4.2116    0.6123   -1.6830 C.3     1  UNL1        0.1211
     32 S          -5.9045    0.1325   -1.8050 S.O2    1  UNL1       -0.0100
     33 O          -5.9727   -1.1339   -2.6304 O.2     1  UNL1       -0.1731
     34 O          -6.7260    1.1631   -2.5341 O.2     1  UNL1       -0.1731
     35 H          -8.2762    1.1746    0.2326 H       1  UNL1        0.0256
     36 H          -6.9823    1.1823    1.4500 H       1  UNL1        0.0256
     37 H          -6.6816    2.0541   -0.0832 H       1  UNL1        0.0256
     38 H          -8.5156   -0.6412   -0.8050 H       1  UNL1        0.0256
     39 H          -8.0415   -1.2832    0.7926 H       1  UNL1        0.0256
     40 H          -7.3898   -2.0440   -0.7599 H       1  UNL1        0.0256
     41 H          -6.4519   -2.0308    2.0048 H       1  UNL1        0.2881
     42 H          -5.8733   -0.5402    2.8392 H       1  UNL1        0.2881
     43 H          -2.3195   -1.9652   -0.4928 H       1  UNL1        0.0666
     44 H          -3.7006   -1.9757   -1.6122 H       1  UNL1        0.0666
     45 H          -0.7341   -0.4382   -0.7311 H       1  UNL1        0.0641
     46 H           1.7522    1.4068   -0.7988 H       1  UNL1        0.1552
     47 H           3.6416   -0.9458    2.6153 H       1  UNL1        0.0854
     48 H           7.6645   -2.3609    1.1799 H       1  UNL1        0.0700
     49 H           8.1316   -0.8545    2.0453 H       1  UNL1        0.0700
     50 H          10.0695   -2.3829    0.8978 H       1  UNL1        0.0334
     51 H           9.9023    0.7437    0.3419 H       1  UNL1        0.0269
     52 H          11.4306   -0.3175    0.4080 H       1  UNL1        0.0269
     53 H          10.4661   -1.7581   -1.4760 H       1  UNL1        0.0269
     54 H           8.9654   -0.6875   -1.5207 H       1  UNL1        0.0269
     55 H           5.8367    0.6279   -1.4859 H       1  UNL1        0.0884
     56 H           0.2366    3.2253    1.1976 H       1  UNL1        0.0637
     57 H          -2.1738    3.7840    1.4883 H       1  UNL1        0.0647
     58 H          -4.1596    1.7020   -1.5327 H       1  UNL1        0.0551
     59 H          -3.6829    0.4383   -2.6683 H       1  UNL1        0.0551
@<TRIPOS>BOND
     1     1     2    1
     2     2     3    1
     3     2     4    1
     4     4     5    1
     5     4     6    2
     6     6     7    1
     7     7     8    1
     8     8     9    1
     9     7    10    1
    10    10    11   ar
    11    11    12   ar
    12    12    13    1
    13    13    14   am
    14    14    15    2
    15    14    16    1
    16    16    17   ar
    17    17    18   ar
    18    18    19   ar
    19    19    20    1
    20    20    21    1
    21    21    22    1
    22    22    23    1
    23    23    24    1
    24    19    25   ar
    25    25    26   ar
    26    12    27   ar
    27    27    28   ar
    28    28    29   ar
    29    29    30    1
    30     7    31    1
    31    31    32    1
    32    32    33    2
    33    32    34    2
    34    32     2    1
    35    29    10   ar
    36    26    16   ar
    37    24    22    1
    38     1    35    1
    39     1    36    1
    40     1    37    1
    41     3    38    1
    42     3    39    1
    43     3    40    1
    44     5    41    1
    45     5    42    1
    46     8    43    1
    47     8    44    1
    48    11    45    1
    49    13    46    1
    50    17    47    1
    51    21    48    1
    52    21    49    1
    53    22    50    1
    54    23    51    1
    55    23    52    1
    56    24    53    1
    57    24    54    1
    58    25    55    1
    59    27    56    1
    60    28    57    1
    61    31    58    1
    62    31    59    1
