
     RDKit          3D

 59 62  0  0  0  0  0  0  0  0999 V2000
   -7.1747    1.1709    0.3597 C   0  0  0  0  0  0  0  0  0  0  0  0
   -6.5595   -0.1011   -0.1926 C   0  0  0  0  0  0  0  0  0  0  0  0
   -7.6841   -1.1204   -0.2344 C   0  0  0  0  0  0  0  0  0  0  0  0
   -5.5213   -0.5735    0.7281 C   0  0  0  0  0  0  0  0  0  0  0  0
   -5.9978   -1.1019    1.9885 N   0  0  0  0  0  0  0  0  0  0  0  0
   -4.3009   -0.5504    0.5050 N   0  0  0  0  0  0  0  0  0  0  0  0
   -3.4930   -0.1226   -0.5735 C   0  0  2  0  0  0  0  0  0  0  0  0
   -2.8681   -1.3386   -1.2298 C   0  0  0  0  0  0  0  0  0  0  0  0
   -2.0822   -1.0278   -2.3186 F   0  0  0  0  0  0  0  0  0  0  0  0
   -2.3967    0.7877   -0.1010 C   0  0  0  0  0  0  0  0  0  0  0  0
   -1.0719    0.4719   -0.2643 C   0  0  0  0  0  0  0  0  0  0  0  0
   -0.1208    1.3877    0.2233 C   0  0  0  0  0  0  0  0  0  0  0  0
    1.2580    1.0843    0.0662 N   0  0  0  0  0  0  0  0  0  0  0  0
    2.0060    0.3642    1.0230 C   0  0  0  0  0  0  0  0  0  0  0  0
    1.4563   -0.0379    2.0666 O   0  0  0  0  0  0  0  0  0  0  0  0
    3.4059    0.0975    0.7862 C   0  0  0  0  0  0  0  0  0  0  0  0
    4.1336   -0.5996    1.7082 C   0  0  0  0  0  0  0  0  0  0  0  0
    5.4449   -0.8454    1.4781 N   0  0  0  0  0  0  0  0  0  0  0  0
    6.0302   -0.4033    0.3426 C   0  0  0  0  0  0  0  0  0  0  0  0
    7.3702   -0.6499    0.0990 O   0  0  0  0  0  0  0  0  0  0  0  0
    8.1147   -1.3718    1.0583 C   0  0  0  0  0  0  0  0  0  0  0  0
    9.5299   -1.4835    0.5235 C   0  0  0  0  0  0  0  0  0  0  0  0
   10.3361   -0.2906    0.2394 C   0  0  0  0  0  0  0  0  0  0  0  0
    9.7911   -1.0643   -0.9038 C   0  0  0  0  0  0  0  0  0  0  0  0
    5.3145    0.3014   -0.5997 C   0  0  0  0  0  0  0  0  0  0  0  0
    4.0140    0.5338   -0.3503 N   0  0  0  0  0  0  0  0  0  0  0  0
   -0.5090    2.5542    0.8404 C   0  0  0  0  0  0  0  0  0  0  0  0
   -1.8476    2.8716    1.0054 C   0  0  0  0  0  0  0  0  0  0  0  0
   -2.7814    1.9574    0.5185 C   0  0  0  0  0  0  0  0  0  0  0  0
   -4.0963    2.2127    0.6623 F   0  0  0  0  0  0  0  0  0  0  0  0
   -4.2116    0.6123   -1.6830 C   0  0  0  0  0  0  0  0  0  0  0  0
   -5.9045    0.1325   -1.8050 S   0  0  0  0  0  6  0  0  0  0  0  0
   -5.9727   -1.1339   -2.6304 O   0  0  0  0  0  0  0  0  0  0  0  0
   -6.7260    1.1631   -2.5341 O   0  0  0  0  0  0  0  0  0  0  0  0
   -8.2762    1.1746    0.2326 H   0  0  0  0  0  0  0  0  0  0  0  0
   -6.9823    1.1823    1.4500 H   0  0  0  0  0  0  0  0  0  0  0  0
   -6.6816    2.0541   -0.0832 H   0  0  0  0  0  0  0  0  0  0  0  0
   -8.5156   -0.6412   -0.8050 H   0  0  0  0  0  0  0  0  0  0  0  0
   -8.0415   -1.2832    0.7926 H   0  0  0  0  0  0  0  0  0  0  0  0
   -7.3898   -2.0440   -0.7599 H   0  0  0  0  0  0  0  0  0  0  0  0
   -6.4519   -2.0308    2.0048 H   0  0  0  0  0  0  0  0  0  0  0  0
   -5.8733   -0.5402    2.8392 H   0  0  0  0  0  0  0  0  0  0  0  0
   -2.3195   -1.9652   -0.4928 H   0  0  0  0  0  0  0  0  0  0  0  0
   -3.7006   -1.9757   -1.6122 H   0  0  0  0  0  0  0  0  0  0  0  0
   -0.7341   -0.4382   -0.7311 H   0  0  0  0  0  0  0  0  0  0  0  0
    1.7522    1.4068   -0.7988 H   0  0  0  0  0  0  0  0  0  0  0  0
    3.6416   -0.9458    2.6153 H   0  0  0  0  0  0  0  0  0  0  0  0
    7.6645   -2.3609    1.1799 H   0  0  0  0  0  0  0  0  0  0  0  0
    8.1316   -0.8545    2.0453 H   0  0  0  0  0  0  0  0  0  0  0  0
   10.0695   -2.3829    0.8978 H   0  0  0  0  0  0  0  0  0  0  0  0
    9.9023    0.7437    0.3419 H   0  0  0  0  0  0  0  0  0  0  0  0
   11.4306   -0.3175    0.4080 H   0  0  0  0  0  0  0  0  0  0  0  0
   10.4661   -1.7581   -1.4760 H   0  0  0  0  0  0  0  0  0  0  0  0
    8.9654   -0.6875   -1.5207 H   0  0  0  0  0  0  0  0  0  0  0  0
    5.8367    0.6279   -1.4859 H   0  0  0  0  0  0  0  0  0  0  0  0
    0.2366    3.2253    1.1976 H   0  0  0  0  0  0  0  0  0  0  0  0
   -2.1738    3.7840    1.4883 H   0  0  0  0  0  0  0  0  0  0  0  0
   -4.1596    1.7020   -1.5327 H   0  0  0  0  0  0  0  0  0  0  0  0
   -3.6829    0.4383   -2.6683 H   0  0  0  0  0  0  0  0  0  0  0  0
  1  2  1  0
  2  3  1  0
  2  4  1  0
  4  5  1  0
  4  6  2  0
  6  7  1  0
  7  8  1  6
  8  9  1  0
  7 10  1  0
 10 11  2  0
 11 12  1  0
 12 13  1  0
 13 14  1  0
 14 15  2  0
 14 16  1  0
 16 17  2  0
 17 18  1  0
 18 19  2  0
 19 20  1  0
 20 21  1  0
 21 22  1  0
 22 23  1  0
 23 24  1  0
 19 25  1  0
 25 26  2  0
 12 27  2  0
 27 28  1  0
 28 29  2  0
 29 30  1  0
  7 31  1  0
 31 32  1  0
 32 33  2  0
 32 34  2  0
 32  2  1  0
 29 10  1  0
 26 16  1  0
 24 22  1  0
  1 35  1  0
  1 36  1  0
  1 37  1  0
  3 38  1  0
  3 39  1  0
  3 40  1  0
  5 41  1  0
  5 42  1  0
  8 43  1  0
  8 44  1  0
 11 45  1  0
 13 46  1  0
 17 47  1  0
 21 48  1  0
 21 49  1  0
 22 50  1  0
 23 51  1  0
 23 52  1  0
 24 53  1  0
 24 54  1  0
 25 55  1  0
 27 56  1  0
 28 57  1  0
 31 58  1  0
 31 59  1  0
M  END
$$$$
