@<TRIPOS>MOLECULE
*****
 42 44 0 0 0
SMALL
GASTEIGER

@<TRIPOS>ATOM
      1 N          -6.6124   -1.6080   -0.4009 N.pl3   1  UNL1        0.0000
      2 C          -5.5293   -0.7558   -0.7803 C.ar    1  UNL1        0.0000
      3 N          -5.4933   -0.1694   -1.9799 N.ar    1  UNL1        0.0000
      4 C          -4.4493    0.6375   -2.3148 C.ar    1  UNL1        0.0000
      5 N          -3.4076    0.9053   -1.5060 N.ar    1  UNL1        0.0000
      6 C          -3.4053    0.3291   -0.2777 C.ar    1  UNL1        0.0000
      7 C          -4.4716   -0.4937    0.0616 C.ar    1  UNL1        0.0000
      8 N          -4.2432   -0.9386    1.3098 N.ar    1  UNL1        0.0000
      9 C          -3.0808   -0.4097    1.7230 C.ar    1  UNL1        0.0000
     10 N          -2.5400    0.3736    0.7725 N.ar    1  UNL1        0.0000
     11 C          -1.3297    1.1600    0.7015 C.3     1  UNL1        0.0000
     12 O          -0.4177    0.6873   -0.2267 O.3     1  UNL1        0.0000
     13 C           0.8213    0.6347    0.3754 C.3     1  UNL1        0.0000
     14 C           1.7514   -0.3625   -0.2577 C.3     1  UNL1        0.0000
     15 O           1.9655   -0.0473   -1.5987 O.3     1  UNL1        0.0000
     16 W           3.2259   -1.6125   -1.9885 W       1  UNL1        0.0000
     17 O           3.7680   -1.3640   -3.6501 O.3     1  UNL1        0.0000
     18 O           2.1061   -3.0294   -1.7960 O.2     1  UNL1        0.0000
     19 O           4.4142   -1.4638   -0.7790 O.3     1  UNL1        0.0000
     20 W           5.5556   -0.5786   -0.4217 W       1  UNL1        0.0000
     21 O           6.3949   -0.1580    0.9606 O.3     1  UNL1        0.0000
     22 O           6.0042    0.8413   -1.7933 O.3     1  UNL1        0.0000
     23 O           7.3393   -1.7518   -1.3976 O.2     1  UNL1        0.0000
     24 C           0.4482    0.1517    1.7696 C.3     1  UNL1        0.0000
     25 O           1.4840    0.2321    2.6725 O.3     1  UNL1        0.0000
     26 C          -0.6327    1.2035    2.0490 C.3     1  UNL1        0.0000
     27 O           0.0532    2.4115    2.1618 O.3     1  UNL1        0.0000
     28 H          -6.9321   -2.5288   -0.8037 H       1  UNL1        0.0000
     29 H          -7.1411   -1.1962    0.4208 H       1  UNL1        0.0000
     30 H          -4.4122    1.1169   -3.2852 H       1  UNL1        0.0000
     31 H          -2.5969   -0.5576    2.6777 H       1  UNL1        0.0000
     32 H          -1.5408    2.2313    0.4222 H       1  UNL1        0.0000
     33 H           1.2620    1.6376    0.4995 H       1  UNL1        0.0000
     34 H           2.7008   -0.3157    0.3356 H       1  UNL1        0.0000
     35 H           1.2860   -1.3681   -0.1387 H       1  UNL1        0.0000
     36 H           4.4621   -0.6585   -3.6719 H       1  UNL1        0.0000
     37 H           6.3955    0.7692    1.3149 H       1  UNL1        0.0000
     38 H           5.4988    1.5787   -1.3637 H       1  UNL1        0.0000
     39 H          -0.0199   -0.8441    1.6805 H       1  UNL1        0.0000
     40 H           1.9971   -0.6126    2.6237 H       1  UNL1        0.0000
     41 H          -1.2620    0.9689    2.8994 H       1  UNL1        0.0000
     42 H           0.5839    2.4049    3.0004 H       1  UNL1        0.0000
@<TRIPOS>BOND
     1     1     2    1
     2     2     3   ar
     3     3     4   ar
     4     4     5   ar
     5     5     6   ar
     6     6     7   ar
     7     7     8   ar
     8     8     9   ar
     9     9    10   ar
    10    10    11    1
    11    11    12    1
    12    12    13    1
    13    13    14    1
    14    14    15    1
    15    15    16    1
    16    16    17    1
    17    16    18    2
    18    16    19    1
    19    19    20    1
    20    20    21    1
    21    20    22    1
    22    20    23    2
    23    13    24    1
    24    24    25    1
    25    24    26    1
    26    26    27    1
    27     7     2   ar
    28    26    11    1
    29    10     6   ar
    30     1    28    1
    31     1    29    1
    32     4    30    1
    33     9    31    1
    34    11    32    1
    35    13    33    1
    36    14    34    1
    37    14    35    1
    38    17    36    1
    39    21    37    1
    40    22    38    1
    41    24    39    1
    42    25    40    1
    43    26    41    1
    44    27    42    1
