@<TRIPOS>MOLECULE
*****
 75 80 0 0 0
SMALL
GASTEIGER

@<TRIPOS>ATOM
      1 C          -4.1561   -7.6315    1.1071 C.3     1  UNL1       -0.0151
      2 N          -3.7510   -6.2773    1.0471 N.3     1  UNL1       -0.3089
      3 C          -3.5824   -5.7975   -0.3692 C.3     1  UNL1        0.0820
      4 C          -5.0774   -5.6943   -0.7972 C.3     1  UNL1       -0.0411
      5 C          -2.9936   -4.4888   -0.2409 C.2     1  UNL1        0.2350
      6 O          -3.4756   -3.8101    0.7628 O.2     1  UNL1       -0.2737
      7 N          -1.9994   -3.8573   -1.0338 N.am    1  UNL1       -0.2691
      8 C          -1.6445   -2.5060   -0.7325 C.ar    1  UNL1        0.1263
      9 C          -2.1250   -1.6644   -0.0788 C.ar    1  UNL1       -0.0208
     10 C          -2.1844   -0.4475    0.4696 C.ar    1  UNL1       -0.0466
     11 C          -0.7753    0.2011   -0.1285 C.ar    1  UNL1        0.0349
     12 C          -0.8240    1.5434    0.5787 C.ar    1  UNL1        0.0837
     13 C          -1.5213    2.4821    0.1906 C.ar    1  UNL1        0.0992
     14 C          -2.0678    3.2977   -0.9679 C.ar    1  UNL1        0.0208
     15 C          -3.4197    3.3837   -1.1000 C.ar    1  UNL1       -0.0460
     16 C          -3.9226    4.4794   -1.9518 C.ar    1  UNL1        0.0006
     17 C          -2.9578    5.3289   -2.4822 C.ar    1  UNL1        0.2144
     18 O          -3.4573    6.4380   -3.2907 O.3     1  UNL1       -0.4796
     19 C          -2.8473    7.4619   -3.7070 C.3     1  UNL1        0.0804
     20 N          -1.6971    5.1906   -2.2893 N.ar    1  UNL1       -0.2207
     21 C          -1.1468    4.1444   -1.5205 C.ar    1  UNL1        0.0406
     22 N          -2.0776    3.1941    1.4297 N.ar    1  UNL1       -0.2271
     23 C          -1.2799    2.2429    2.5518 C.ar    1  UNL1        0.1390
     24 C          -1.7519    2.8822    3.7168 C.ar    1  UNL1       -0.0158
     25 C          -0.9352    1.8170    4.8433 C.ar    1  UNL1       -0.0456
     26 C          -1.4729    2.1737    6.1018 C.3     1  UNL1       -0.0395
     27 C          -0.3460    1.0527    4.0796 C.ar    1  UNL1       -0.0421
     28 C           0.0198    0.5792    2.8390 C.ar    1  UNL1        0.0120
     29 N          -0.7775    1.5701    1.9065 N.ar    1  UNL1       -0.2986
     30 C          -0.2712   -0.6045   -0.7971 C.ar    1  UNL1        0.1250
     31 C           1.2863   -0.3683   -0.9226 C.1     1  UNL1       -0.0404
     32 C           2.5406   -0.1805   -1.0270 C.1     1  UNL1       -0.0595
     33 C           4.0314    0.0205   -1.1515 C.ar    1  UNL1        0.0259
     34 C           4.5272   -1.2812   -1.4902 C.ar    1  UNL1       -0.0457
     35 C           5.9119   -1.3284   -1.5610 C.ar    1  UNL1       -0.0512
     36 C           6.6968   -0.2235   -1.3194 C.ar    1  UNL1        0.0032
     37 C           8.0397   -0.3279   -1.3313 C.ar    1  UNL1        0.0459
     38 C           8.7684   -1.6121   -1.6114 C.3     1  UNL1       -0.0218
     39 N           8.8572    0.7309   -1.0675 N.ar    1  UNL1       -0.2595
     40 C           8.2071    1.9550   -0.7507 C.ar    1  UNL1        0.0285
     41 C           6.8590    2.0440   -0.7436 C.ar    1  UNL1       -0.0358
     42 C           6.0362    1.0001   -1.0123 C.ar    1  UNL1       -0.0136
     43 C           4.5959    1.0851   -0.9327 C.ar    1  UNL1       -0.0385
     44 N          -0.3336   -1.9669   -1.3631 N.ar    1  UNL1       -0.2229
     45 H          -3.3251   -8.2505    1.5782 H       1  UNL1        0.0388
     46 H          -5.0092   -7.8167    1.8481 H       1  UNL1        0.0388
     47 H          -4.3627   -8.0982    0.1475 H       1  UNL1        0.0388
     48 H          -4.5424   -5.6954    1.4705 H       1  UNL1        0.1223
     49 H          -3.1062   -6.5691   -0.9385 H       1  UNL1        0.0554
     50 H          -5.6037   -6.5499   -0.3048 H       1  UNL1        0.0249
     51 H          -5.5081   -4.7969   -0.2736 H       1  UNL1        0.0249
     52 H          -5.2376   -5.6775   -1.8554 H       1  UNL1        0.0249
     53 H          -1.5394   -4.3464   -1.7751 H       1  UNL1        0.1563
     54 H          -3.2850   -2.0897    0.3222 H       1  UNL1        0.0652
     55 H          -2.6974    0.1671    1.0112 H       1  UNL1        0.0626
     56 H          -4.1060    2.7876   -0.5681 H       1  UNL1        0.0626
     57 H          -4.9560    4.5769   -2.1180 H       1  UNL1        0.0671
     58 H          -2.1188    7.9424   -2.8670 H       1  UNL1        0.0660
     59 H          -3.6240    8.4033   -3.6976 H       1  UNL1        0.0660
     60 H          -2.2582    7.5959   -4.6314 H       1  UNL1        0.0660
     61 H          -0.0805    4.0271   -1.4910 H       1  UNL1        0.0837
     62 H          -2.2279    3.4795    4.1764 H       1  UNL1        0.0657
     63 H          -2.6993    2.2236    5.9584 H       1  UNL1        0.0278
     64 H          -1.3296    3.2299    6.3792 H       1  UNL1        0.0278
     65 H          -1.4189    1.4335    6.9038 H       1  UNL1        0.0278
     66 H           0.2756    0.2599    4.8582 H       1  UNL1        0.0635
     67 H           0.5432   -0.0470    2.3820 H       1  UNL1        0.0813
     68 H           3.9572   -2.1181   -1.7242 H       1  UNL1        0.0630
     69 H           6.3428   -2.2994   -1.8204 H       1  UNL1        0.0625
     70 H           9.6228   -1.7287   -0.8767 H       1  UNL1        0.0293
     71 H           9.1622   -1.5670   -2.6802 H       1  UNL1        0.0293
     72 H           8.1076   -2.4973   -1.4833 H       1  UNL1        0.0293
     73 H           8.8936    2.7558   -0.4860 H       1  UNL1        0.0830
     74 H           6.4183    2.9823   -0.4714 H       1  UNL1        0.0639
     75 H           4.2075    2.0525   -0.8259 H       1  UNL1        0.0636
@<TRIPOS>BOND
     1     1     2    1
     2     2     3    1
     3     3     4    1
     4     3     5    1
     5     5     6    2
     6     5     7   am
     7     7     8    1
     8     8     9   ar
     9     9    10   ar
    10    10    11   ar
    11    11    12    1
    12    12    13   ar
    13    13    14    1
    14    14    15   ar
    15    15    16   ar
    16    16    17   ar
    17    17    18    1
    18    18    19    1
    19    17    20   ar
    20    20    21   ar
    21    13    22   ar
    22    22    23   ar
    23    23    24   ar
    24    24    25   ar
    25    25    26    1
    26    25    27   ar
    27    27    28   ar
    28    28    29   ar
    29    11    30   ar
    30    30    31    1
    31    31    32    3
    32    32    33    1
    33    33    34   ar
    34    34    35   ar
    35    35    36   ar
    36    36    37   ar
    37    37    38    1
    38    37    39   ar
    39    39    40   ar
    40    40    41   ar
    41    41    42   ar
    42    42    43   ar
    43    30    44   ar
    44    44     8   ar
    45    29    12   ar
    46    43    33   ar
    47    21    14   ar
    48    29    23   ar
    49    42    36   ar
    50     1    45    1
    51     1    46    1
    52     1    47    1
    53     2    48    1
    54     3    49    1
    55     4    50    1
    56     4    51    1
    57     4    52    1
    58     7    53    1
    59     9    54    1
    60    10    55    1
    61    15    56    1
    62    16    57    1
    63    19    58    1
    64    19    59    1
    65    19    60    1
    66    21    61    1
    67    24    62    1
    68    26    63    1
    69    26    64    1
    70    26    65    1
    71    27    66    1
    72    28    67    1
    73    34    68    1
    74    35    69    1
    75    38    70    1
    76    38    71    1
    77    38    72    1
    78    40    73    1
    79    41    74    1
    80    43    75    1
