@<TRIPOS>MOLECULE
*****
 64 69 0 0 0
SMALL
GASTEIGER

@<TRIPOS>ATOM
      1 C          -5.6342    1.2499    1.6769 C.3     1  UNL1       -0.0380
      2 C          -5.4095    1.8242    0.3283 C.ar    1  UNL1       -0.0279
      3 C          -5.8756    3.0841    0.0241 C.ar    1  UNL1       -0.0557
      4 C          -5.6567    3.6061   -1.2431 C.ar    1  UNL1       -0.0433
      5 C          -4.9675    2.8082   -2.1419 C.ar    1  UNL1        0.0279
      6 N          -4.5280    1.5798   -1.8041 N.ar    1  UNL1       -0.2583
      7 C          -4.7216    1.0433   -0.5886 C.ar    1  UNL1        0.0581
      8 C          -4.2287   -0.3124   -0.2447 C.3     1  UNL1        0.0415
      9 N          -3.0260   -0.2596    0.6019 N.3     1  UNL1       -0.2965
     10 C          -2.6753   -1.6437    0.8675 C.3     1  UNL1        0.0017
     11 C          -1.2629   -1.8123    1.3653 C.3     1  UNL1       -0.0095
     12 C          -0.3151   -1.3486    0.3177 C.3     1  UNL1        0.1240
     13 C          -0.9654   -0.4879   -0.7322 C.3     1  UNL1       -0.0095
     14 C          -1.9876    0.4292   -0.1005 C.3     1  UNL1        0.0017
     15 C           0.6780   -0.4418    1.0182 C.2     1  UNL1        0.2516
     16 O           0.5111    0.2596    2.0348 O.2     1  UNL1       -0.2724
     17 N           1.8960   -0.5223    0.2924 N.am    1  UNL1       -0.1920
     18 C           2.9864    0.3702    0.3218 C.ar    1  UNL1        0.0456
     19 C           3.0274    1.4499   -0.5616 C.ar    1  UNL1       -0.0378
     20 C           4.0548    2.3504   -0.5842 C.ar    1  UNL1       -0.0345
     21 C           5.1118    2.2172    0.2888 C.ar    1  UNL1        0.0654
     22 N           6.1816    3.1615    0.2608 N.ar    1  UNL1       -0.2399
     23 C           7.2835    3.1590    1.0319 C.ar    1  UNL1        0.0312
     24 C           8.0682    4.2435    0.6904 C.ar    1  UNL1       -0.0238
     25 C           7.3914    4.9008   -0.3207 C.ar    1  UNL1        0.0498
     26 N           6.2749    4.1975   -0.5233 N.ar    1  UNL1       -0.1748
     27 C           5.0852    1.1603    1.1631 C.ar    1  UNL1       -0.0345
     28 C           4.0496    0.2482    1.1896 C.ar    1  UNL1       -0.0378
     29 C           1.8088   -1.6942   -0.4839 C.2     1  UNL1        0.3219
     30 O           2.7237   -2.0731   -1.2556 O.2     1  UNL1       -0.2512
     31 N           0.5466   -2.3442   -0.2463 N.am    1  UNL1       -0.2240
     32 C           0.2532   -3.7015   -0.5202 C.ar    1  UNL1        0.1364
     33 C           1.1588   -4.6094   -1.0214 C.ar    1  UNL1        0.0432
     34 C           0.8348   -5.9228   -1.2818 C.ar    1  UNL1        0.2531
     35 O           1.6975   -6.7027   -1.7365 O.2     1  UNL1       -0.2678
     36 N          -0.3995   -6.3645   -1.0492 N.ar    1  UNL1       -0.3133
     37 C          -1.3062   -5.4922   -0.5572 C.ar    1  UNL1        0.0981
     38 N          -0.9857   -4.2151   -0.3056 N.ar    1  UNL1       -0.2220
     39 H          -6.2878    1.9299    2.2555 H       1  UNL1        0.0278
     40 H          -4.6708    1.1595    2.2007 H       1  UNL1        0.0278
     41 H          -6.1288    0.2526    1.5090 H       1  UNL1        0.0278
     42 H          -6.4150    3.6929    0.7463 H       1  UNL1        0.0621
     43 H          -6.0199    4.6028   -1.5000 H       1  UNL1        0.0633
     44 H          -4.8057    3.2356   -3.1317 H       1  UNL1        0.0829
     45 H          -5.0257   -0.9020    0.2422 H       1  UNL1        0.0491
     46 H          -3.9771   -0.8152   -1.2171 H       1  UNL1        0.0491
     47 H          -3.3628   -2.0273    1.6411 H       1  UNL1        0.0427
     48 H          -2.8670   -2.1928   -0.0518 H       1  UNL1        0.0427
     49 H          -1.1567   -1.2431    2.3241 H       1  UNL1        0.0303
     50 H          -1.0873   -2.8569    1.6043 H       1  UNL1        0.0303
     51 H          -1.4277   -1.0362   -1.5509 H       1  UNL1        0.0303
     52 H          -0.1715    0.1674   -1.1556 H       1  UNL1        0.0303
     53 H          -2.3950    1.0665   -0.9094 H       1  UNL1        0.0427
     54 H          -1.5007    1.1437    0.6186 H       1  UNL1        0.0427
     55 H           2.2059    1.5729   -1.2564 H       1  UNL1        0.0637
     56 H           4.0109    3.1596   -1.2999 H       1  UNL1        0.0639
     57 H           7.5036    2.4138    1.7966 H       1  UNL1        0.0831
     58 H           9.0199    4.5352    1.1155 H       1  UNL1        0.0648
     59 H           7.7451    5.8089   -0.8182 H       1  UNL1        0.0848
     60 H           5.9164    1.0477    1.8560 H       1  UNL1        0.0639
     61 H           4.0378   -0.5833    1.8837 H       1  UNL1        0.0637
     62 H           2.1840   -4.2726   -1.2197 H       1  UNL1        0.0706
     63 H          -0.6831   -7.3756   -1.2397 H       1  UNL1        0.1698
     64 H          -2.3184   -5.8786   -0.3728 H       1  UNL1        0.1028
@<TRIPOS>BOND
     1     1     2    1
     2     2     3   ar
     3     3     4   ar
     4     4     5   ar
     5     5     6   ar
     6     6     7   ar
     7     7     8    1
     8     8     9    1
     9     9    10    1
    10    10    11    1
    11    11    12    1
    12    12    13    1
    13    13    14    1
    14    12    15    1
    15    15    16    2
    16    15    17   am
    17    17    18    1
    18    18    19   ar
    19    19    20   ar
    20    20    21   ar
    21    21    22    1
    22    22    23   ar
    23    23    24   ar
    24    24    25   ar
    25    25    26   ar
    26    21    27   ar
    27    27    28   ar
    28    17    29   am
    29    29    30    2
    30    29    31   am
    31    31    32    1
    32    32    33   ar
    33    33    34   ar
    34    34    35    2
    35    34    36   ar
    36    36    37   ar
    37    37    38   ar
    38     7     2   ar
    39    14     9    1
    40    28    18   ar
    41    38    32   ar
    42    31    12    1
    43    26    22   ar
    44     1    39    1
    45     1    40    1
    46     1    41    1
    47     3    42    1
    48     4    43    1
    49     5    44    1
    50     8    45    1
    51     8    46    1
    52    10    47    1
    53    10    48    1
    54    11    49    1
    55    11    50    1
    56    13    51    1
    57    13    52    1
    58    14    53    1
    59    14    54    1
    60    19    55    1
    61    20    56    1
    62    23    57    1
    63    24    58    1
    64    25    59    1
    65    27    60    1
    66    28    61    1
    67    33    62    1
    68    36    63    1
    69    37    64    1
