@<TRIPOS>MOLECULE
*****
 55 55 0 0 0
SMALL
GASTEIGER

@<TRIPOS>ATOM
      1 C           6.9535   -0.5319    0.7303 C.3     1  UNL1       -0.0648
      2 C           5.4449   -0.4391    0.6590 C.3     1  UNL1       -0.0499
      3 C           4.9251    0.8922    1.0862 C.3     1  UNL1       -0.0260
      4 C           5.2900    1.2311    2.5146 C.3     1  UNL1       -0.0590
      5 C           3.4527    0.9312    0.9766 C.2     1  UNL1       -0.0848
      6 C           2.7773   -0.1270    0.6128 C.2     1  UNL1       -0.0834
      7 C           1.3072   -0.0523    0.5142 C.3     1  UNL1       -0.0092
      8 C           0.8430   -0.3579   -0.8840 C.2     1  UNL1       -0.0369
      9 C           1.6670   -0.6451   -1.8505 C.2     1  UNL1        0.0258
     10 C           1.3434   -0.9534   -3.2210 C.2     1  UNL1        0.3298
     11 O           2.3458   -1.2034   -3.9838 O.2     1  UNL1       -0.2458
     12 O           0.1329   -1.0226   -3.8427 O.3     1  UNL1       -0.4775
     13 C          -0.5963   -0.3278   -1.1542 C.2     1  UNL1       -0.0578
     14 C          -1.4809   -0.0487   -0.2385 C.2     1  UNL1       -0.0578
     15 C          -2.9050    0.0429   -0.2499 C.2     1  UNL1       -0.0427
     16 C          -3.6538   -0.1586   -1.3020 C.2     1  UNL1       -0.0689
     17 C          -3.2325   -0.5069   -2.6441 C.3     1  UNL1       -0.0432
     18 C          -5.1655   -0.0008   -1.0718 C.3     1  UNL1       -0.0314
     19 C          -5.4866   -0.9457    0.0562 C.3     1  UNL1       -0.0486
     20 C          -4.7631   -0.5136    1.3047 C.3     1  UNL1       -0.0436
     21 C          -3.6140    0.4011    1.0650 C.3     1  UNL1       -0.0099
     22 C          -3.9341    1.8555    1.0252 C.3     1  UNL1       -0.0558
     23 C          -2.6204    0.1710    2.2099 C.3     1  UNL1       -0.0558
     24 H           7.2828   -0.7821    1.7602 H       1  UNL1        0.0230
     25 H           7.3387   -1.3371    0.0706 H       1  UNL1        0.0230
     26 H           7.4529    0.3962    0.4205 H       1  UNL1        0.0230
     27 H           5.0440   -1.2644    1.3149 H       1  UNL1        0.0268
     28 H           5.1360   -0.6883   -0.3704 H       1  UNL1        0.0268
     29 H           5.4051    1.6830    0.4567 H       1  UNL1        0.0340
     30 H           4.7442    0.5506    3.1789 H       1  UNL1        0.0235
     31 H           6.3680    1.2898    2.6905 H       1  UNL1        0.0235
     32 H           4.8697    2.2586    2.7101 H       1  UNL1        0.0235
     33 H           2.9554    1.8792    1.2119 H       1  UNL1        0.0572
     34 H           3.2775   -1.0465    0.3843 H       1  UNL1        0.0572
     35 H           0.9927    0.9771    0.7761 H       1  UNL1        0.0356
     36 H           0.7960   -0.7227    1.2409 H       1  UNL1        0.0356
     37 H           2.7380   -0.6401   -1.5364 H       1  UNL1        0.0692
     38 H          -0.1154   -1.6518   -4.6023 H       1  UNL1        0.2954
     39 H          -0.9365   -0.5399   -2.1212 H       1  UNL1        0.0620
     40 H          -0.9885    0.1598    0.7487 H       1  UNL1        0.0621
     41 H          -4.2005   -0.5770   -3.2618 H       1  UNL1        0.0275
     42 H          -2.6624    0.2635   -3.2044 H       1  UNL1        0.0275
     43 H          -2.7887   -1.4929   -2.7921 H       1  UNL1        0.0275
     44 H          -5.3891    1.0371   -0.8479 H       1  UNL1        0.0310
     45 H          -5.7250   -0.2772   -1.9767 H       1  UNL1        0.0310
     46 H          -5.0490   -1.9409   -0.2298 H       1  UNL1        0.0269
     47 H          -6.5599   -0.9962    0.2384 H       1  UNL1        0.0269
     48 H          -5.4850   -0.0191    1.9523 H       1  UNL1        0.0274
     49 H          -4.3876   -1.4110    1.8578 H       1  UNL1        0.0274
     50 H          -3.3596    2.4195    1.8195 H       1  UNL1        0.0238
     51 H          -3.5909    2.3163    0.0696 H       1  UNL1        0.0238
     52 H          -4.9931    2.0890    1.2612 H       1  UNL1        0.0238
     53 H          -3.1828    0.1474    3.1868 H       1  UNL1        0.0238
     54 H          -1.9135    1.0138    2.3306 H       1  UNL1        0.0238
     55 H          -2.1042   -0.7840    2.1388 H       1  UNL1        0.0238
@<TRIPOS>BOND
     1     1     2    1
     2     2     3    1
     3     3     4    1
     4     3     5    1
     5     5     6    2
     6     6     7    1
     7     7     8    1
     8     8     9    2
     9     9    10    1
    10    10    11    2
    11    10    12    1
    12     8    13    1
    13    13    14    2
    14    14    15    1
    15    15    16    2
    16    16    17    1
    17    16    18    1
    18    18    19    1
    19    19    20    1
    20    20    21    1
    21    21    22    1
    22    21    23    1
    23    21    15    1
    24     1    24    1
    25     1    25    1
    26     1    26    1
    27     2    27    1
    28     2    28    1
    29     3    29    1
    30     4    30    1
    31     4    31    1
    32     4    32    1
    33     5    33    1
    34     6    34    1
    35     7    35    1
    36     7    36    1
    37     9    37    1
    38    12    38    1
    39    13    39    1
    40    14    40    1
    41    17    41    1
    42    17    42    1
    43    17    43    1
    44    18    44    1
    45    18    45    1
    46    19    46    1
    47    19    47    1
    48    20    48    1
    49    20    49    1
    50    22    50    1
    51    22    51    1
    52    22    52    1
    53    23    53    1
    54    23    54    1
    55    23    55    1
