
     RDKit          3D

 55 55  0  0  0  0  0  0  0  0999 V2000
    6.9535   -0.5319    0.7303 C   0  0  0  0  0  0  0  0  0  0  0  0
    5.4449   -0.4391    0.6590 C   0  0  0  0  0  0  0  0  0  0  0  0
    4.9251    0.8922    1.0862 C   0  0  0  0  0  0  0  0  0  0  0  0
    5.2900    1.2311    2.5146 C   0  0  0  0  0  0  0  0  0  0  0  0
    3.4527    0.9312    0.9766 C   0  0  0  0  0  0  0  0  0  0  0  0
    2.7773   -0.1270    0.6128 C   0  0  0  0  0  0  0  0  0  0  0  0
    1.3072   -0.0523    0.5142 C   0  0  0  0  0  0  0  0  0  0  0  0
    0.8430   -0.3579   -0.8840 C   0  0  0  0  0  0  0  0  0  0  0  0
    1.6670   -0.6451   -1.8505 C   0  0  0  0  0  0  0  0  0  0  0  0
    1.3434   -0.9534   -3.2210 C   0  0  0  0  0  0  0  0  0  0  0  0
    2.3458   -1.2034   -3.9838 O   0  0  0  0  0  0  0  0  0  0  0  0
    0.1329   -1.0226   -3.8427 O   0  0  0  0  0  0  0  0  0  0  0  0
   -0.5963   -0.3278   -1.1542 C   0  0  0  0  0  0  0  0  0  0  0  0
   -1.4809   -0.0487   -0.2385 C   0  0  0  0  0  0  0  0  0  0  0  0
   -2.9050    0.0429   -0.2499 C   0  0  0  0  0  0  0  0  0  0  0  0
   -3.6538   -0.1586   -1.3020 C   0  0  0  0  0  0  0  0  0  0  0  0
   -3.2325   -0.5069   -2.6441 C   0  0  0  0  0  0  0  0  0  0  0  0
   -5.1655   -0.0008   -1.0718 C   0  0  0  0  0  0  0  0  0  0  0  0
   -5.4866   -0.9457    0.0562 C   0  0  0  0  0  0  0  0  0  0  0  0
   -4.7631   -0.5136    1.3047 C   0  0  0  0  0  0  0  0  0  0  0  0
   -3.6140    0.4011    1.0650 C   0  0  0  0  0  0  0  0  0  0  0  0
   -3.9341    1.8555    1.0252 C   0  0  0  0  0  0  0  0  0  0  0  0
   -2.6204    0.1710    2.2099 C   0  0  0  0  0  0  0  0  0  0  0  0
    7.2828   -0.7821    1.7602 H   0  0  0  0  0  0  0  0  0  0  0  0
    7.3387   -1.3371    0.0706 H   0  0  0  0  0  0  0  0  0  0  0  0
    7.4529    0.3962    0.4205 H   0  0  0  0  0  0  0  0  0  0  0  0
    5.0440   -1.2644    1.3149 H   0  0  0  0  0  0  0  0  0  0  0  0
    5.1360   -0.6883   -0.3704 H   0  0  0  0  0  0  0  0  0  0  0  0
    5.4051    1.6830    0.4567 H   0  0  0  0  0  0  0  0  0  0  0  0
    4.7442    0.5506    3.1789 H   0  0  0  0  0  0  0  0  0  0  0  0
    6.3680    1.2898    2.6905 H   0  0  0  0  0  0  0  0  0  0  0  0
    4.8697    2.2586    2.7101 H   0  0  0  0  0  0  0  0  0  0  0  0
    2.9554    1.8792    1.2119 H   0  0  0  0  0  0  0  0  0  0  0  0
    3.2775   -1.0465    0.3843 H   0  0  0  0  0  0  0  0  0  0  0  0
    0.9927    0.9771    0.7761 H   0  0  0  0  0  0  0  0  0  0  0  0
    0.7960   -0.7227    1.2409 H   0  0  0  0  0  0  0  0  0  0  0  0
    2.7380   -0.6401   -1.5364 H   0  0  0  0  0  0  0  0  0  0  0  0
   -0.1154   -1.6518   -4.6023 H   0  0  0  0  0  0  0  0  0  0  0  0
   -0.9365   -0.5399   -2.1212 H   0  0  0  0  0  0  0  0  0  0  0  0
   -0.9885    0.1598    0.7487 H   0  0  0  0  0  0  0  0  0  0  0  0
   -4.2005   -0.5770   -3.2618 H   0  0  0  0  0  0  0  0  0  0  0  0
   -2.6624    0.2635   -3.2044 H   0  0  0  0  0  0  0  0  0  0  0  0
   -2.7887   -1.4929   -2.7921 H   0  0  0  0  0  0  0  0  0  0  0  0
   -5.3891    1.0371   -0.8479 H   0  0  0  0  0  0  0  0  0  0  0  0
   -5.7250   -0.2772   -1.9767 H   0  0  0  0  0  0  0  0  0  0  0  0
   -5.0490   -1.9409   -0.2298 H   0  0  0  0  0  0  0  0  0  0  0  0
   -6.5599   -0.9962    0.2384 H   0  0  0  0  0  0  0  0  0  0  0  0
   -5.4850   -0.0191    1.9523 H   0  0  0  0  0  0  0  0  0  0  0  0
   -4.3876   -1.4110    1.8578 H   0  0  0  0  0  0  0  0  0  0  0  0
   -3.3596    2.4195    1.8195 H   0  0  0  0  0  0  0  0  0  0  0  0
   -3.5909    2.3163    0.0696 H   0  0  0  0  0  0  0  0  0  0  0  0
   -4.9931    2.0890    1.2612 H   0  0  0  0  0  0  0  0  0  0  0  0
   -3.1828    0.1474    3.1868 H   0  0  0  0  0  0  0  0  0  0  0  0
   -1.9135    1.0138    2.3306 H   0  0  0  0  0  0  0  0  0  0  0  0
   -2.1042   -0.7840    2.1388 H   0  0  0  0  0  0  0  0  0  0  0  0
  1  2  1  0
  2  3  1  0
  3  4  1  0
  3  5  1  0
  5  6  2  0
  6  7  1  0
  7  8  1  0
  8  9  2  0
  9 10  1  0
 10 11  2  0
 10 12  1  0
  8 13  1  0
 13 14  2  0
 14 15  1  0
 15 16  2  0
 16 17  1  0
 16 18  1  0
 18 19  1  0
 19 20  1  0
 20 21  1  0
 21 22  1  0
 21 23  1  0
 21 15  1  0
  1 24  1  0
  1 25  1  0
  1 26  1  0
  2 27  1  0
  2 28  1  0
  3 29  1  0
  4 30  1  0
  4 31  1  0
  4 32  1  0
  5 33  1  0
  6 34  1  0
  7 35  1  0
  7 36  1  0
  9 37  1  0
 12 38  1  0
 13 39  1  0
 14 40  1  0
 17 41  1  0
 17 42  1  0
 17 43  1  0
 18 44  1  0
 18 45  1  0
 19 46  1  0
 19 47  1  0
 20 48  1  0
 20 49  1  0
 22 50  1  0
 22 51  1  0
 22 52  1  0
 23 53  1  0
 23 54  1  0
 23 55  1  0
M  END
$$$$
