
     RDKit          3D

 53 55  0  0  0  0  0  0  0  0999 V2000
    7.3451   -1.0755   -1.5398 C   0  0  0  0  0  0  0  0  0  0  0  0
    5.9841   -1.2121   -1.9290 N   0  0  0  0  0  0  0  0  0  0  0  0
    5.1193   -2.4802   -1.2088 S   0  0  0  0  0  6  0  0  0  0  0  0
    3.7059   -2.4381   -1.7806 O   0  0  0  0  0  0  0  0  0  0  0  0
    5.6535   -3.8412   -1.6198 O   0  0  0  0  0  0  0  0  0  0  0  0
    4.9918   -2.3675    0.5032 N   0  0  0  0  0  0  0  0  0  0  0  0
    4.3563   -1.3225    1.2019 C   0  0  0  0  0  0  0  0  0  0  0  0
    3.7203   -0.2393    0.5828 C   0  0  0  0  0  0  0  0  0  0  0  0
    3.1091    0.7458    1.2868 C   0  0  0  0  0  0  0  0  0  0  0  0
    2.4419    1.8689    0.6087 C   0  0  0  0  0  0  0  0  0  0  0  0
    0.9813    1.7646    0.5079 C   0  0  0  0  0  0  0  0  0  0  0  0
    0.3293    0.9808   -0.4068 C   0  0  0  0  0  0  0  0  0  0  0  0
    1.0725    0.2228   -1.4176 C   0  0  0  0  0  0  0  0  0  0  0  0
   -1.0752    0.9039   -0.4262 C   0  0  0  0  0  0  0  0  0  0  0  0
   -1.7753    0.1336   -1.3152 C   0  0  0  0  0  0  0  0  0  0  0  0
   -3.1484    0.1167   -1.2617 C   0  0  0  0  0  0  0  0  0  0  0  0
   -3.8863    0.8399   -0.3519 C   0  0  0  0  0  0  0  0  0  0  0  0
   -5.2738    0.7771   -0.3533 O   0  0  0  0  0  0  0  0  0  0  0  0
   -5.9778   -0.1603    0.3957 C   0  0  0  0  0  0  0  0  0  0  0  0
   -5.2692   -0.9495    1.0760 O   0  0  0  0  0  0  0  0  0  0  0  0
   -7.3872   -0.2569    0.4215 N   0  0  0  0  0  0  0  0  0  0  0  0
   -8.2418    0.6217   -0.3396 C   0  0  0  0  0  0  0  0  0  0  0  0
   -8.0024   -1.2727    1.2398 C   0  0  0  0  0  0  0  0  0  0  0  0
   -3.1691    1.6094    0.5362 C   0  0  0  0  0  0  0  0  0  0  0  0
   -1.7804    1.6577    0.5202 C   0  0  0  0  0  0  0  0  0  0  0  0
   -1.1232    2.3941    1.3745 O   0  0  0  0  0  0  0  0  0  0  0  0
    0.1803    2.4734    1.4035 C   0  0  0  0  0  0  0  0  0  0  0  0
    0.7448    3.1947    2.2432 O   0  0  0  0  0  0  0  0  0  0  0  0
    3.1137    0.6792    2.6750 C   0  0  0  0  0  0  0  0  0  0  0  0
    3.7436   -0.3926    3.2593 C   0  0  0  0  0  0  0  0  0  0  0  0
    4.3383   -1.3503    2.5436 N   0  0  0  0  0  0  0  0  0  0  0  0
    7.6368   -1.7151   -0.6841 H   0  0  0  0  0  0  0  0  0  0  0  0
    7.5201   -0.0238   -1.2031 H   0  0  0  0  0  0  0  0  0  0  0  0
    8.0726   -1.2573   -2.3577 H   0  0  0  0  0  0  0  0  0  0  0  0
    5.5286   -0.3191   -2.0502 H   0  0  0  0  0  0  0  0  0  0  0  0
    5.4259   -3.1449    1.0567 H   0  0  0  0  0  0  0  0  0  0  0  0
    3.7663   -0.2655   -0.4933 H   0  0  0  0  0  0  0  0  0  0  0  0
    2.9686    2.0284   -0.3565 H   0  0  0  0  0  0  0  0  0  0  0  0
    2.6724    2.8123    1.1962 H   0  0  0  0  0  0  0  0  0  0  0  0
    1.3827   -0.7558   -1.0126 H   0  0  0  0  0  0  0  0  0  0  0  0
    0.5501    0.0968   -2.3927 H   0  0  0  0  0  0  0  0  0  0  0  0
    2.0261    0.8042   -1.6014 H   0  0  0  0  0  0  0  0  0  0  0  0
   -1.2640   -0.4544   -2.0394 H   0  0  0  0  0  0  0  0  0  0  0  0
   -3.7420   -0.4925   -1.9632 H   0  0  0  0  0  0  0  0  0  0  0  0
   -7.8609    1.6539   -0.4219 H   0  0  0  0  0  0  0  0  0  0  0  0
   -9.2739    0.6211    0.0934 H   0  0  0  0  0  0  0  0  0  0  0  0
   -8.3857    0.2298   -1.3878 H   0  0  0  0  0  0  0  0  0  0  0  0
   -8.1384   -2.2154    0.6318 H   0  0  0  0  0  0  0  0  0  0  0  0
   -7.3664   -1.5163    2.1377 H   0  0  0  0  0  0  0  0  0  0  0  0
   -8.9871   -0.9116    1.5591 H   0  0  0  0  0  0  0  0  0  0  0  0
   -3.7312    2.1826    1.2558 H   0  0  0  0  0  0  0  0  0  0  0  0
    2.6221    1.4768    3.2029 H   0  0  0  0  0  0  0  0  0  0  0  0
    3.7562   -0.4601    4.3554 H   0  0  0  0  0  0  0  0  0  0  0  0
  1  2  1  0
  2  3  1  0
  3  4  2  0
  3  5  2  0
  3  6  1  0
  6  7  1  0
  7  8  2  0
  8  9  1  0
  9 10  1  0
 10 11  1  0
 11 12  2  0
 12 13  1  0
 12 14  1  0
 14 15  2  0
 15 16  1  0
 16 17  2  0
 17 18  1  0
 18 19  1  0
 19 20  2  0
 19 21  1  0
 21 22  1  0
 21 23  1  0
 17 24  1  0
 24 25  2  0
 25 26  1  0
 26 27  1  0
 27 28  2  0
  9 29  2  0
 29 30  1  0
 30 31  2  0
 31  7  1  0
 27 11  1  0
 25 14  1  0
  1 32  1  0
  1 33  1  0
  1 34  1  0
  2 35  1  0
  6 36  1  0
  8 37  1  0
 10 38  1  0
 10 39  1  0
 13 40  1  0
 13 41  1  0
 13 42  1  0
 15 43  1  0
 16 44  1  0
 22 45  1  0
 22 46  1  0
 22 47  1  0
 23 48  1  0
 23 49  1  0
 23 50  1  0
 24 51  1  0
 29 52  1  0
 30 53  1  0
M  END
$$$$
