@<TRIPOS>MOLECULE
*****
 53 55 0 0 0
SMALL
GASTEIGER

@<TRIPOS>ATOM
      1 C           7.3451   -1.0755   -1.5398 C.3     1  UNL1        0.0071
      2 N           5.9841   -1.2121   -1.9290 N.3     1  UNL1       -0.1802
      3 S           5.1193   -2.4802   -1.2088 S.O2    1  UNL1        0.1101
      4 O           3.7059   -2.4381   -1.7806 O.2     1  UNL1       -0.1381
      5 O           5.6535   -3.8412   -1.6198 O.2     1  UNL1       -0.1381
      6 N           4.9918   -2.3675    0.5032 N.pl3   1  UNL1       -0.1897
      7 C           4.3563   -1.3225    1.2019 C.ar    1  UNL1        0.1388
      8 C           3.7203   -0.2393    0.5828 C.ar    1  UNL1       -0.0169
      9 C           3.1091    0.7458    1.2868 C.ar    1  UNL1       -0.0381
     10 C           2.4419    1.8689    0.6087 C.3     1  UNL1        0.0048
     11 C           0.9813    1.7646    0.5079 C.ar    1  UNL1        0.0448
     12 C           0.3293    0.9808   -0.4068 C.ar    1  UNL1       -0.0295
     13 C           1.0725    0.2228   -1.4176 C.3     1  UNL1       -0.0385
     14 C          -1.0752    0.9039   -0.4262 C.ar    1  UNL1        0.0210
     15 C          -1.7753    0.1336   -1.3152 C.ar    1  UNL1       -0.0473
     16 C          -3.1484    0.1167   -1.2617 C.ar    1  UNL1       -0.0184
     17 C          -3.8863    0.8399   -0.3519 C.ar    1  UNL1        0.1368
     18 O          -5.2738    0.7771   -0.3533 O.3     1  UNL1       -0.4113
     19 C          -5.9778   -0.1603    0.3957 C.2     1  UNL1        0.4077
     20 O          -5.2692   -0.9495    1.0760 O.2     1  UNL1       -0.2258
     21 N          -7.3872   -0.2569    0.4215 N.am    1  UNL1       -0.2732
     22 C          -8.2418    0.6217   -0.3396 C.3     1  UNL1        0.0060
     23 C          -8.0024   -1.2727    1.2398 C.3     1  UNL1        0.0060
     24 C          -3.1691    1.6094    0.5362 C.ar    1  UNL1        0.0239
     25 C          -1.7804    1.6577    0.5202 C.ar    1  UNL1        0.1428
     26 O          -1.1232    2.3941    1.3745 O.2     1  UNL1       -0.4218
     27 C           0.1803    2.4734    1.4035 C.ar    1  UNL1        0.3410
     28 O           0.7448    3.1947    2.2432 O.2     1  UNL1       -0.2449
     29 C           3.1137    0.6792    2.6750 C.ar    1  UNL1       -0.0400
     30 C           3.7436   -0.3926    3.2593 C.ar    1  UNL1        0.0300
     31 N           4.3383   -1.3503    2.5436 N.ar    1  UNL1       -0.2390
     32 H           7.6368   -1.7151   -0.6841 H       1  UNL1        0.0406
     33 H           7.5201   -0.0238   -1.2031 H       1  UNL1        0.0406
     34 H           8.0726   -1.2573   -2.3577 H       1  UNL1        0.0406
     35 H           5.5286   -0.3191   -2.0502 H       1  UNL1        0.1490
     36 H           5.4259   -3.1449    1.0567 H       1  UNL1        0.1763
     37 H           3.7663   -0.2655   -0.4933 H       1  UNL1        0.0655
     38 H           2.9686    2.0284   -0.3565 H       1  UNL1        0.0364
     39 H           2.6724    2.8123    1.1962 H       1  UNL1        0.0364
     40 H           1.3827   -0.7558   -1.0126 H       1  UNL1        0.0278
     41 H           0.5501    0.0968   -2.3927 H       1  UNL1        0.0278
     42 H           2.0261    0.8042   -1.6014 H       1  UNL1        0.0278
     43 H          -1.2640   -0.4544   -2.0394 H       1  UNL1        0.0626
     44 H          -3.7420   -0.4925   -1.9632 H       1  UNL1        0.0654
     45 H          -7.8609    1.6539   -0.4219 H       1  UNL1        0.0429
     46 H          -9.2739    0.6211    0.0934 H       1  UNL1        0.0429
     47 H          -8.3857    0.2298   -1.3878 H       1  UNL1        0.0429
     48 H          -8.1384   -2.2154    0.6318 H       1  UNL1        0.0429
     49 H          -7.3664   -1.5163    2.1377 H       1  UNL1        0.0429
     50 H          -8.9871   -0.9116    1.5591 H       1  UNL1        0.0429
     51 H          -3.7312    2.1826    1.2558 H       1  UNL1        0.0691
     52 H           2.6221    1.4768    3.2029 H       1  UNL1        0.0635
     53 H           3.7562   -0.4601    4.3554 H       1  UNL1        0.0830
@<TRIPOS>BOND
     1     1     2    1
     2     2     3    1
     3     3     4    2
     4     3     5    2
     5     3     6    1
     6     6     7    1
     7     7     8   ar
     8     8     9   ar
     9     9    10    1
    10    10    11    1
    11    11    12   ar
    12    12    13    1
    13    12    14   ar
    14    14    15   ar
    15    15    16   ar
    16    16    17   ar
    17    17    18    1
    18    18    19    1
    19    19    20    2
    20    19    21   am
    21    21    22    1
    22    21    23    1
    23    17    24   ar
    24    24    25   ar
    25    25    26   ar
    26    26    27   ar
    27    27    28    2
    28     9    29   ar
    29    29    30   ar
    30    30    31   ar
    31    31     7   ar
    32    27    11   ar
    33    25    14   ar
    34     1    32    1
    35     1    33    1
    36     1    34    1
    37     2    35    1
    38     6    36    1
    39     8    37    1
    40    10    38    1
    41    10    39    1
    42    13    40    1
    43    13    41    1
    44    13    42    1
    45    15    43    1
    46    16    44    1
    47    22    45    1
    48    22    46    1
    49    22    47    1
    50    23    48    1
    51    23    49    1
    52    23    50    1
    53    24    51    1
    54    29    52    1
    55    30    53    1
