@<TRIPOS>MOLECULE
*****
 39 39 0 0 0
SMALL
GASTEIGER

@<TRIPOS>ATOM
      1 O          -3.9895   -1.9196   -0.0078 O.2     1  UNL1       -0.2737
      2 C          -4.8526   -1.3842   -0.7273 C.2     1  UNL1        0.2354
      3 C          -4.5797   -0.0813   -1.3434 C.3     1  UNL1        0.0259
      4 C          -3.2668    0.5296   -1.0005 C.3     1  UNL1       -0.0447
      5 C          -3.1271    0.7876    0.4598 C.3     1  UNL1       -0.0526
      6 C          -1.7882    1.4143    0.8126 C.3     1  UNL1       -0.0526
      7 C          -0.6203    0.5440    0.4282 C.3     1  UNL1       -0.0448
      8 C           0.6337    1.2761    0.8320 C.3     1  UNL1        0.0243
      9 C           1.8566    0.4798    0.4859 C.2     1  UNL1        0.2172
     10 O           1.6820   -0.6230   -0.0607 O.2     1  UNL1       -0.2755
     11 N           3.1481    0.9331    0.7545 N.am    1  UNL1       -0.2855
     12 C           4.3757    0.3046    0.4907 C.ar    1  UNL1        0.0334
     13 C           4.5096   -0.9150   -0.1023 C.ar    1  UNL1       -0.0405
     14 C           5.7613   -1.5101   -0.3487 C.ar    1  UNL1       -0.0600
     15 C           6.9176   -0.8623    0.0106 C.ar    1  UNL1       -0.0616
     16 C           6.7896    0.3716    0.6107 C.ar    1  UNL1       -0.0600
     17 C           5.5656    0.9565    0.8532 C.ar    1  UNL1       -0.0405
     18 N          -6.0869   -2.0811   -0.9180 N.am    1  UNL1       -0.1975
     19 O          -6.2649   -3.2784   -0.3169 O.3     1  UNL1       -0.2952
     20 H          -5.4445    0.5886   -1.0676 H       1  UNL1        0.0359
     21 H          -4.7095   -0.2199   -2.4555 H       1  UNL1        0.0359
     22 H          -2.4397   -0.0589   -1.4483 H       1  UNL1        0.0270
     23 H          -3.1927    1.5367   -1.5068 H       1  UNL1        0.0270
     24 H          -3.3313   -0.0403    1.1335 H       1  UNL1        0.0265
     25 H          -3.8895    1.5842    0.7098 H       1  UNL1        0.0265
     26 H          -1.8236    1.6192    1.8999 H       1  UNL1        0.0265
     27 H          -1.7161    2.4280    0.3274 H       1  UNL1        0.0265
     28 H          -0.7135   -0.3930    1.0371 H       1  UNL1        0.0270
     29 H          -0.6146    0.2630   -0.6272 H       1  UNL1        0.0270
     30 H           0.6097    1.4234    1.9179 H       1  UNL1        0.0358
     31 H           0.6495    2.2771    0.3522 H       1  UNL1        0.0358
     32 H           3.1888    1.8990    1.2292 H       1  UNL1        0.1548
     33 H           3.6353   -1.4653   -0.4036 H       1  UNL1        0.0636
     34 H           5.8001   -2.4748   -0.8202 H       1  UNL1        0.0618
     35 H           7.8905   -1.3164   -0.1769 H       1  UNL1        0.0618
     36 H           7.7014    0.8847    0.8952 H       1  UNL1        0.0618
     37 H           5.4806    1.9336    1.3290 H       1  UNL1        0.0636
     38 H          -6.7927   -1.6215   -1.5187 H       1  UNL1        0.1822
     39 H          -6.9519   -3.7897   -0.8101 H       1  UNL1        0.2414
@<TRIPOS>BOND
     1     1     2    2
     2     2     3    1
     3     3     4    1
     4     4     5    1
     5     5     6    1
     6     6     7    1
     7     7     8    1
     8     8     9    1
     9     9    10    2
    10     9    11   am
    11    11    12    1
    12    12    13   ar
    13    13    14   ar
    14    14    15   ar
    15    15    16   ar
    16    16    17   ar
    17     2    18   am
    18    18    19    1
    19    17    12   ar
    20     3    20    1
    21     3    21    1
    22     4    22    1
    23     4    23    1
    24     5    24    1
    25     5    25    1
    26     6    26    1
    27     6    27    1
    28     7    28    1
    29     7    29    1
    30     8    30    1
    31     8    31    1
    32    11    32    1
    33    13    33    1
    34    14    34    1
    35    15    35    1
    36    16    36    1
    37    17    37    1
    38    18    38    1
    39    19    39    1
