@<TRIPOS>MOLECULE
*****
 56 60 0 0 0
SMALL
GASTEIGER

@<TRIPOS>ATOM
      1 C          -0.1454   -0.0168   -1.7484 C.3     1  UNL1       -0.0351
      2 C          -0.5540   -0.8582   -0.5248 C.3     1  UNL1        0.0950
      3 C           0.5943   -0.8670    0.4196 C.ar    1  UNL1        0.0349
      4 C           1.7438   -0.1718    0.2131 C.ar    1  UNL1       -0.0433
      5 C           2.7965   -0.1895    1.1015 C.ar    1  UNL1       -0.0036
      6 C           4.0198    0.5835    0.8499 C.2     1  UNL1       -0.0157
      7 C           5.1886    0.0559    1.1227 C.2     1  UNL1        0.1492
      8 F           5.2873   -1.2131    1.6414 F       1  UNL1       -0.2032
      9 C           6.4439    0.7960    0.8887 C.ar    1  UNL1        0.0990
     10 C           6.4911    2.0683    0.3829 C.ar    1  UNL1       -0.0322
     11 C           7.7020    2.7196    0.1841 C.ar    1  UNL1       -0.0408
     12 C           8.8998    2.0987    0.4927 C.ar    1  UNL1        0.0699
     13 C          10.1568    2.7624    0.2953 C.1     1  UNL1        0.1007
     14 N          11.1724    3.3142    0.1483 N.1     1  UNL1       -0.1908
     15 C           8.8208    0.8213    0.9985 C.ar    1  UNL1        0.0457
     16 N           7.6389    0.2092    1.1831 N.ar    1  UNL1       -0.2514
     17 C           2.6597   -0.9509    2.2430 C.ar    1  UNL1        0.0379
     18 N           1.5330   -1.6467    2.4668 N.ar    1  UNL1       -0.2267
     19 C           0.4993   -1.6146    1.5700 C.ar    1  UNL1        0.2187
     20 F          -0.6027   -2.3470    1.8562 F       1  UNL1       -0.1835
     21 N          -0.7537   -2.2260   -0.9533 N.2     1  UNL1       -0.2520
     22 C          -1.7574   -2.6073   -1.6415 C.2     1  UNL1        0.1485
     23 N          -1.9134   -3.9373   -2.0364 N.pl3   1  UNL1       -0.3380
     24 S          -2.9705   -1.3677   -2.0641 S.3     1  UNL1       -0.0746
     25 C          -2.9702   -0.2058   -0.6586 C.3     1  UNL1        0.1054
     26 C          -3.9292    0.8941   -0.6759 C.2     1  UNL1        0.2326
     27 O          -3.5300    2.0577   -0.9019 O.2     1  UNL1       -0.2741
     28 N          -5.3040    0.6585   -0.4407 N.am    1  UNL1       -0.2944
     29 C          -6.3173    1.7037   -0.4372 C.3     1  UNL1        0.0204
     30 C          -7.6405    0.9946   -0.3542 C.3     1  UNL1        0.0281
     31 C          -7.3238   -0.3350    0.3199 C.3     1  UNL1        0.2657
     32 F          -8.2506   -1.2853   -0.0491 F       1  UNL1       -0.2039
     33 F          -7.3805   -0.2120    1.6978 F       1  UNL1       -0.2039
     34 C          -5.9473   -0.6265   -0.1755 C.3     1  UNL1        0.0781
     35 C          -2.8310   -0.9577    0.7096 C.3     1  UNL1       -0.0220
     36 C          -1.7226   -0.2168    0.1284 C.3     1  UNL1        0.0135
     37 H          -0.9515    0.0443   -2.4761 H       1  UNL1        0.0256
     38 H           0.7651   -0.4205   -2.1849 H       1  UNL1        0.0256
     39 H           0.0810    1.0142   -1.3713 H       1  UNL1        0.0256
     40 H           1.8467    0.4173   -0.6825 H       1  UNL1        0.0629
     41 H           3.9018    1.5673    0.4440 H       1  UNL1        0.0653
     42 H           5.5771    2.5885    0.1297 H       1  UNL1        0.0640
     43 H           7.7271    3.7167   -0.2120 H       1  UNL1        0.0631
     44 H           9.7436    0.2973    1.2522 H       1  UNL1        0.0843
     45 H           3.4782   -0.9813    2.9734 H       1  UNL1        0.0836
     46 H          -2.4591   -4.6291   -1.4587 H       1  UNL1        0.1442
     47 H          -1.4753   -4.2763   -2.9430 H       1  UNL1        0.1442
     48 H          -6.2761    2.1872   -1.4553 H       1  UNL1        0.0466
     49 H          -6.1601    2.4271    0.3717 H       1  UNL1        0.0466
     50 H          -8.0472    0.7501   -1.3689 H       1  UNL1        0.0338
     51 H          -8.4317    1.5627    0.1615 H       1  UNL1        0.0338
     52 H          -5.3661   -1.2568    0.5247 H       1  UNL1        0.0523
     53 H          -6.0303   -1.1624   -1.1674 H       1  UNL1        0.0523
     54 H          -3.3725   -0.4553    1.5658 H       1  UNL1        0.0287
     55 H          -2.8879   -2.0500    0.6457 H       1  UNL1        0.0287
     56 H          -1.4668    0.7744    0.5913 H       1  UNL1        0.0346
@<TRIPOS>BOND
     1     2     1    1
     2     2     3    1
     3     3     4   ar
     4     4     5   ar
     5     5     6    1
     6     6     7    2
     7     7     8    1
     8     7     9    1
     9     9    10   ar
    10    10    11   ar
    11    11    12   ar
    12    12    13    1
    13    13    14    3
    14    12    15   ar
    15    15    16   ar
    16     5    17   ar
    17    17    18   ar
    18    18    19   ar
    19    19    20    1
    20     2    21    1
    21    21    22    2
    22    22    23    1
    23    22    24    1
    24    24    25    1
    25    25    26    1
    26    26    27    2
    27    26    28   am
    28    28    29    1
    29    29    30    1
    30    30    31    1
    31    31    32    1
    32    31    33    1
    33    31    34    1
    34    25    35    1
    35    35    36    1
    36    36     2    1
    37    19     3   ar
    38    36    25    1
    39    16     9   ar
    40    34    28    1
    41     1    37    1
    42     1    38    1
    43     1    39    1
    44     4    40    1
    45     6    41    1
    46    10    42    1
    47    11    43    1
    48    15    44    1
    49    17    45    1
    50    23    46    1
    51    23    47    1
    52    29    48    1
    53    29    49    1
    54    30    50    1
    55    30    51    1
    56    34    52    1
    57    34    53    1
    58    35    54    1
    59    35    55    1
    60    36    56    1
