
     RDKit          3D

 56 60  0  0  0  0  0  0  0  0999 V2000
   -0.1454   -0.0168   -1.7484 C   0  0  0  0  0  0  0  0  0  0  0  0
   -0.5540   -0.8582   -0.5248 C   0  0  2  0  0  0  0  0  0  0  0  0
    0.5943   -0.8670    0.4196 C   0  0  0  0  0  0  0  0  0  0  0  0
    1.7438   -0.1718    0.2131 C   0  0  0  0  0  0  0  0  0  0  0  0
    2.7965   -0.1895    1.1015 C   0  0  0  0  0  0  0  0  0  0  0  0
    4.0198    0.5835    0.8499 C   0  0  0  0  0  0  0  0  0  0  0  0
    5.1886    0.0559    1.1227 C   0  0  0  0  0  0  0  0  0  0  0  0
    5.2873   -1.2131    1.6414 F   0  0  0  0  0  0  0  0  0  0  0  0
    6.4439    0.7960    0.8887 C   0  0  0  0  0  0  0  0  0  0  0  0
    6.4911    2.0683    0.3829 C   0  0  0  0  0  0  0  0  0  0  0  0
    7.7020    2.7196    0.1841 C   0  0  0  0  0  0  0  0  0  0  0  0
    8.8998    2.0987    0.4927 C   0  0  0  0  0  0  0  0  0  0  0  0
   10.1568    2.7624    0.2953 C   0  0  0  0  0  0  0  0  0  0  0  0
   11.1724    3.3142    0.1483 N   0  0  0  0  0  0  0  0  0  0  0  0
    8.8208    0.8213    0.9985 C   0  0  0  0  0  0  0  0  0  0  0  0
    7.6389    0.2092    1.1831 N   0  0  0  0  0  0  0  0  0  0  0  0
    2.6597   -0.9509    2.2430 C   0  0  0  0  0  0  0  0  0  0  0  0
    1.5330   -1.6467    2.4668 N   0  0  0  0  0  0  0  0  0  0  0  0
    0.4993   -1.6146    1.5700 C   0  0  0  0  0  0  0  0  0  0  0  0
   -0.6027   -2.3470    1.8562 F   0  0  0  0  0  0  0  0  0  0  0  0
   -0.7537   -2.2260   -0.9533 N   0  0  0  0  0  0  0  0  0  0  0  0
   -1.7574   -2.6073   -1.6415 C   0  0  0  0  0  0  0  0  0  0  0  0
   -1.9134   -3.9373   -2.0364 N   0  0  0  0  0  0  0  0  0  0  0  0
   -2.9705   -1.3677   -2.0641 S   0  0  0  0  0  0  0  0  0  0  0  0
   -2.9702   -0.2058   -0.6586 C   0  0  1  0  0  0  0  0  0  0  0  0
   -3.9292    0.8941   -0.6759 C   0  0  0  0  0  0  0  0  0  0  0  0
   -3.5300    2.0577   -0.9019 O   0  0  0  0  0  0  0  0  0  0  0  0
   -5.3040    0.6585   -0.4407 N   0  0  0  0  0  0  0  0  0  0  0  0
   -6.3173    1.7037   -0.4372 C   0  0  0  0  0  0  0  0  0  0  0  0
   -7.6405    0.9946   -0.3542 C   0  0  0  0  0  0  0  0  0  0  0  0
   -7.3238   -0.3350    0.3199 C   0  0  0  0  0  0  0  0  0  0  0  0
   -8.2506   -1.2853   -0.0491 F   0  0  0  0  0  0  0  0  0  0  0  0
   -7.3805   -0.2120    1.6978 F   0  0  0  0  0  0  0  0  0  0  0  0
   -5.9473   -0.6265   -0.1755 C   0  0  0  0  0  0  0  0  0  0  0  0
   -2.8310   -0.9577    0.7096 C   0  0  0  0  0  0  0  0  0  0  0  0
   -1.7226   -0.2168    0.1284 C   0  0  1  0  0  0  0  0  0  0  0  0
   -0.9515    0.0443   -2.4761 H   0  0  0  0  0  0  0  0  0  0  0  0
    0.7651   -0.4205   -2.1849 H   0  0  0  0  0  0  0  0  0  0  0  0
    0.0810    1.0142   -1.3713 H   0  0  0  0  0  0  0  0  0  0  0  0
    1.8467    0.4173   -0.6825 H   0  0  0  0  0  0  0  0  0  0  0  0
    3.9018    1.5673    0.4440 H   0  0  0  0  0  0  0  0  0  0  0  0
    5.5771    2.5885    0.1297 H   0  0  0  0  0  0  0  0  0  0  0  0
    7.7271    3.7167   -0.2120 H   0  0  0  0  0  0  0  0  0  0  0  0
    9.7436    0.2973    1.2522 H   0  0  0  0  0  0  0  0  0  0  0  0
    3.4782   -0.9813    2.9734 H   0  0  0  0  0  0  0  0  0  0  0  0
   -2.4591   -4.6291   -1.4587 H   0  0  0  0  0  0  0  0  0  0  0  0
   -1.4753   -4.2763   -2.9430 H   0  0  0  0  0  0  0  0  0  0  0  0
   -6.2761    2.1872   -1.4553 H   0  0  0  0  0  0  0  0  0  0  0  0
   -6.1601    2.4271    0.3717 H   0  0  0  0  0  0  0  0  0  0  0  0
   -8.0472    0.7501   -1.3689 H   0  0  0  0  0  0  0  0  0  0  0  0
   -8.4317    1.5627    0.1615 H   0  0  0  0  0  0  0  0  0  0  0  0
   -5.3661   -1.2568    0.5247 H   0  0  0  0  0  0  0  0  0  0  0  0
   -6.0303   -1.1624   -1.1674 H   0  0  0  0  0  0  0  0  0  0  0  0
   -3.3725   -0.4553    1.5658 H   0  0  0  0  0  0  0  0  0  0  0  0
   -2.8879   -2.0500    0.6457 H   0  0  0  0  0  0  0  0  0  0  0  0
   -1.4668    0.7744    0.5913 H   0  0  0  0  0  0  0  0  0  0  0  0
  2  1  1  6
  2  3  1  0
  3  4  2  0
  4  5  1  0
  5  6  1  0
  6  7  2  0
  7  8  1  0
  7  9  1  0
  9 10  2  0
 10 11  1  0
 11 12  2  0
 12 13  1  0
 13 14  3  0
 12 15  1  0
 15 16  2  0
  5 17  2  0
 17 18  1  0
 18 19  2  0
 19 20  1  0
  2 21  1  0
 21 22  2  0
 22 23  1  0
 22 24  1  0
 24 25  1  0
 25 26  1  1
 26 27  2  0
 26 28  1  0
 28 29  1  0
 29 30  1  0
 30 31  1  0
 31 32  1  0
 31 33  1  0
 31 34  1  0
 25 35  1  0
 35 36  1  0
 36  2  1  0
 19  3  1  0
 36 25  1  0
 16  9  1  0
 34 28  1  0
  1 37  1  0
  1 38  1  0
  1 39  1  0
  4 40  1  0
  6 41  1  0
 10 42  1  0
 11 43  1  0
 15 44  1  0
 17 45  1  0
 23 46  1  0
 23 47  1  0
 29 48  1  0
 29 49  1  0
 30 50  1  0
 30 51  1  0
 34 52  1  0
 34 53  1  0
 35 54  1  0
 35 55  1  0
 36 56  1  1
M  END
$$$$
