@<TRIPOS>MOLECULE
*****
 51 55 0 0 0
SMALL
GASTEIGER

@<TRIPOS>ATOM
      1 O           6.1334   -1.6363    3.6087 O.co2   1  UNL1       -0.5760
      2 N           6.9656   -0.7325    3.0025 N.pl3   1  UNL1        0.0796
      3 O           8.0376   -0.7234    3.6699 O.2     1  UNL1        0.0414
      4 C           6.8287    0.1056    1.8649 C.ar    1  UNL1        0.2737
      5 C           5.6194    0.0233    1.2029 C.ar    1  UNL1        0.0238
      6 C           5.4442    0.8166    0.0967 C.ar    1  UNL1       -0.0048
      7 C           6.4048    1.6824   -0.3816 C.ar    1  UNL1       -0.0531
      8 C           7.5937    1.6994    0.3494 C.ar    1  UNL1       -0.0548
      9 C           7.8446    0.9342    1.4681 C.ar    1  UNL1        0.0156
     10 C           4.1858    0.7595   -0.6348 C.ar    1  UNL1        0.0221
     11 C           3.0207    0.0111   -0.4505 C.ar    1  UNL1       -0.0224
     12 C           2.0080    0.2138   -1.3540 C.ar    1  UNL1        0.0638
     13 C           2.1845    1.1270   -2.3787 C.ar    1  UNL1        0.0388
     14 S           3.8084    1.7743   -2.1421 S.2     1  UNL1       -0.0866
     15 C           1.0795    1.1880   -3.1681 C.ar    1  UNL1       -0.0169
     16 C           0.2251    0.2773   -2.5843 C.ar    1  UNL1        0.1123
     17 N           0.7756   -0.3038   -1.5040 N.ar    1  UNL1       -0.2858
     18 C          -0.2382   -1.2147   -1.0258 C.2     1  UNL1        0.1598
     19 S          -0.0872   -2.1889    0.2810 S.2     1  UNL1       -0.0148
     20 N          -1.3826   -1.1621   -1.8326 N.am    1  UNL1       -0.2458
     21 C          -2.6211   -1.9051   -1.7251 C.3     1  UNL1        0.0231
     22 C          -3.6559   -1.2186   -0.9069 C.3     1  UNL1       -0.0239
     23 C          -3.2357   -0.9595    0.5012 C.3     1  UNL1        0.0005
     24 N          -4.2610   -0.2941    1.2798 N.3     1  UNL1       -0.2979
     25 C          -4.5055    1.0480    0.8589 C.3     1  UNL1        0.0224
     26 C          -5.5876    1.6627    1.6912 C.3     1  UNL1        0.0604
     27 O          -6.7241    0.8340    1.5464 O.3     1  UNL1       -0.3772
     28 C          -6.4362   -0.3165    2.2790 C.3     1  UNL1        0.0604
     29 C          -5.4203   -1.1048    1.4835 C.3     1  UNL1        0.0224
     30 C          -1.1141   -0.2044   -2.8519 C.2     1  UNL1        0.2691
     31 O          -1.9260    0.1045   -3.7627 O.2     1  UNL1       -0.2680
     32 H           4.8015   -0.6160    1.4891 H       1  UNL1        0.0691
     33 H           6.2926    2.3190   -1.2515 H       1  UNL1        0.0624
     34 H           8.3912    2.3701    0.0125 H       1  UNL1        0.0620
     35 H           8.7911    0.9955    1.9899 H       1  UNL1        0.0685
     36 H           3.0794   -0.6437    0.4039 H       1  UNL1        0.0650
     37 H           1.0034    1.8307   -4.0182 H       1  UNL1        0.0652
     38 H          -3.0595   -2.1045   -2.7439 H       1  UNL1        0.0470
     39 H          -2.3488   -2.9133   -1.3470 H       1  UNL1        0.0470
     40 H          -4.5621   -1.8931   -0.9168 H       1  UNL1        0.0293
     41 H          -3.9834   -0.3081   -1.4356 H       1  UNL1        0.0293
     42 H          -2.3675   -0.2623    0.4960 H       1  UNL1        0.0427
     43 H          -2.9780   -1.8902    1.0120 H       1  UNL1        0.0427
     44 H          -3.5399    1.5972    0.9419 H       1  UNL1        0.0449
     45 H          -4.8499    1.1201   -0.2048 H       1  UNL1        0.0449
     46 H          -5.8754    2.6300    1.1902 H       1  UNL1        0.0572
     47 H          -5.3383    1.8113    2.7508 H       1  UNL1        0.0572
     48 H          -6.0008    0.0239    3.2504 H       1  UNL1        0.0572
     49 H          -7.3803   -0.9161    2.4360 H       1  UNL1        0.0572
     50 H          -5.1349   -1.9765    2.1177 H       1  UNL1        0.0449
     51 H          -5.9043   -1.4711    0.5588 H       1  UNL1        0.0449
@<TRIPOS>UNITY_ATOM_ATTR
1 1
charge -1
2 1
charge 1
@<TRIPOS>BOND
     1     1     2    1
     2     2     3    2
     3     2     4    1
     4     4     5   ar
     5     5     6   ar
     6     6     7   ar
     7     7     8   ar
     8     8     9   ar
     9     6    10    1
    10    10    11   ar
    11    11    12   ar
    12    12    13   ar
    13    13    14   ar
    14    13    15   ar
    15    15    16   ar
    16    16    17   ar
    17    17    18    1
    18    18    19    2
    19    18    20    1
    20    20    21    1
    21    21    22    1
    22    22    23    1
    23    23    24    1
    24    24    25    1
    25    25    26    1
    26    26    27    1
    27    27    28    1
    28    28    29    1
    29    20    30   am
    30    30    31    2
    31     9     4   ar
    32    14    10   ar
    33    30    16    1
    34    17    12   ar
    35    29    24    1
    36     5    32    1
    37     7    33    1
    38     8    34    1
    39     9    35    1
    40    11    36    1
    41    15    37    1
    42    21    38    1
    43    21    39    1
    44    22    40    1
    45    22    41    1
    46    23    42    1
    47    23    43    1
    48    25    44    1
    49    25    45    1
    50    26    46    1
    51    26    47    1
    52    28    48    1
    53    28    49    1
    54    29    50    1
    55    29    51    1
