@<TRIPOS>MOLECULE
*****
 48 51 0 0 0
SMALL
GASTEIGER

@<TRIPOS>ATOM
      1 C           4.3697    1.5287   -1.5101 C.2     1  UNL1       -0.1023
      2 C           3.4249    2.1867   -0.8635 C.2     1  UNL1       -0.0865
      3 C           2.7423    1.6453    0.3306 C.3     1  UNL1       -0.0075
      4 C           1.2373    1.4872    0.0787 C.3     1  UNL1        0.0058
      5 N           0.7332    0.3232    0.7939 N.3     1  UNL1       -0.2960
      6 C           1.2655    0.4432    2.1529 C.3     1  UNL1       -0.0004
      7 C           2.7095   -0.0023    2.1191 C.3     1  UNL1       -0.0367
      8 C           3.2545    0.2767    0.7086 C.3     1  UNL1       -0.0310
      9 C           2.5953   -0.7065   -0.2693 C.3     1  UNL1       -0.0312
     10 C           1.1921   -0.9165    0.2638 C.3     1  UNL1        0.0408
     11 C           0.2937   -1.5541   -0.7667 C.3     1  UNL1        0.0963
     12 O           0.9510   -2.7566   -1.1383 O.3     1  UNL1       -0.3856
     13 C          -1.0061   -1.9753   -0.1959 C.ar    1  UNL1       -0.0070
     14 C          -1.1477   -3.2281    0.4096 C.ar    1  UNL1       -0.0373
     15 C          -2.3532   -3.6211    0.9473 C.ar    1  UNL1        0.0286
     16 N          -3.4237   -2.8188    0.9072 N.ar    1  UNL1       -0.2550
     17 C          -3.3530   -1.5909    0.3339 C.ar    1  UNL1        0.0715
     18 C          -4.4893   -0.7751    0.3053 C.ar    1  UNL1       -0.0323
     19 C          -4.3794    0.4620   -0.2861 C.ar    1  UNL1       -0.0179
     20 C          -3.1878    0.8876   -0.8347 C.ar    1  UNL1        0.1208
     21 O          -3.0617    2.1430   -1.4394 O.3     1  UNL1       -0.4951
     22 C          -4.1952    2.9707   -1.4742 C.3     1  UNL1        0.0788
     23 C          -2.0900    0.0547   -0.7868 C.ar    1  UNL1       -0.0104
     24 C          -2.1469   -1.1959   -0.2049 C.ar    1  UNL1        0.0095
     25 H           4.8231    1.9997   -2.3829 H       1  UNL1        0.0532
     26 H           4.7422    0.5452   -1.2488 H       1  UNL1        0.0532
     27 H           3.1487    3.1766   -1.2446 H       1  UNL1        0.0570
     28 H           2.9064    2.3046    1.2251 H       1  UNL1        0.0358
     29 H           0.7538    2.3791    0.5028 H       1  UNL1        0.0432
     30 H           1.0196    1.4388   -0.9987 H       1  UNL1        0.0432
     31 H           1.1742    1.4814    2.5333 H       1  UNL1        0.0427
     32 H           0.6695   -0.2418    2.8138 H       1  UNL1        0.0427
     33 H           2.8449   -1.0558    2.3798 H       1  UNL1        0.0280
     34 H           3.3261    0.6686    2.7861 H       1  UNL1        0.0280
     35 H           4.3499    0.2150    0.6976 H       1  UNL1        0.0308
     36 H           2.4655   -0.1895   -1.2579 H       1  UNL1        0.0284
     37 H           3.1758   -1.6274   -0.3382 H       1  UNL1        0.0284
     38 H           1.2954   -1.6563    1.1003 H       1  UNL1        0.0491
     39 H           0.2133   -0.9860   -1.7000 H       1  UNL1        0.0659
     40 H           1.4020   -3.1216   -0.3328 H       1  UNL1        0.2103
     41 H          -0.3177   -3.9194    0.4717 H       1  UNL1        0.0636
     42 H          -2.4808   -4.6000    1.4255 H       1  UNL1        0.0830
     43 H          -5.4176   -1.1155    0.7367 H       1  UNL1        0.0640
     44 H          -5.2297    1.1476   -0.3414 H       1  UNL1        0.0655
     45 H          -4.6325    3.0997   -0.4411 H       1  UNL1        0.0660
     46 H          -4.9866    2.4185   -2.0485 H       1  UNL1        0.0660
     47 H          -4.0012    3.9529   -1.9321 H       1  UNL1        0.0660
     48 H          -1.1795    0.4179   -1.2259 H       1  UNL1        0.0661
@<TRIPOS>BOND
     1     1     2    2
     2     2     3    1
     3     3     4    1
     4     4     5    1
     5     5     6    1
     6     6     7    1
     7     7     8    1
     8     8     9    1
     9     9    10    1
    10    10    11    1
    11    11    12    1
    12    11    13    1
    13    13    14   ar
    14    14    15   ar
    15    15    16   ar
    16    16    17   ar
    17    17    18   ar
    18    18    19   ar
    19    19    20   ar
    20    20    21    1
    21    21    22    1
    22    20    23   ar
    23    23    24   ar
    24     8     3    1
    25    24    13   ar
    26    10     5    1
    27    24    17   ar
    28     1    25    1
    29     1    26    1
    30     2    27    1
    31     3    28    1
    32     4    29    1
    33     4    30    1
    34     6    31    1
    35     6    32    1
    36     7    33    1
    37     7    34    1
    38     8    35    1
    39     9    36    1
    40     9    37    1
    41    10    38    1
    42    11    39    1
    43    12    40    1
    44    14    41    1
    45    15    42    1
    46    18    43    1
    47    19    44    1
    48    22    45    1
    49    22    46    1
    50    22    47    1
    51    23    48    1
