
     RDKit          3D

 48 51  0  0  0  0  0  0  0  0999 V2000
    4.3697    1.5287   -1.5101 C   0  0  0  0  0  0  0  0  0  0  0  0
    3.4249    2.1867   -0.8635 C   0  0  0  0  0  0  0  0  0  0  0  0
    2.7423    1.6453    0.3306 C   0  0  1  0  0  0  0  0  0  0  0  0
    1.2373    1.4872    0.0787 C   0  0  0  0  0  0  0  0  0  0  0  0
    0.7332    0.3232    0.7939 N   0  0  0  0  0  0  0  0  0  0  0  0
    1.2655    0.4432    2.1529 C   0  0  0  0  0  0  0  0  0  0  0  0
    2.7095   -0.0023    2.1191 C   0  0  0  0  0  0  0  0  0  0  0  0
    3.2545    0.2767    0.7086 C   0  0  1  0  0  0  0  0  0  0  0  0
    2.5953   -0.7065   -0.2693 C   0  0  0  0  0  0  0  0  0  0  0  0
    1.1921   -0.9165    0.2638 C   0  0  2  0  0  0  0  0  0  0  0  0
    0.2937   -1.5541   -0.7667 C   0  0  1  0  0  0  0  0  0  0  0  0
    0.9510   -2.7566   -1.1383 O   0  0  0  0  0  0  0  0  0  0  0  0
   -1.0061   -1.9753   -0.1959 C   0  0  0  0  0  0  0  0  0  0  0  0
   -1.1477   -3.2281    0.4096 C   0  0  0  0  0  0  0  0  0  0  0  0
   -2.3532   -3.6211    0.9473 C   0  0  0  0  0  0  0  0  0  0  0  0
   -3.4237   -2.8188    0.9072 N   0  0  0  0  0  0  0  0  0  0  0  0
   -3.3530   -1.5909    0.3339 C   0  0  0  0  0  0  0  0  0  0  0  0
   -4.4893   -0.7751    0.3053 C   0  0  0  0  0  0  0  0  0  0  0  0
   -4.3794    0.4620   -0.2861 C   0  0  0  0  0  0  0  0  0  0  0  0
   -3.1878    0.8876   -0.8347 C   0  0  0  0  0  0  0  0  0  0  0  0
   -3.0617    2.1430   -1.4394 O   0  0  0  0  0  0  0  0  0  0  0  0
   -4.1952    2.9707   -1.4742 C   0  0  0  0  0  0  0  0  0  0  0  0
   -2.0900    0.0547   -0.7868 C   0  0  0  0  0  0  0  0  0  0  0  0
   -2.1469   -1.1959   -0.2049 C   0  0  0  0  0  0  0  0  0  0  0  0
    4.8231    1.9997   -2.3829 H   0  0  0  0  0  0  0  0  0  0  0  0
    4.7422    0.5452   -1.2488 H   0  0  0  0  0  0  0  0  0  0  0  0
    3.1487    3.1766   -1.2446 H   0  0  0  0  0  0  0  0  0  0  0  0
    2.9064    2.3046    1.2251 H   0  0  0  0  0  0  0  0  0  0  0  0
    0.7538    2.3791    0.5028 H   0  0  0  0  0  0  0  0  0  0  0  0
    1.0196    1.4388   -0.9987 H   0  0  0  0  0  0  0  0  0  0  0  0
    1.1742    1.4814    2.5333 H   0  0  0  0  0  0  0  0  0  0  0  0
    0.6695   -0.2418    2.8138 H   0  0  0  0  0  0  0  0  0  0  0  0
    2.8449   -1.0558    2.3798 H   0  0  0  0  0  0  0  0  0  0  0  0
    3.3261    0.6686    2.7861 H   0  0  0  0  0  0  0  0  0  0  0  0
    4.3499    0.2150    0.6976 H   0  0  0  0  0  0  0  0  0  0  0  0
    2.4655   -0.1895   -1.2579 H   0  0  0  0  0  0  0  0  0  0  0  0
    3.1758   -1.6274   -0.3382 H   0  0  0  0  0  0  0  0  0  0  0  0
    1.2954   -1.6563    1.1003 H   0  0  0  0  0  0  0  0  0  0  0  0
    0.2133   -0.9860   -1.7000 H   0  0  0  0  0  0  0  0  0  0  0  0
    1.4020   -3.1216   -0.3328 H   0  0  0  0  0  0  0  0  0  0  0  0
   -0.3177   -3.9194    0.4717 H   0  0  0  0  0  0  0  0  0  0  0  0
   -2.4808   -4.6000    1.4255 H   0  0  0  0  0  0  0  0  0  0  0  0
   -5.4176   -1.1155    0.7367 H   0  0  0  0  0  0  0  0  0  0  0  0
   -5.2297    1.1476   -0.3414 H   0  0  0  0  0  0  0  0  0  0  0  0
   -4.6325    3.0997   -0.4411 H   0  0  0  0  0  0  0  0  0  0  0  0
   -4.9866    2.4185   -2.0485 H   0  0  0  0  0  0  0  0  0  0  0  0
   -4.0012    3.9529   -1.9321 H   0  0  0  0  0  0  0  0  0  0  0  0
   -1.1795    0.4179   -1.2259 H   0  0  0  0  0  0  0  0  0  0  0  0
  1  2  2  3
  2  3  1  0
  3  4  1  0
  4  5  1  0
  5  6  1  0
  6  7  1  0
  7  8  1  0
  8  9  1  0
  9 10  1  0
 10 11  1  0
 11 12  1  0
 11 13  1  0
 13 14  2  0
 14 15  1  0
 15 16  2  0
 16 17  1  0
 17 18  2  0
 18 19  1  0
 19 20  2  0
 20 21  1  0
 21 22  1  0
 20 23  1  0
 23 24  2  0
  8  3  1  0
 24 13  1  0
 10  5  1  0
 24 17  1  0
  1 25  1  0
  1 26  1  0
  2 27  1  0
  3 28  1  1
  4 29  1  0
  4 30  1  0
  6 31  1  0
  6 32  1  0
  7 33  1  0
  7 34  1  0
  8 35  1  1
  9 36  1  0
  9 37  1  0
 10 38  1  1
 11 39  1  6
 12 40  1  0
 14 41  1  0
 15 42  1  0
 18 43  1  0
 19 44  1  0
 22 45  1  0
 22 46  1  0
 22 47  1  0
 23 48  1  0
M  END
$$$$
