@<TRIPOS>MOLECULE
*****
 39 39 0 0 0
SMALL
GASTEIGER

@<TRIPOS>ATOM
      1 O           5.3778    0.4002   -0.5774 O.2     1  UNL1       -0.2737
      2 C           4.7326    0.5073   -1.6285 C.2     1  UNL1        0.2354
      3 C           3.3107    0.8742   -1.6153 C.3     1  UNL1        0.0259
      4 C           2.7127    0.9643   -0.2428 C.3     1  UNL1       -0.0447
      5 C           2.7292   -0.3335    0.4983 C.3     1  UNL1       -0.0526
      6 C           2.1320   -0.2471    1.8803 C.3     1  UNL1       -0.0526
      7 C           0.7152    0.1990    1.8271 C.3     1  UNL1       -0.0448
      8 C          -0.1170   -0.7481    1.0214 C.3     1  UNL1        0.0243
      9 C          -1.5495   -0.2649    1.0123 C.2     1  UNL1        0.2172
     10 O          -1.8918    0.7833    1.6180 O.2     1  UNL1       -0.2755
     11 N          -2.5568   -0.9803    0.3181 N.am    1  UNL1       -0.2855
     12 C          -3.9137   -0.5560    0.2876 C.ar    1  UNL1        0.0334
     13 C          -4.3765    0.2866   -0.6938 C.ar    1  UNL1       -0.0405
     14 C          -5.6735    0.7262   -0.7703 C.ar    1  UNL1       -0.0600
     15 C          -6.5800    0.3046    0.1903 C.ar    1  UNL1       -0.0616
     16 C          -6.1490   -0.5379    1.1846 C.ar    1  UNL1       -0.0600
     17 C          -4.8467   -0.9666    1.2437 C.ar    1  UNL1       -0.0405
     18 N           5.3920    0.2681   -2.8658 N.am    1  UNL1       -0.1975
     19 O           6.6987   -0.0666   -2.8343 O.3     1  UNL1       -0.2952
     20 H           3.1809    1.8803   -2.1112 H       1  UNL1        0.0359
     21 H           2.7373    0.1597   -2.2632 H       1  UNL1        0.0359
     22 H           1.6835    1.3898   -0.2656 H       1  UNL1        0.0270
     23 H           3.3391    1.6799    0.3711 H       1  UNL1        0.0270
     24 H           3.8055   -0.6635    0.5854 H       1  UNL1        0.0265
     25 H           2.1646   -1.1309   -0.0633 H       1  UNL1        0.0265
     26 H           2.6911    0.4942    2.5158 H       1  UNL1        0.0265
     27 H           2.2454   -1.2633    2.3252 H       1  UNL1        0.0265
     28 H           0.6598    1.2449    1.4413 H       1  UNL1        0.0270
     29 H           0.2936    0.1976    2.8862 H       1  UNL1        0.0270
     30 H           0.2282   -0.7135   -0.0494 H       1  UNL1        0.0358
     31 H          -0.0844   -1.7800    1.3639 H       1  UNL1        0.0358
     32 H          -2.3130   -1.8525   -0.1952 H       1  UNL1        0.1548
     33 H          -3.6724    0.6187   -1.4463 H       1  UNL1        0.0636
     34 H          -6.0367    1.3895   -1.5433 H       1  UNL1        0.0618
     35 H          -7.6161    0.6584    0.1255 H       1  UNL1        0.0618
     36 H          -6.8541   -0.8621    1.9266 H       1  UNL1        0.0618
     37 H          -4.4694   -1.6371    2.0209 H       1  UNL1        0.0636
     38 H           4.9112    0.3406   -3.7806 H       1  UNL1        0.1822
     39 H           6.9594   -0.4755   -3.6975 H       1  UNL1        0.2414
@<TRIPOS>BOND
     1     1     2    2
     2     2     3    1
     3     3     4    1
     4     4     5    1
     5     5     6    1
     6     6     7    1
     7     7     8    1
     8     8     9    1
     9     9    10    2
    10     9    11   am
    11    11    12    1
    12    12    13   ar
    13    13    14   ar
    14    14    15   ar
    15    15    16   ar
    16    16    17   ar
    17     2    18   am
    18    18    19    1
    19    17    12   ar
    20     3    20    1
    21     3    21    1
    22     4    22    1
    23     4    23    1
    24     5    24    1
    25     5    25    1
    26     6    26    1
    27     6    27    1
    28     7    28    1
    29     7    29    1
    30     8    30    1
    31     8    31    1
    32    11    32    1
    33    13    33    1
    34    14    34    1
    35    15    35    1
    36    16    36    1
    37    17    37    1
    38    18    38    1
    39    19    39    1
