
     RDKit          3D

 39 39  0  0  0  0  0  0  0  0999 V2000
    5.3778    0.4002   -0.5774 O   0  0  0  0  0  0  0  0  0  0  0  0
    4.7326    0.5073   -1.6285 C   0  0  0  0  0  0  0  0  0  0  0  0
    3.3107    0.8742   -1.6153 C   0  0  0  0  0  0  0  0  0  0  0  0
    2.7127    0.9643   -0.2428 C   0  0  0  0  0  0  0  0  0  0  0  0
    2.7292   -0.3335    0.4983 C   0  0  0  0  0  0  0  0  0  0  0  0
    2.1320   -0.2471    1.8803 C   0  0  0  0  0  0  0  0  0  0  0  0
    0.7152    0.1990    1.8271 C   0  0  0  0  0  0  0  0  0  0  0  0
   -0.1170   -0.7481    1.0214 C   0  0  0  0  0  0  0  0  0  0  0  0
   -1.5495   -0.2649    1.0123 C   0  0  0  0  0  0  0  0  0  0  0  0
   -1.8918    0.7833    1.6180 O   0  0  0  0  0  0  0  0  0  0  0  0
   -2.5568   -0.9803    0.3181 N   0  0  0  0  0  0  0  0  0  0  0  0
   -3.9137   -0.5560    0.2876 C   0  0  0  0  0  0  0  0  0  0  0  0
   -4.3765    0.2866   -0.6938 C   0  0  0  0  0  0  0  0  0  0  0  0
   -5.6735    0.7262   -0.7703 C   0  0  0  0  0  0  0  0  0  0  0  0
   -6.5800    0.3046    0.1903 C   0  0  0  0  0  0  0  0  0  0  0  0
   -6.1490   -0.5379    1.1846 C   0  0  0  0  0  0  0  0  0  0  0  0
   -4.8467   -0.9666    1.2437 C   0  0  0  0  0  0  0  0  0  0  0  0
    5.3920    0.2681   -2.8658 N   0  0  0  0  0  0  0  0  0  0  0  0
    6.6987   -0.0666   -2.8343 O   0  0  0  0  0  0  0  0  0  0  0  0
    3.1809    1.8803   -2.1112 H   0  0  0  0  0  0  0  0  0  0  0  0
    2.7373    0.1597   -2.2632 H   0  0  0  0  0  0  0  0  0  0  0  0
    1.6835    1.3898   -0.2656 H   0  0  0  0  0  0  0  0  0  0  0  0
    3.3391    1.6799    0.3711 H   0  0  0  0  0  0  0  0  0  0  0  0
    3.8055   -0.6635    0.5854 H   0  0  0  0  0  0  0  0  0  0  0  0
    2.1646   -1.1309   -0.0633 H   0  0  0  0  0  0  0  0  0  0  0  0
    2.6911    0.4942    2.5158 H   0  0  0  0  0  0  0  0  0  0  0  0
    2.2454   -1.2633    2.3252 H   0  0  0  0  0  0  0  0  0  0  0  0
    0.6598    1.2449    1.4413 H   0  0  0  0  0  0  0  0  0  0  0  0
    0.2936    0.1976    2.8862 H   0  0  0  0  0  0  0  0  0  0  0  0
    0.2282   -0.7135   -0.0494 H   0  0  0  0  0  0  0  0  0  0  0  0
   -0.0844   -1.7800    1.3639 H   0  0  0  0  0  0  0  0  0  0  0  0
   -2.3130   -1.8525   -0.1952 H   0  0  0  0  0  0  0  0  0  0  0  0
   -3.6724    0.6187   -1.4463 H   0  0  0  0  0  0  0  0  0  0  0  0
   -6.0367    1.3895   -1.5433 H   0  0  0  0  0  0  0  0  0  0  0  0
   -7.6161    0.6584    0.1255 H   0  0  0  0  0  0  0  0  0  0  0  0
   -6.8541   -0.8621    1.9266 H   0  0  0  0  0  0  0  0  0  0  0  0
   -4.4694   -1.6371    2.0209 H   0  0  0  0  0  0  0  0  0  0  0  0
    4.9112    0.3406   -3.7806 H   0  0  0  0  0  0  0  0  0  0  0  0
    6.9594   -0.4755   -3.6975 H   0  0  0  0  0  0  0  0  0  0  0  0
  1  2  2  0
  2  3  1  0
  3  4  1  0
  4  5  1  0
  5  6  1  0
  6  7  1  0
  7  8  1  0
  8  9  1  0
  9 10  2  0
  9 11  1  0
 11 12  1  0
 12 13  2  0
 13 14  1  0
 14 15  2  0
 15 16  1  0
 16 17  2  0
  2 18  1  0
 18 19  1  0
 17 12  1  0
  3 20  1  0
  3 21  1  0
  4 22  1  0
  4 23  1  0
  5 24  1  0
  5 25  1  0
  6 26  1  0
  6 27  1  0
  7 28  1  0
  7 29  1  0
  8 30  1  0
  8 31  1  0
 11 32  1  0
 13 33  1  0
 14 34  1  0
 15 35  1  0
 16 36  1  0
 17 37  1  0
 18 38  1  0
 19 39  1  0
M  END
$$$$
