@<TRIPOS>MOLECULE
*****
 37 39 0 0 0
SMALL
GASTEIGER

@<TRIPOS>ATOM
      1 C          -1.7561    2.8658   -1.7558 C.3     1  UNL1        0.0817
      2 O          -1.5639    1.6385   -1.1167 O.3     1  UNL1       -0.4677
      3 C          -0.5648    0.7918   -1.5355 C.2     1  UNL1        0.3117
      4 O           0.1597    1.1686   -2.5089 O.2     1  UNL1       -0.2505
      5 C          -0.3690   -0.5026   -0.8544 C.3     1  UNL1        0.0773
      6 C          -1.6407   -1.2862   -1.0070 C.3     1  UNL1        0.0486
      7 C          -2.5346   -0.9469    0.1246 C.3     1  UNL1       -0.0369
      8 C          -2.2923   -1.7596    1.3231 C.3     1  UNL1       -0.0377
      9 C          -1.0041   -2.5677    1.1525 C.3     1  UNL1        0.0357
     10 C           0.1269   -1.6314    1.3540 C.3     1  UNL1       -0.0312
     11 C           0.1320   -0.3932    0.5544 C.3     1  UNL1       -0.0007
     12 C           1.4314    0.3089    0.4857 C.ar    1  UNL1       -0.0406
     13 C           2.5522   -0.2799   -0.0897 C.ar    1  UNL1       -0.0567
     14 C           3.7115    0.4451   -0.1085 C.ar    1  UNL1       -0.0403
     15 C           3.8002    1.7284    0.4204 C.ar    1  UNL1        0.0761
     16 CL          5.3064    2.6129    0.3711 Cl      1  UNL1       -0.0806
     17 C           2.7019    2.3018    0.9827 C.ar    1  UNL1        0.1419
     18 F           2.7299    3.5555    1.5162 F       1  UNL1       -0.2040
     19 C           1.5130    1.5814    1.0120 C.ar    1  UNL1       -0.0215
     20 S          -1.2434   -3.0267   -0.5971 S.O     1  UNL1        0.0292
     21 O           0.0444   -3.4549   -1.2339 O.2     1  UNL1       -0.2566
     22 H          -2.5021    2.7412   -2.5815 H       1  UNL1        0.0661
     23 H          -2.1718    3.5943   -1.0197 H       1  UNL1        0.0661
     24 H          -0.8170    3.2656   -2.1726 H       1  UNL1        0.0661
     25 H           0.3905   -1.0583   -1.4860 H       1  UNL1        0.0431
     26 H          -2.0450   -1.1815   -2.0050 H       1  UNL1        0.0445
     27 H          -3.5933   -1.0943   -0.2454 H       1  UNL1        0.0277
     28 H          -2.4788    0.1313    0.3589 H       1  UNL1        0.0277
     29 H          -2.1844   -1.1683    2.2587 H       1  UNL1        0.0277
     30 H          -3.1308   -2.4673    1.4789 H       1  UNL1        0.0277
     31 H          -1.0195   -3.4323    1.8016 H       1  UNL1        0.0437
     32 H           0.1661   -1.4025    2.4415 H       1  UNL1        0.0283
     33 H           1.0790   -2.2045    1.1682 H       1  UNL1        0.0283
     34 H          -0.5553    0.3131    1.0579 H       1  UNL1        0.0357
     35 H           2.3864   -1.2651   -0.4678 H       1  UNL1        0.0621
     36 H           4.5785   -0.0098   -0.5534 H       1  UNL1        0.0633
     37 H           0.6568    2.0890    1.4766 H       1  UNL1        0.0649
@<TRIPOS>BOND
     1     1     2    1
     2     2     3    1
     3     3     4    2
     4     3     5    1
     5     5     6    1
     6     6     7    1
     7     7     8    1
     8     8     9    1
     9     9    10    1
    10    10    11    1
    11    11    12    1
    12    12    13   ar
    13    13    14   ar
    14    14    15   ar
    15    15    16    1
    16    15    17   ar
    17    17    18    1
    18    17    19   ar
    19     9    20    1
    20    20    21    2
    21    11     5    1
    22    19    12   ar
    23    20     6    1
    24     1    22    1
    25     1    23    1
    26     1    24    1
    27     5    25    1
    28     6    26    1
    29     7    27    1
    30     7    28    1
    31     8    29    1
    32     8    30    1
    33     9    31    1
    34    10    32    1
    35    10    33    1
    36    11    34    1
    37    13    35    1
    38    14    36    1
    39    19    37    1
