
     RDKit          3D

 37 39  0  0  0  0  0  0  0  0999 V2000
   -1.7561    2.8658   -1.7558 C   0  0  0  0  0  0  0  0  0  0  0  0
   -1.5639    1.6385   -1.1167 O   0  0  0  0  0  0  0  0  0  0  0  0
   -0.5648    0.7918   -1.5355 C   0  0  0  0  0  0  0  0  0  0  0  0
    0.1597    1.1686   -2.5089 O   0  0  0  0  0  0  0  0  0  0  0  0
   -0.3690   -0.5026   -0.8544 C   0  0  2  0  0  0  0  0  0  0  0  0
   -1.6407   -1.2862   -1.0070 C   0  0  0  0  0  0  0  0  0  0  0  0
   -2.5346   -0.9469    0.1246 C   0  0  0  0  0  0  0  0  0  0  0  0
   -2.2923   -1.7596    1.3231 C   0  0  0  0  0  0  0  0  0  0  0  0
   -1.0041   -2.5677    1.1525 C   0  0  0  0  0  0  0  0  0  0  0  0
    0.1269   -1.6314    1.3540 C   0  0  0  0  0  0  0  0  0  0  0  0
    0.1320   -0.3932    0.5544 C   0  0  1  0  0  0  0  0  0  0  0  0
    1.4314    0.3089    0.4857 C   0  0  0  0  0  0  0  0  0  0  0  0
    2.5522   -0.2799   -0.0897 C   0  0  0  0  0  0  0  0  0  0  0  0
    3.7115    0.4451   -0.1085 C   0  0  0  0  0  0  0  0  0  0  0  0
    3.8002    1.7284    0.4204 C   0  0  0  0  0  0  0  0  0  0  0  0
    5.3064    2.6129    0.3711 Cl  0  0  0  0  0  0  0  0  0  0  0  0
    2.7019    2.3018    0.9827 C   0  0  0  0  0  0  0  0  0  0  0  0
    2.7299    3.5555    1.5162 F   0  0  0  0  0  0  0  0  0  0  0  0
    1.5130    1.5814    1.0120 C   0  0  0  0  0  0  0  0  0  0  0  0
   -1.2434   -3.0267   -0.5971 S   0  0  0  0  0  4  0  0  0  0  0  0
    0.0444   -3.4549   -1.2339 O   0  0  0  0  0  0  0  0  0  0  0  0
   -2.5021    2.7412   -2.5815 H   0  0  0  0  0  0  0  0  0  0  0  0
   -2.1718    3.5943   -1.0197 H   0  0  0  0  0  0  0  0  0  0  0  0
   -0.8170    3.2656   -2.1726 H   0  0  0  0  0  0  0  0  0  0  0  0
    0.3905   -1.0583   -1.4860 H   0  0  0  0  0  0  0  0  0  0  0  0
   -2.0450   -1.1815   -2.0050 H   0  0  0  0  0  0  0  0  0  0  0  0
   -3.5933   -1.0943   -0.2454 H   0  0  0  0  0  0  0  0  0  0  0  0
   -2.4788    0.1313    0.3589 H   0  0  0  0  0  0  0  0  0  0  0  0
   -2.1844   -1.1683    2.2587 H   0  0  0  0  0  0  0  0  0  0  0  0
   -3.1308   -2.4673    1.4789 H   0  0  0  0  0  0  0  0  0  0  0  0
   -1.0195   -3.4323    1.8016 H   0  0  0  0  0  0  0  0  0  0  0  0
    0.1661   -1.4025    2.4415 H   0  0  0  0  0  0  0  0  0  0  0  0
    1.0790   -2.2045    1.1682 H   0  0  0  0  0  0  0  0  0  0  0  0
   -0.5553    0.3131    1.0579 H   0  0  0  0  0  0  0  0  0  0  0  0
    2.3864   -1.2651   -0.4678 H   0  0  0  0  0  0  0  0  0  0  0  0
    4.5785   -0.0098   -0.5534 H   0  0  0  0  0  0  0  0  0  0  0  0
    0.6568    2.0890    1.4766 H   0  0  0  0  0  0  0  0  0  0  0  0
  1  2  1  0
  2  3  1  0
  3  4  2  0
  3  5  1  0
  5  6  1  0
  6  7  1  0
  7  8  1  0
  8  9  1  0
  9 10  1  0
 10 11  1  0
 11 12  1  0
 12 13  2  0
 13 14  1  0
 14 15  2  0
 15 16  1  0
 15 17  1  0
 17 18  1  0
 17 19  2  0
  9 20  1  0
 20 21  2  0
 11  5  1  0
 19 12  1  0
 20  6  1  0
  1 22  1  0
  1 23  1  0
  1 24  1  0
  5 25  1  6
  6 26  1  0
  7 27  1  0
  7 28  1  0
  8 29  1  0
  8 30  1  0
  9 31  1  0
 10 32  1  0
 10 33  1  0
 11 34  1  1
 13 35  1  0
 14 36  1  0
 19 37  1  0
M  END
$$$$
