
     RDKit          3D

 56 58  0  0  0  0  0  0  0  0999 V2000
    7.5186   -1.0682    2.3519 C   0  0  0  0  0  0  0  0  0  0  0  0
    7.4916   -0.1225    1.3534 O   0  0  0  0  0  0  0  0  0  0  0  0
    6.2246    0.3601    1.0851 C   0  0  0  0  0  0  0  0  0  0  0  0
    5.2558   -0.7233    0.6387 C   0  0  0  0  0  0  0  0  0  0  0  0
    3.9117   -0.0790    0.3702 C   0  0  0  0  0  0  0  0  0  0  0  0
    2.8833   -1.0651   -0.0747 C   0  0  0  0  0  0  0  0  0  0  0  0
    3.2349   -1.7960   -1.3504 C   0  0  0  0  0  0  0  0  0  0  0  0
    2.6977   -0.8622   -2.4204 C   0  0  0  0  0  0  0  0  0  0  0  0
    1.4480   -0.3219   -1.7426 C   0  0  0  0  0  0  0  0  0  0  0  0
    1.6062   -0.5352   -0.3477 N   0  0  0  0  0  0  0  0  0  0  0  0
    1.1262    0.7788    0.6266 S   0  0  0  0  0  6  0  0  0  0  0  0
    1.3166    0.5612    2.0737 O   0  0  0  0  0  0  0  0  0  0  0  0
    1.8312    2.0620    0.2263 O   0  0  0  0  0  0  0  0  0  0  0  0
   -0.5889    1.0444    0.3421 C   0  0  0  0  0  0  0  0  0  0  0  0
   -1.5035    0.3916    1.1205 C   0  0  0  0  0  0  0  0  0  0  0  0
   -2.8560    0.5541    0.9508 C   0  0  0  0  0  0  0  0  0  0  0  0
   -3.3719    1.3964   -0.0284 C   0  0  0  0  0  0  0  0  0  0  0  0
   -2.4070    2.0443   -0.8009 C   0  0  0  0  0  0  0  0  0  0  0  0
   -1.0491    1.8826   -0.6320 C   0  0  0  0  0  0  0  0  0  0  0  0
   -3.1175    2.8927   -1.7683 C   0  0  0  0  0  0  0  0  0  0  0  0
   -2.5540    3.6270   -2.6312 O   0  0  0  0  0  0  0  0  0  0  0  0
   -4.5225    2.7007   -1.5155 C   0  0  0  0  0  0  0  0  0  0  0  0
   -5.4715    3.2337   -2.1120 O   0  0  0  0  0  0  0  0  0  0  0  0
   -4.6721    1.7646   -0.4285 N   0  0  0  0  0  0  0  0  0  0  0  0
   -5.9465    1.3432    0.1135 C   0  0  0  0  0  0  0  0  0  0  0  0
   -6.5327    0.1663   -0.5750 C   0  0  0  0  0  0  0  0  0  0  0  0
   -5.7977   -1.1115   -0.4154 C   0  0  0  0  0  0  0  0  0  0  0  0
   -5.8883   -1.5804    1.0482 C   0  0  0  0  0  0  0  0  0  0  0  0
   -7.2683   -1.7980    1.2766 F   0  0  0  0  0  0  0  0  0  0  0  0
    7.1237   -0.6645    3.3154 H   0  0  0  0  0  0  0  0  0  0  0  0
    7.0274   -1.9929    2.0241 H   0  0  0  0  0  0  0  0  0  0  0  0
    8.5730   -1.3693    2.6049 H   0  0  0  0  0  0  0  0  0  0  0  0
    5.8474    0.8271    2.0417 H   0  0  0  0  0  0  0  0  0  0  0  0
    6.2773    1.1717    0.3322 H   0  0  0  0  0  0  0  0  0  0  0  0
    5.6982   -1.2234   -0.2259 H   0  0  0  0  0  0  0  0  0  0  0  0
    5.1526   -1.4270    1.5157 H   0  0  0  0  0  0  0  0  0  0  0  0
    3.5775    0.3558    1.3345 H   0  0  0  0  0  0  0  0  0  0  0  0
    4.0593    0.7616   -0.3201 H   0  0  0  0  0  0  0  0  0  0  0  0
    2.8010   -1.8485    0.7330 H   0  0  0  0  0  0  0  0  0  0  0  0
    2.6483   -2.7474   -1.3328 H   0  0  0  0  0  0  0  0  0  0  0  0
    4.3003   -2.0003   -1.4730 H   0  0  0  0  0  0  0  0  0  0  0  0
    3.4544   -0.0621   -2.5547 H   0  0  0  0  0  0  0  0  0  0  0  0
    2.4579   -1.3932   -3.3597 H   0  0  0  0  0  0  0  0  0  0  0  0
    1.2391    0.7185   -2.0319 H   0  0  0  0  0  0  0  0  0  0  0  0
    0.5995   -0.9415   -2.1149 H   0  0  0  0  0  0  0  0  0  0  0  0
   -1.1509   -0.2898    1.9129 H   0  0  0  0  0  0  0  0  0  0  0  0
   -3.5527    0.0406    1.5813 H   0  0  0  0  0  0  0  0  0  0  0  0
   -0.3278    2.4133   -1.2641 H   0  0  0  0  0  0  0  0  0  0  0  0
   -6.6691    2.1944   -0.0044 H   0  0  0  0  0  0  0  0  0  0  0  0
   -5.8692    1.1627    1.2011 H   0  0  0  0  0  0  0  0  0  0  0  0
   -6.7282    0.4296   -1.6419 H   0  0  0  0  0  0  0  0  0  0  0  0
   -7.5627    0.0225   -0.1464 H   0  0  0  0  0  0  0  0  0  0  0  0
   -4.7423   -1.0786   -0.7086 H   0  0  0  0  0  0  0  0  0  0  0  0
   -6.3072   -1.9029   -0.9995 H   0  0  0  0  0  0  0  0  0  0  0  0
   -5.5765   -0.7871    1.7211 H   0  0  0  0  0  0  0  0  0  0  0  0
   -5.3491   -2.5230    1.1252 H   0  0  0  0  0  0  0  0  0  0  0  0
  1  2  1  0
  2  3  1  0
  3  4  1  0
  4  5  1  0
  5  6  1  0
  6  7  1  0
  7  8  1  0
  8  9  1  0
  9 10  1  0
 10 11  1  0
 11 12  2  0
 11 13  2  0
 11 14  1  0
 14 15  2  0
 15 16  1  0
 16 17  2  0
 17 18  1  0
 18 19  2  0
 18 20  1  0
 20 21  2  0
 20 22  1  0
 22 23  2  0
 22 24  1  0
 24 25  1  0
 25 26  1  0
 26 27  1  0
 27 28  1  0
 28 29  1  0
 10  6  1  0
 19 14  1  0
 24 17  1  0
  1 30  1  0
  1 31  1  0
  1 32  1  0
  3 33  1  0
  3 34  1  0
  4 35  1  0
  4 36  1  0
  5 37  1  0
  5 38  1  0
  6 39  1  0
  7 40  1  0
  7 41  1  0
  8 42  1  0
  8 43  1  0
  9 44  1  0
  9 45  1  0
 15 46  1  0
 16 47  1  0
 19 48  1  0
 25 49  1  0
 25 50  1  0
 26 51  1  0
 26 52  1  0
 27 53  1  0
 27 54  1  0
 28 55  1  0
 28 56  1  0
M  END
$$$$
