@<TRIPOS>MOLECULE
*****
 56 58 0 0 0
SMALL
GASTEIGER

@<TRIPOS>ATOM
      1 C           7.5186   -1.0682    2.3519 C.3     1  UNL1        0.0364
      2 O           7.4916   -0.1225    1.3534 O.3     1  UNL1       -0.3830
      3 C           6.2246    0.3601    1.0851 C.3     1  UNL1        0.0474
      4 C           5.2558   -0.7233    0.6387 C.3     1  UNL1       -0.0280
      5 C           3.9117   -0.0790    0.3702 C.3     1  UNL1       -0.0336
      6 C           2.8833   -1.0651   -0.0747 C.3     1  UNL1        0.0320
      7 C           3.2349   -1.7960   -1.3504 C.3     1  UNL1       -0.0345
      8 C           2.6977   -0.8622   -2.4204 C.3     1  UNL1       -0.0371
      9 C           1.4480   -0.3219   -1.7426 C.3     1  UNL1        0.0209
     10 N           1.6062   -0.5352   -0.3477 N.3     1  UNL1       -0.1735
     11 S           1.1262    0.7788    0.6266 S.O2    1  UNL1        0.0611
     12 O           1.3166    0.5612    2.0737 O.2     1  UNL1       -0.1528
     13 O           1.8312    2.0620    0.2263 O.2     1  UNL1       -0.1528
     14 C          -0.5889    1.0444    0.3421 C.ar    1  UNL1        0.1063
     15 C          -1.5035    0.3916    1.1205 C.ar    1  UNL1       -0.0335
     16 C          -2.8560    0.5541    0.9508 C.ar    1  UNL1       -0.0377
     17 C          -3.3719    1.3964   -0.0284 C.ar    1  UNL1        0.0477
     18 C          -2.4070    2.0443   -0.8009 C.ar    1  UNL1        0.0502
     19 C          -1.0491    1.8826   -0.6320 C.ar    1  UNL1       -0.0226
     20 C          -3.1175    2.8927   -1.7683 C.2     1  UNL1        0.2496
     21 O          -2.5540    3.6270   -2.6312 O.2     1  UNL1       -0.2817
     22 C          -4.5225    2.7007   -1.5155 C.2     1  UNL1        0.2913
     23 O          -5.4715    3.2337   -2.1120 O.2     1  UNL1       -0.2661
     24 N          -4.6721    1.7646   -0.4285 N.am    1  UNL1       -0.2641
     25 C          -5.9465    1.3432    0.1135 C.3     1  UNL1        0.0203
     26 C          -6.5327    0.1663   -0.5750 C.3     1  UNL1       -0.0344
     27 C          -5.7977   -1.1115   -0.4154 C.3     1  UNL1       -0.0232
     28 C          -5.8883   -1.5804    1.0482 C.3     1  UNL1        0.0902
     29 F          -7.2683   -1.7980    1.2766 F       1  UNL1       -0.2491
     30 H           7.1237   -0.6645    3.3154 H       1  UNL1        0.0523
     31 H           7.0274   -1.9929    2.0241 H       1  UNL1        0.0523
     32 H           8.5730   -1.3693    2.6049 H       1  UNL1        0.0523
     33 H           5.8474    0.8271    2.0417 H       1  UNL1        0.0560
     34 H           6.2773    1.1717    0.3322 H       1  UNL1        0.0560
     35 H           5.6982   -1.2234   -0.2259 H       1  UNL1        0.0288
     36 H           5.1526   -1.4270    1.5157 H       1  UNL1        0.0288
     37 H           3.5775    0.3558    1.3345 H       1  UNL1        0.0282
     38 H           4.0593    0.7616   -0.3201 H       1  UNL1        0.0282
     39 H           2.8010   -1.8485    0.7330 H       1  UNL1        0.0480
     40 H           2.6483   -2.7474   -1.3328 H       1  UNL1        0.0281
     41 H           4.3003   -2.0003   -1.4730 H       1  UNL1        0.0281
     42 H           3.4544   -0.0621   -2.5547 H       1  UNL1        0.0279
     43 H           2.4579   -1.3932   -3.3597 H       1  UNL1        0.0279
     44 H           1.2391    0.7185   -2.0319 H       1  UNL1        0.0444
     45 H           0.5995   -0.9415   -2.1149 H       1  UNL1        0.0444
     46 H          -1.1509   -0.2898    1.9129 H       1  UNL1        0.0638
     47 H          -3.5527    0.0406    1.5813 H       1  UNL1        0.0637
     48 H          -0.3278    2.4133   -1.2641 H       1  UNL1        0.0645
     49 H          -6.6691    2.1944   -0.0044 H       1  UNL1        0.0469
     50 H          -5.8692    1.1627    1.2011 H       1  UNL1        0.0469
     51 H          -6.7282    0.4296   -1.6419 H       1  UNL1        0.0281
     52 H          -7.5627    0.0225   -0.1464 H       1  UNL1        0.0281
     53 H          -4.7423   -1.0786   -0.7086 H       1  UNL1        0.0291
     54 H          -6.3072   -1.9029   -0.9995 H       1  UNL1        0.0291
     55 H          -5.5765   -0.7871    1.7211 H       1  UNL1        0.0615
     56 H          -5.3491   -2.5230    1.1252 H       1  UNL1        0.0615
@<TRIPOS>BOND
     1     1     2    1
     2     2     3    1
     3     3     4    1
     4     4     5    1
     5     5     6    1
     6     6     7    1
     7     7     8    1
     8     8     9    1
     9     9    10    1
    10    10    11    1
    11    11    12    2
    12    11    13    2
    13    11    14    1
    14    14    15   ar
    15    15    16   ar
    16    16    17   ar
    17    17    18   ar
    18    18    19   ar
    19    18    20    1
    20    20    21    2
    21    20    22    1
    22    22    23    2
    23    22    24   am
    24    24    25    1
    25    25    26    1
    26    26    27    1
    27    27    28    1
    28    28    29    1
    29    10     6    1
    30    19    14   ar
    31    24    17    1
    32     1    30    1
    33     1    31    1
    34     1    32    1
    35     3    33    1
    36     3    34    1
    37     4    35    1
    38     4    36    1
    39     5    37    1
    40     5    38    1
    41     6    39    1
    42     7    40    1
    43     7    41    1
    44     8    42    1
    45     8    43    1
    46     9    44    1
    47     9    45    1
    48    15    46    1
    49    16    47    1
    50    19    48    1
    51    25    49    1
    52    25    50    1
    53    26    51    1
    54    26    52    1
    55    27    53    1
    56    27    54    1
    57    28    55    1
    58    28    56    1
