@<TRIPOS>MOLECULE
*****
 27 28 0 0 0
SMALL
GASTEIGER

@<TRIPOS>ATOM
      1 C          -2.2480   -0.0894   -0.5368 C.3     1  UNL1        0.0952
      2 O          -3.4763   -0.1191    0.0760 O.3     1  UNL1       -0.3879
      3 C          -1.3160   -1.1992   -0.0576 C.3     1  UNL1        0.0279
      4 N          -0.1000   -0.7597   -0.6853 N.3     1  UNL1       -0.2921
      5 C           1.0351   -1.5569   -0.5338 C.3     1  UNL1       -0.0005
      6 C           2.2272   -0.9773    0.1239 C.3     1  UNL1       -0.0378
      7 C           2.3217    0.5350   -0.0455 C.3     1  UNL1       -0.0241
      8 C           1.0046    1.0337    0.5462 C.3     1  UNL1        0.0733
      9 O           1.0867    2.3956    0.6716 O.3     1  UNL1       -0.3902
     10 C          -0.0272    0.6288   -0.4646 C.3     1  UNL1        0.0649
     11 C          -1.4190    1.1201   -0.1527 C.3     1  UNL1        0.1001
     12 O          -1.6115    1.4267    1.1797 O.3     1  UNL1       -0.3875
     13 H          -2.2696   -0.1295   -1.6337 H       1  UNL1        0.0632
     14 H          -3.8719   -0.9986   -0.1297 H       1  UNL1        0.2099
     15 H          -1.6812   -2.1824   -0.3830 H       1  UNL1        0.0453
     16 H          -1.2484   -1.1429    1.0586 H       1  UNL1        0.0453
     17 H           0.7571   -2.4947    0.0201 H       1  UNL1        0.0427
     18 H           1.3527   -1.9250   -1.5461 H       1  UNL1        0.0427
     19 H           3.1679   -1.4543   -0.1820 H       1  UNL1        0.0278
     20 H           2.1226   -1.1360    1.2271 H       1  UNL1        0.0278
     21 H           3.1916    0.9060    0.4943 H       1  UNL1        0.0291
     22 H           2.3712    0.8173   -1.1088 H       1  UNL1        0.0291
     23 H           0.9057    0.4983    1.5172 H       1  UNL1        0.0610
     24 H           0.2547    2.8277    0.9610 H       1  UNL1        0.2098
     25 H           0.2687    1.1187   -1.4261 H       1  UNL1        0.0514
     26 H          -1.6985    2.0083   -0.7750 H       1  UNL1        0.0636
     27 H          -1.1001    0.8488    1.7852 H       1  UNL1        0.2100
@<TRIPOS>BOND
     1     1     2    1
     2     1     3    1
     3     3     4    1
     4     4     5    1
     5     5     6    1
     6     6     7    1
     7     7     8    1
     8     8     9    1
     9     8    10    1
    10    10    11    1
    11    11    12    1
    12    11     1    1
    13    10     4    1
    14     1    13    1
    15     2    14    1
    16     3    15    1
    17     3    16    1
    18     5    17    1
    19     5    18    1
    20     6    19    1
    21     6    20    1
    22     7    21    1
    23     7    22    1
    24     8    23    1
    25     9    24    1
    26    10    25    1
    27    11    26    1
    28    12    27    1
