
     RDKit          3D

 27 28  0  0  0  0  0  0  0  0999 V2000
   -2.2480   -0.0894   -0.5368 C   0  0  2  0  0  0  0  0  0  0  0  0
   -3.4763   -0.1191    0.0760 O   0  0  0  0  0  0  0  0  0  0  0  0
   -1.3160   -1.1992   -0.0576 C   0  0  0  0  0  0  0  0  0  0  0  0
   -0.1000   -0.7597   -0.6853 N   0  0  0  0  0  0  0  0  0  0  0  0
    1.0351   -1.5569   -0.5338 C   0  0  0  0  0  0  0  0  0  0  0  0
    2.2272   -0.9773    0.1239 C   0  0  0  0  0  0  0  0  0  0  0  0
    2.3217    0.5350   -0.0455 C   0  0  0  0  0  0  0  0  0  0  0  0
    1.0046    1.0337    0.5462 C   0  0  1  0  0  0  0  0  0  0  0  0
    1.0867    2.3956    0.6716 O   0  0  0  0  0  0  0  0  0  0  0  0
   -0.0272    0.6288   -0.4646 C   0  0  2  0  0  0  0  0  0  0  0  0
   -1.4190    1.1201   -0.1527 C   0  0  2  0  0  0  0  0  0  0  0  0
   -1.6115    1.4267    1.1797 O   0  0  0  0  0  0  0  0  0  0  0  0
   -2.2696   -0.1295   -1.6337 H   0  0  0  0  0  0  0  0  0  0  0  0
   -3.8719   -0.9986   -0.1297 H   0  0  0  0  0  0  0  0  0  0  0  0
   -1.6812   -2.1824   -0.3830 H   0  0  0  0  0  0  0  0  0  0  0  0
   -1.2484   -1.1429    1.0586 H   0  0  0  0  0  0  0  0  0  0  0  0
    0.7571   -2.4947    0.0201 H   0  0  0  0  0  0  0  0  0  0  0  0
    1.3527   -1.9250   -1.5461 H   0  0  0  0  0  0  0  0  0  0  0  0
    3.1679   -1.4543   -0.1820 H   0  0  0  0  0  0  0  0  0  0  0  0
    2.1226   -1.1360    1.2271 H   0  0  0  0  0  0  0  0  0  0  0  0
    3.1916    0.9060    0.4943 H   0  0  0  0  0  0  0  0  0  0  0  0
    2.3712    0.8173   -1.1088 H   0  0  0  0  0  0  0  0  0  0  0  0
    0.9057    0.4983    1.5172 H   0  0  0  0  0  0  0  0  0  0  0  0
    0.2547    2.8277    0.9610 H   0  0  0  0  0  0  0  0  0  0  0  0
    0.2687    1.1187   -1.4261 H   0  0  0  0  0  0  0  0  0  0  0  0
   -1.6985    2.0083   -0.7750 H   0  0  0  0  0  0  0  0  0  0  0  0
   -1.1001    0.8488    1.7852 H   0  0  0  0  0  0  0  0  0  0  0  0
  1  2  1  0
  1  3  1  0
  3  4  1  0
  4  5  1  0
  5  6  1  0
  6  7  1  0
  7  8  1  0
  8  9  1  0
  8 10  1  0
 10 11  1  0
 11 12  1  0
 11  1  1  0
 10  4  1  0
  1 13  1  6
  2 14  1  0
  3 15  1  0
  3 16  1  0
  5 17  1  0
  5 18  1  0
  6 19  1  0
  6 20  1  0
  7 21  1  0
  7 22  1  0
  8 23  1  1
  9 24  1  0
 10 25  1  6
 11 26  1  6
 12 27  1  0
M  END
$$$$
