@<TRIPOS>MOLECULE
*****
 61 65 0 0 0
SMALL
GASTEIGER

@<TRIPOS>ATOM
      1 C          -4.7900   -3.7945   -0.9743 C.3     1  UNL1        0.0029
      2 N          -4.0883   -2.4914   -0.7277 N.am    1  UNL1       -0.3064
      3 C          -2.8763   -2.6077    0.0207 C.3     1  UNL1        0.0029
      4 C          -4.6984   -1.3450   -1.2624 C.2     1  UNL1        0.2319
      5 O          -5.8083   -1.5558   -1.9207 O.2     1  UNL1       -0.2741
      6 C          -4.2915    0.0488   -1.2021 C.3     1  UNL1        0.1054
      7 C          -2.9349    0.4560   -1.7581 C.3     1  UNL1       -0.0220
      8 C          -3.2545    0.5296   -0.3191 C.3     1  UNL1        0.0134
      9 C          -3.4426    1.8278    0.3932 C.3     1  UNL1        0.0935
     10 C          -4.3198    1.5047    1.6041 C.3     1  UNL1       -0.0351
     11 C          -2.0900    2.2499    0.9089 C.ar    1  UNL1        0.0158
     12 C          -0.9570    1.5664    0.5257 C.ar    1  UNL1       -0.0463
     13 C           0.3062    1.9452    0.9703 C.ar    1  UNL1       -0.0217
     14 C           1.5218    1.2468    0.5859 C.2     1  UNL1       -0.0171
     15 C           1.5574   -0.0616    0.5058 C.2     1  UNL1        0.1507
     16 F           0.4183   -0.7645    0.7956 F       1  UNL1       -0.2032
     17 C           2.7217   -0.8335    0.1175 C.ar    1  UNL1        0.1172
     18 C           3.9491   -0.2898   -0.2104 C.ar    1  UNL1        0.0596
     19 N           4.9919   -1.0624   -0.5768 N.ar    1  UNL1       -0.2178
     20 C           4.8836   -2.3912   -0.6392 C.ar    1  UNL1        0.2339
     21 O           5.9126   -3.2291   -1.0070 O.3     1  UNL1       -0.4658
     22 C           7.2030   -2.7850   -1.3598 C.3     1  UNL1        0.1668
     23 C           7.7850   -2.0503   -0.2202 C.ar    1  UNL1        0.2333
     24 N           7.6777   -0.7233    0.0089 N.ar    1  UNL1       -0.2189
     25 C           8.3400   -0.4288    1.1433 C.ar    1  UNL1        0.0660
     26 C           8.8568   -1.6042    1.6065 C.ar    1  UNL1        0.1123
     27 O           8.4947   -2.5463    0.7516 O.2     1  UNL1       -0.4446
     28 C           3.6671   -2.9697   -0.3164 C.ar    1  UNL1        0.0898
     29 N           2.6526   -2.1800    0.0427 N.ar    1  UNL1       -0.2459
     30 C           0.3367    3.0383    1.8088 C.ar    1  UNL1       -0.0518
     31 C          -0.7917    3.7319    2.1995 C.ar    1  UNL1       -0.0255
     32 C          -2.0309    3.3482    1.7543 C.ar    1  UNL1        0.1289
     33 F          -3.1921    3.9557    2.0750 F       1  UNL1       -0.2051
     34 N          -3.9352    2.9294   -0.3453 N.2     1  UNL1       -0.2521
     35 C          -4.8464    2.8981   -1.2417 C.2     1  UNL1        0.1485
     36 N          -5.2514    4.0876   -1.9130 N.pl3   1  UNL1       -0.3380
     37 S          -5.5648    1.3095   -1.5949 S.3     1  UNL1       -0.0746
     38 H          -5.8436   -3.5729   -1.1367 H       1  UNL1        0.0428
     39 H          -4.6891   -4.4187   -0.0861 H       1  UNL1        0.0428
     40 H          -4.2847   -4.3005   -1.8177 H       1  UNL1        0.0428
     41 H          -1.9830   -2.2113   -0.4918 H       1  UNL1        0.0428
     42 H          -2.9695   -2.3086    1.0948 H       1  UNL1        0.0428
     43 H          -2.6151   -3.7218    0.1257 H       1  UNL1        0.0428
     44 H          -2.8253    1.3558   -2.3739 H       1  UNL1        0.0287
     45 H          -2.3457   -0.3956   -2.1258 H       1  UNL1        0.0287
     46 H          -2.6777   -0.1891    0.3272 H       1  UNL1        0.0346
     47 H          -3.6604    1.2900    2.4556 H       1  UNL1        0.0256
     48 H          -4.9201    0.5925    1.4154 H       1  UNL1        0.0256
     49 H          -5.0469    2.3166    1.8045 H       1  UNL1        0.0256
     50 H          -0.9841    0.7133   -0.1464 H       1  UNL1        0.0628
     51 H           2.4247    1.7904    0.3575 H       1  UNL1        0.0653
     52 H           4.0808    0.7778   -0.1742 H       1  UNL1        0.0853
     53 H           7.8500   -3.6345   -1.6604 H       1  UNL1        0.0797
     54 H           7.1199   -2.0659   -2.2139 H       1  UNL1        0.0797
     55 H           8.4543    0.5325    1.6126 H       1  UNL1        0.0862
     56 H           9.4466   -1.7853    2.4835 H       1  UNL1        0.1046
     57 H           3.5904   -4.0510   -0.3695 H       1  UNL1        0.0884
     58 H           1.3198    3.3510    2.1687 H       1  UNL1        0.0624
     59 H          -0.7534    4.5883    2.8582 H       1  UNL1        0.0646
     60 H          -6.2446    4.2640   -2.1484 H       1  UNL1        0.1442
     61 H          -4.5555    4.8183   -2.1882 H       1  UNL1        0.1442
@<TRIPOS>BOND
     1     1     2    1
     2     2     3    1
     3     2     4   am
     4     4     5    2
     5     6     4    1
     6     6     7    1
     7     7     8    1
     8     8     9    1
     9     9    10    1
    10     9    11    1
    11    11    12   ar
    12    12    13   ar
    13    13    14    1
    14    14    15    2
    15    15    16    1
    16    15    17    1
    17    17    18   ar
    18    18    19   ar
    19    19    20   ar
    20    20    21    1
    21    21    22    1
    22    22    23    1
    23    23    24   ar
    24    24    25   ar
    25    25    26   ar
    26    26    27   ar
    27    20    28   ar
    28    28    29   ar
    29    13    30   ar
    30    30    31   ar
    31    31    32   ar
    32    32    33    1
    33     9    34    1
    34    34    35    2
    35    35    36    1
    36    35    37    1
    37     8     6    1
    38    32    11   ar
    39    37     6    1
    40    29    17   ar
    41    27    23   ar
    42     1    38    1
    43     1    39    1
    44     1    40    1
    45     3    41    1
    46     3    42    1
    47     3    43    1
    48     7    44    1
    49     7    45    1
    50     8    46    1
    51    10    47    1
    52    10    48    1
    53    10    49    1
    54    12    50    1
    55    14    51    1
    56    18    52    1
    57    22    53    1
    58    22    54    1
    59    25    55    1
    60    26    56    1
    61    28    57    1
    62    30    58    1
    63    31    59    1
    64    36    60    1
    65    36    61    1
