@<TRIPOS>MOLECULE
*****
 30 32 0 0 0
SMALL
GASTEIGER

@<TRIPOS>ATOM
      1 C           0.8776   -1.1135    1.3405 C.3     1  UNL1        0.1772
      2 C           0.1635   -1.5165    0.0927 C.3     1  UNL1        0.0314
      3 C          -0.9227   -0.5168   -0.3162 C.3     1  UNL1        0.1738
      4 N          -1.4099   -0.9868   -1.5848 N.2     1  UNL1       -0.2116
      5 C          -2.6479   -1.2896   -1.4543 C.2     1  UNL1        0.3151
      6 O          -3.3058   -1.7702   -2.5875 O.2     1  UNL1       -0.4786
      7 N          -3.0823   -1.0525   -0.1168 N.2     1  UNL1       -0.1617
      8 C          -2.0834   -0.5964    0.5747 C.2     1  UNL1        0.2250
      9 O          -2.2198   -0.2764    1.9183 O.2     1  UNL1       -0.4934
     10 C          -0.3558    0.8542   -0.3984 C.ar    1  UNL1        0.0335
     11 C           0.4942    1.1646    0.6445 C.ar    1  UNL1        0.1277
     12 O           0.7681    0.2537    1.6560 O.3     1  UNL1       -0.4790
     13 C           1.0668    2.4415    0.6337 C.ar    1  UNL1       -0.0168
     14 C           0.7477    3.2985   -0.4083 C.ar    1  UNL1       -0.0230
     15 C          -0.1083    2.9447   -1.4311 C.ar    1  UNL1        0.1240
     16 F          -0.3820    3.8155   -2.4155 F       1  UNL1       -0.2055
     17 C          -0.6787    1.6955   -1.4353 C.ar    1  UNL1       -0.0170
     18 C           2.3460   -1.3717    1.1284 C.2     1  UNL1        0.2219
     19 O           3.1039   -1.0282    2.2375 O.2     1  UNL1       -0.4933
     20 N           2.9259   -1.8581    0.0618 N.2     1  UNL1       -0.2680
     21 H           0.5072   -1.7449    2.1712 H       1  UNL1        0.0833
     22 H           0.8349   -1.6563   -0.7886 H       1  UNL1        0.0338
     23 H          -0.3848   -2.4877    0.2052 H       1  UNL1        0.0338
     24 H          -2.8517   -2.4564   -3.2050 H       1  UNL1        0.2953
     25 H          -3.0542    0.1490    2.3030 H       1  UNL1        0.2935
     26 H           1.7496    2.7460    1.4345 H       1  UNL1        0.0655
     27 H           1.1915    4.3004   -0.4250 H       1  UNL1        0.0647
     28 H          -1.3506    1.3430   -2.1882 H       1  UNL1        0.0651
     29 H           4.0877   -1.3042    2.2850 H       1  UNL1        0.2935
     30 H           3.9735   -1.9806    0.0682 H       1  UNL1        0.1896
@<TRIPOS>BOND
     1     1     2    1
     2     3     2    1
     3     3     4    1
     4     4     5    2
     5     5     6    1
     6     5     7    1
     7     7     8    2
     8     8     9    1
     9     3    10    1
    10    10    11   ar
    11    11    12    1
    12    11    13   ar
    13    13    14   ar
    14    14    15   ar
    15    15    16    1
    16    15    17   ar
    17     1    18    1
    18    18    19    1
    19    18    20    2
    20    12     1    1
    21     8     3    1
    22    17    10   ar
    23     1    21    1
    24     2    22    1
    25     2    23    1
    26     6    24    1
    27     9    25    1
    28    13    26    1
    29    14    27    1
    30    17    28    1
    31    19    29    1
    32    20    30    1
