
     RDKit          3D

 50 49  0  0  0  0  0  0  0  0999 V2000
    7.7333    0.9300    1.3258 C   0  0  0  0  0  0  0  0  0  0  0  0
    6.2481    0.7635    1.6104 C   0  0  0  0  0  0  0  0  0  0  0  0
    5.5531    0.6596    0.2557 C   0  0  0  0  0  0  0  0  0  0  0  0
    4.0546    0.4908    0.4973 C   0  0  0  0  0  0  0  0  0  0  0  0
    3.4284    0.3948   -0.8666 C   0  0  0  0  0  0  0  0  0  0  0  0
    1.9176    0.2473   -0.7798 C   0  0  0  0  0  0  0  0  0  0  0  0
    1.5616   -0.9776   -0.0398 C   0  0  0  0  0  0  0  0  0  0  0  0
    0.1363   -1.3540    0.1012 C   0  0  0  0  0  0  0  0  0  0  0  0
   -0.8210   -0.4957    0.7960 C   0  0  0  0  0  0  0  0  0  0  0  0
   -1.1332    0.8614    0.3192 C   0  0  0  0  0  0  0  0  0  0  0  0
   -1.6559    0.9156   -1.0958 C   0  0  0  0  0  0  0  0  0  0  0  0
   -2.9132    0.1511   -1.3268 C   0  0  0  0  0  0  0  0  0  0  0  0
   -4.0431    0.6409   -0.4782 C   0  0  0  0  0  0  0  0  0  0  0  0
   -5.2757   -0.2152   -0.8065 C   0  0  0  0  0  0  0  0  0  0  0  0
   -6.4086    0.2753    0.0439 C   0  0  0  0  0  0  0  0  0  0  0  0
   -7.6649   -0.4966   -0.2000 C   0  0  0  0  0  0  0  0  0  0  0  0
   -8.7878   -0.1368    0.5289 O   0  0  0  0  0  0  0  0  0  0  0  0
   -7.7288   -1.4418   -1.0295 O   0  0  0  0  0  0  0  0  0  0  0  0
    8.3024    1.2866    2.1892 H   0  0  0  0  0  0  0  0  0  0  0  0
    7.8510    1.6468    0.5087 H   0  0  0  0  0  0  0  0  0  0  0  0
    8.1731   -0.0323    0.9668 H   0  0  0  0  0  0  0  0  0  0  0  0
    5.9038    1.6778    2.1014 H   0  0  0  0  0  0  0  0  0  0  0  0
    6.0932   -0.1650    2.1818 H   0  0  0  0  0  0  0  0  0  0  0  0
    5.8893   -0.2019   -0.3319 H   0  0  0  0  0  0  0  0  0  0  0  0
    5.7572    1.5791   -0.3296 H   0  0  0  0  0  0  0  0  0  0  0  0
    3.6313    1.3269    1.0814 H   0  0  0  0  0  0  0  0  0  0  0  0
    3.9779   -0.4803    1.0347 H   0  0  0  0  0  0  0  0  0  0  0  0
    3.8773   -0.5154   -1.3548 H   0  0  0  0  0  0  0  0  0  0  0  0
    3.7215    1.2355   -1.5214 H   0  0  0  0  0  0  0  0  0  0  0  0
    1.5424    0.3126   -1.7996 H   0  0  0  0  0  0  0  0  0  0  0  0
    1.5999    1.1537   -0.2132 H   0  0  0  0  0  0  0  0  0  0  0  0
    2.1035   -1.8614   -0.5073 H   0  0  0  0  0  0  0  0  0  0  0  0
    2.0696   -0.9356    0.9830 H   0  0  0  0  0  0  0  0  0  0  0  0
    0.1125   -2.3615    0.6470 H   0  0  0  0  0  0  0  0  0  0  0  0
   -0.2089   -1.6538   -0.9370 H   0  0  0  0  0  0  0  0  0  0  0  0
   -0.4168   -0.3626    1.8624 H   0  0  0  0  0  0  0  0  0  0  0  0
   -1.8010   -1.0386    1.0250 H   0  0  0  0  0  0  0  0  0  0  0  0
   -2.0264    1.2001    0.9739 H   0  0  0  0  0  0  0  0  0  0  0  0
   -0.4193    1.6545    0.4760 H   0  0  0  0  0  0  0  0  0  0  0  0
   -0.8806    0.6718   -1.8250 H   0  0  0  0  0  0  0  0  0  0  0  0
   -1.9149    2.0006   -1.2665 H   0  0  0  0  0  0  0  0  0  0  0  0
   -2.7793   -0.9505   -1.2665 H   0  0  0  0  0  0  0  0  0  0  0  0
   -3.2144    0.3376   -2.3857 H   0  0  0  0  0  0  0  0  0  0  0  0
   -3.8892    0.4920    0.6126 H   0  0  0  0  0  0  0  0  0  0  0  0
   -4.3013    1.6715   -0.7504 H   0  0  0  0  0  0  0  0  0  0  0  0
   -5.5392   -0.1337   -1.8904 H   0  0  0  0  0  0  0  0  0  0  0  0
   -5.0456   -1.2760   -0.5911 H   0  0  0  0  0  0  0  0  0  0  0  0
   -6.1310    0.2261    1.1055 H   0  0  0  0  0  0  0  0  0  0  0  0
   -6.6293    1.3358   -0.2389 H   0  0  0  0  0  0  0  0  0  0  0  0
   -9.6097   -0.7280    0.6045 H   0  0  0  0  0  0  0  0  0  0  0  0
  1  2  1  0
  2  3  1  0
  3  4  1  0
  4  5  1  0
  5  6  1  0
  6  7  1  0
  7  8  1  0
  8  9  1  0
  9 10  1  0
 10 11  1  0
 11 12  1  0
 12 13  1  0
 13 14  1  0
 14 15  1  0
 15 16  1  0
 16 17  1  0
 16 18  2  0
  1 19  1  0
  1 20  1  0
  1 21  1  0
  2 22  1  0
  2 23  1  0
  3 24  1  0
  3 25  1  0
  4 26  1  0
  4 27  1  0
  5 28  1  0
  5 29  1  0
  6 30  1  0
  6 31  1  0
  7 32  1  0
  7 33  1  0
  8 34  1  0
  8 35  1  0
  9 36  1  0
  9 37  1  0
 10 38  1  0
 10 39  1  0
 11 40  1  0
 11 41  1  0
 12 42  1  0
 12 43  1  0
 13 44  1  0
 13 45  1  0
 14 46  1  0
 14 47  1  0
 15 48  1  0
 15 49  1  0
 17 50  1  0
M  END
$$$$
