@<TRIPOS>MOLECULE
*****
 50 49 0 0 0
SMALL
GASTEIGER

@<TRIPOS>ATOM
      1 C           7.7333    0.9300    1.3258 C.3     1  UNL1       -0.0653
      2 C           6.2481    0.7635    1.6104 C.3     1  UNL1       -0.0559
      3 C           5.5531    0.6596    0.2557 C.3     1  UNL1       -0.0533
      4 C           4.0546    0.4908    0.4973 C.3     1  UNL1       -0.0531
      5 C           3.4284    0.3948   -0.8666 C.3     1  UNL1       -0.0531
      6 C           1.9176    0.2473   -0.7798 C.3     1  UNL1       -0.0531
      7 C           1.5616   -0.9776   -0.0398 C.3     1  UNL1       -0.0531
      8 C           0.1363   -1.3540    0.1012 C.3     1  UNL1       -0.0531
      9 C          -0.8210   -0.4957    0.7960 C.3     1  UNL1       -0.0531
     10 C          -1.1332    0.8614    0.3192 C.3     1  UNL1       -0.0531
     11 C          -1.6559    0.9156   -1.0958 C.3     1  UNL1       -0.0531
     12 C          -2.9132    0.1511   -1.3268 C.3     1  UNL1       -0.0530
     13 C          -4.0431    0.6409   -0.4782 C.3     1  UNL1       -0.0526
     14 C          -5.2757   -0.2152   -0.8065 C.3     1  UNL1       -0.0430
     15 C          -6.4086    0.2753    0.0439 C.3     1  UNL1        0.0448
     16 C          -7.6649   -0.4966   -0.2000 C.2     1  UNL1        0.3047
     17 O          -8.7878   -0.1368    0.5289 O.3     1  UNL1       -0.4806
     18 O          -7.7288   -1.4418   -1.0295 O.2     1  UNL1       -0.2510
     19 H           8.3024    1.2866    2.1892 H       1  UNL1        0.0230
     20 H           7.8510    1.6468    0.5087 H       1  UNL1        0.0230
     21 H           8.1731   -0.0323    0.9668 H       1  UNL1        0.0230
     22 H           5.9038    1.6778    2.1014 H       1  UNL1        0.0263
     23 H           6.0932   -0.1650    2.1818 H       1  UNL1        0.0263
     24 H           5.8893   -0.2019   -0.3319 H       1  UNL1        0.0265
     25 H           5.7572    1.5791   -0.3296 H       1  UNL1        0.0265
     26 H           3.6313    1.3269    1.0814 H       1  UNL1        0.0265
     27 H           3.9779   -0.4803    1.0347 H       1  UNL1        0.0265
     28 H           3.8773   -0.5154   -1.3548 H       1  UNL1        0.0265
     29 H           3.7215    1.2355   -1.5214 H       1  UNL1        0.0265
     30 H           1.5424    0.3126   -1.7996 H       1  UNL1        0.0265
     31 H           1.5999    1.1537   -0.2132 H       1  UNL1        0.0265
     32 H           2.1035   -1.8614   -0.5073 H       1  UNL1        0.0265
     33 H           2.0696   -0.9356    0.9830 H       1  UNL1        0.0265
     34 H           0.1125   -2.3615    0.6470 H       1  UNL1        0.0265
     35 H          -0.2089   -1.6538   -0.9370 H       1  UNL1        0.0265
     36 H          -0.4168   -0.3626    1.8624 H       1  UNL1        0.0265
     37 H          -1.8010   -1.0386    1.0250 H       1  UNL1        0.0265
     38 H          -2.0264    1.2001    0.9739 H       1  UNL1        0.0265
     39 H          -0.4193    1.6545    0.4760 H       1  UNL1        0.0265
     40 H          -0.8806    0.6718   -1.8250 H       1  UNL1        0.0265
     41 H          -1.9149    2.0006   -1.2665 H       1  UNL1        0.0265
     42 H          -2.7793   -0.9505   -1.2665 H       1  UNL1        0.0265
     43 H          -3.2144    0.3376   -2.3857 H       1  UNL1        0.0265
     44 H          -3.8892    0.4920    0.6126 H       1  UNL1        0.0265
     45 H          -4.3013    1.6715   -0.7504 H       1  UNL1        0.0265
     46 H          -5.5392   -0.1337   -1.8904 H       1  UNL1        0.0270
     47 H          -5.0456   -1.2760   -0.5911 H       1  UNL1        0.0270
     48 H          -6.1310    0.2261    1.1055 H       1  UNL1        0.0377
     49 H          -6.6293    1.3358   -0.2389 H       1  UNL1        0.0377
     50 H          -9.6097   -0.7280    0.6045 H       1  UNL1        0.2951
@<TRIPOS>BOND
     1     1     2    1
     2     2     3    1
     3     3     4    1
     4     4     5    1
     5     5     6    1
     6     6     7    1
     7     7     8    1
     8     8     9    1
     9     9    10    1
    10    10    11    1
    11    11    12    1
    12    12    13    1
    13    13    14    1
    14    14    15    1
    15    15    16    1
    16    16    17    1
    17    16    18    2
    18     1    19    1
    19     1    20    1
    20     1    21    1
    21     2    22    1
    22     2    23    1
    23     3    24    1
    24     3    25    1
    25     4    26    1
    26     4    27    1
    27     5    28    1
    28     5    29    1
    29     6    30    1
    30     6    31    1
    31     7    32    1
    32     7    33    1
    33     8    34    1
    34     8    35    1
    35     9    36    1
    36     9    37    1
    37    10    38    1
    38    10    39    1
    39    11    40    1
    40    11    41    1
    41    12    42    1
    42    12    43    1
    43    13    44    1
    44    13    45    1
    45    14    46    1
    46    14    47    1
    47    15    48    1
    48    15    49    1
    49    17    50    1
