@<TRIPOS>MOLECULE
*****
 30 32 0 0 0
SMALL
GASTEIGER

@<TRIPOS>ATOM
      1 O          -0.1550   -0.7502    1.6159 O.2     1  UNL1       -0.2863
      2 C          -0.4823   -0.2252    0.5371 C.ar    1  UNL1        0.2037
      3 C           0.4731    0.1343   -0.3897 C.ar    1  UNL1        0.0644
      4 C           1.9026   -0.0770   -0.1627 C.ar    1  UNL1       -0.0110
      5 C           2.7133   -0.6016   -1.1486 C.ar    1  UNL1       -0.0504
      6 C           4.0646   -0.8001   -0.9308 C.ar    1  UNL1       -0.0196
      7 C           4.6570   -0.4843    0.2737 C.ar    1  UNL1        0.1169
      8 O           6.0188   -0.6806    0.5035 O.3     1  UNL1       -0.5068
      9 C           3.8513    0.0403    1.2626 C.ar    1  UNL1       -0.0196
     10 C           2.4933    0.2395    1.0427 C.ar    1  UNL1       -0.0504
     11 C          -0.0037    0.7131   -1.5607 C.ar    1  UNL1        0.1038
     12 O          -1.2759    0.9122   -1.7866 O.2     1  UNL1       -0.4618
     13 C          -2.2184    0.5832   -0.9274 C.ar    1  UNL1        0.1454
     14 C          -3.5588    0.8047   -1.1906 C.ar    1  UNL1        0.0231
     15 C          -4.5417    0.4593   -0.2897 C.ar    1  UNL1        0.1239
     16 O          -5.8801    0.7014   -0.5978 O.3     1  UNL1       -0.5065
     17 C          -4.1489   -0.1186    0.8925 C.ar    1  UNL1        0.0223
     18 C          -2.8142   -0.3421    1.1611 C.ar    1  UNL1        0.1347
     19 O          -2.3904   -0.9293    2.3586 O.3     1  UNL1       -0.5058
     20 C          -1.8130    0.0065    0.2504 C.ar    1  UNL1        0.1060
     21 H           2.2499   -0.8559   -2.1109 H       1  UNL1        0.0625
     22 H           4.6837   -1.2099   -1.7092 H       1  UNL1        0.0654
     23 H           6.6601    0.1245    0.4397 H       1  UNL1        0.2921
     24 H           4.2974    0.2927    2.2097 H       1  UNL1        0.0654
     25 H           1.8757    0.6473    1.8162 H       1  UNL1        0.0625
     26 H           0.7665    0.9910   -2.2821 H       1  UNL1        0.1037
     27 H          -3.8348    1.2652   -2.1386 H       1  UNL1        0.0691
     28 H          -6.1070    1.4889   -1.2245 H       1  UNL1        0.2921
     29 H          -4.9131   -0.3959    1.6119 H       1  UNL1        0.0691
     30 H          -2.5699   -1.9334    2.4742 H       1  UNL1        0.2922
@<TRIPOS>BOND
     1     1     2    2
     2     2     3   ar
     3     3     4    1
     4     4     5   ar
     5     5     6   ar
     6     6     7   ar
     7     7     8    1
     8     7     9   ar
     9     9    10   ar
    10     3    11   ar
    11    11    12   ar
    12    12    13   ar
    13    13    14   ar
    14    14    15   ar
    15    15    16    1
    16    15    17   ar
    17    17    18   ar
    18    18    19    1
    19    18    20   ar
    20    20     2   ar
    21    10     4   ar
    22    20    13   ar
    23     5    21    1
    24     6    22    1
    25     8    23    1
    26     9    24    1
    27    10    25    1
    28    11    26    1
    29    14    27    1
    30    16    28    1
    31    17    29    1
    32    19    30    1
