
     RDKit          3D

 30 32  0  0  0  0  0  0  0  0999 V2000
   -0.1550   -0.7502    1.6159 O   0  0  0  0  0  0  0  0  0  0  0  0
   -0.4823   -0.2252    0.5371 C   0  0  0  0  0  0  0  0  0  0  0  0
    0.4731    0.1343   -0.3897 C   0  0  0  0  0  0  0  0  0  0  0  0
    1.9026   -0.0770   -0.1627 C   0  0  0  0  0  0  0  0  0  0  0  0
    2.7133   -0.6016   -1.1486 C   0  0  0  0  0  0  0  0  0  0  0  0
    4.0646   -0.8001   -0.9308 C   0  0  0  0  0  0  0  0  0  0  0  0
    4.6570   -0.4843    0.2737 C   0  0  0  0  0  0  0  0  0  0  0  0
    6.0188   -0.6806    0.5035 O   0  0  0  0  0  0  0  0  0  0  0  0
    3.8513    0.0403    1.2626 C   0  0  0  0  0  0  0  0  0  0  0  0
    2.4933    0.2395    1.0427 C   0  0  0  0  0  0  0  0  0  0  0  0
   -0.0037    0.7131   -1.5607 C   0  0  0  0  0  0  0  0  0  0  0  0
   -1.2759    0.9122   -1.7866 O   0  0  0  0  0  0  0  0  0  0  0  0
   -2.2184    0.5832   -0.9274 C   0  0  0  0  0  0  0  0  0  0  0  0
   -3.5588    0.8047   -1.1906 C   0  0  0  0  0  0  0  0  0  0  0  0
   -4.5417    0.4593   -0.2897 C   0  0  0  0  0  0  0  0  0  0  0  0
   -5.8801    0.7014   -0.5978 O   0  0  0  0  0  0  0  0  0  0  0  0
   -4.1489   -0.1186    0.8925 C   0  0  0  0  0  0  0  0  0  0  0  0
   -2.8142   -0.3421    1.1611 C   0  0  0  0  0  0  0  0  0  0  0  0
   -2.3904   -0.9293    2.3586 O   0  0  0  0  0  0  0  0  0  0  0  0
   -1.8130    0.0065    0.2504 C   0  0  0  0  0  0  0  0  0  0  0  0
    2.2499   -0.8559   -2.1109 H   0  0  0  0  0  0  0  0  0  0  0  0
    4.6837   -1.2099   -1.7092 H   0  0  0  0  0  0  0  0  0  0  0  0
    6.6601    0.1245    0.4397 H   0  0  0  0  0  0  0  0  0  0  0  0
    4.2974    0.2927    2.2097 H   0  0  0  0  0  0  0  0  0  0  0  0
    1.8757    0.6473    1.8162 H   0  0  0  0  0  0  0  0  0  0  0  0
    0.7665    0.9910   -2.2821 H   0  0  0  0  0  0  0  0  0  0  0  0
   -3.8348    1.2652   -2.1386 H   0  0  0  0  0  0  0  0  0  0  0  0
   -6.1070    1.4889   -1.2245 H   0  0  0  0  0  0  0  0  0  0  0  0
   -4.9131   -0.3959    1.6119 H   0  0  0  0  0  0  0  0  0  0  0  0
   -2.5699   -1.9334    2.4742 H   0  0  0  0  0  0  0  0  0  0  0  0
  1  2  2  0
  2  3  1  0
  3  4  1  0
  4  5  2  0
  5  6  1  0
  6  7  2  0
  7  8  1  0
  7  9  1  0
  9 10  2  0
  3 11  2  0
 11 12  1  0
 12 13  1  0
 13 14  2  0
 14 15  1  0
 15 16  1  0
 15 17  2  0
 17 18  1  0
 18 19  1  0
 18 20  2  0
 20  2  1  0
 10  4  1  0
 20 13  1  0
  5 21  1  0
  6 22  1  0
  8 23  1  0
  9 24  1  0
 10 25  1  0
 11 26  1  0
 14 27  1  0
 16 28  1  0
 17 29  1  0
 19 30  1  0
M  END
$$$$
