@<TRIPOS>MOLECULE
*****
 35 36 0 0 0
SMALL
GASTEIGER

@<TRIPOS>ATOM
      1 C          -4.3456   -0.7441   -0.1186 C.3     1  UNL1       -0.0492
      2 C          -3.3438   -0.7432    1.0241 C.3     1  UNL1        0.0147
      3 N          -2.7174    0.5331    1.1820 N.am    1  UNL1       -0.2704
      4 C          -3.3100    1.5100    2.0514 C.3     1  UNL1        0.0063
      5 C          -1.5317    0.8397    0.4971 C.2     1  UNL1        0.4079
      6 O          -0.9310    1.9439    0.5926 O.2     1  UNL1       -0.2258
      7 O          -0.9852   -0.1440   -0.3432 O.3     1  UNL1       -0.4111
      8 C           0.1837    0.1181   -1.0370 C.ar    1  UNL1        0.1367
      9 C           0.0772    0.6741   -2.2909 C.ar    1  UNL1       -0.0189
     10 C           1.2560    0.9373   -2.9882 C.ar    1  UNL1       -0.0580
     11 C           2.4673    0.6274   -2.3865 C.ar    1  UNL1       -0.0566
     12 C           2.5504    0.0705   -1.1284 C.ar    1  UNL1       -0.0240
     13 C           1.3732   -0.1972   -0.4212 C.ar    1  UNL1       -0.0002
     14 C           1.7539   -0.7880    0.8893 C.3     1  UNL1       -0.0222
     15 C           3.0774   -1.4418    0.5527 C.3     1  UNL1       -0.0295
     16 C           3.7155   -0.3373   -0.3008 C.3     1  UNL1        0.0310
     17 N           4.0852    0.7251    0.6020 N.3     1  UNL1       -0.3236
     18 H          -4.9100   -1.7053   -0.0330 H       1  UNL1        0.0245
     19 H          -5.0363    0.1273   -0.0141 H       1  UNL1        0.0245
     20 H          -3.8019   -0.7380   -1.0649 H       1  UNL1        0.0245
     21 H          -3.8294   -1.0833    1.9712 H       1  UNL1        0.0463
     22 H          -2.5376   -1.4791    0.7823 H       1  UNL1        0.0463
     23 H          -2.6103    2.3818    2.2031 H       1  UNL1        0.0429
     24 H          -3.3767    1.0341    3.0694 H       1  UNL1        0.0429
     25 H          -4.3042    1.8660    1.7068 H       1  UNL1        0.0429
     26 H          -0.8644    0.9169   -2.7632 H       1  UNL1        0.0654
     27 H           1.1870    1.3744   -3.9752 H       1  UNL1        0.0619
     28 H           3.3782    0.8373   -2.9399 H       1  UNL1        0.0621
     29 H           1.9669    0.0092    1.6243 H       1  UNL1        0.0315
     30 H           1.0109   -1.5201    1.2494 H       1  UNL1        0.0315
     31 H           2.9046   -2.3619   -0.0496 H       1  UNL1        0.0287
     32 H           3.6966   -1.6236    1.4526 H       1  UNL1        0.0287
     33 H           4.5481   -0.7265   -0.8969 H       1  UNL1        0.0508
     34 H           4.7832    0.3987    1.2829 H       1  UNL1        0.1188
     35 H           4.4203    1.5265    0.0182 H       1  UNL1        0.1188
@<TRIPOS>BOND
     1     1     2    1
     2     2     3    1
     3     3     4    1
     4     3     5   am
     5     5     6    2
     6     5     7    1
     7     7     8    1
     8     8     9   ar
     9     9    10   ar
    10    10    11   ar
    11    11    12   ar
    12    12    13   ar
    13    13    14    1
    14    14    15    1
    15    15    16    1
    16    16    17    1
    17    13     8   ar
    18    16    12    1
    19     1    18    1
    20     1    19    1
    21     1    20    1
    22     2    21    1
    23     2    22    1
    24     4    23    1
    25     4    24    1
    26     4    25    1
    27     9    26    1
    28    10    27    1
    29    11    28    1
    30    14    29    1
    31    14    30    1
    32    15    31    1
    33    15    32    1
    34    16    33    1
    35    17    34    1
    36    17    35    1
