@<TRIPOS>MOLECULE
*****
 65 67 0 0 0
SMALL
GASTEIGER

@<TRIPOS>ATOM
      1 C           7.3441    0.8163    2.1752 C.3     1  UNL1       -0.0596
      2 C           7.7558    0.7346    0.7220 C.3     1  UNL1       -0.0124
      3 C           8.4977   -0.5660    0.5118 C.3     1  UNL1       -0.0596
      4 C           6.4740    0.7113   -0.0963 C.3     1  UNL1        0.0919
      5 O           5.7046   -0.4173    0.2749 O.3     1  UNL1       -0.4917
      6 C           4.4778   -0.6219   -0.3650 C.ar    1  UNL1        0.1205
      7 C           4.1042    0.3124   -1.3277 C.ar    1  UNL1       -0.0196
      8 C           2.8855    0.0833   -1.9433 C.ar    1  UNL1       -0.0536
      9 C           2.0272   -0.9832   -1.6793 C.ar    1  UNL1       -0.0300
     10 C           0.7748   -1.0446   -2.4501 C.3     1  UNL1        0.0383
     11 N          -0.2870   -0.3140   -1.8086 N.am    1  UNL1       -0.2951
     12 C          -1.0314   -0.7516   -0.7006 C.2     1  UNL1        0.3030
     13 O          -0.7417   -1.8778   -0.2387 O.2     1  UNL1       -0.2526
     14 N          -2.0928   -0.2313    0.0898 N.am    1  UNL1       -0.2782
     15 C          -2.5312   -1.1397    1.1279 C.3     1  UNL1        0.0415
     16 C          -3.6699   -1.9954    0.8123 C.ar    1  UNL1       -0.0299
     17 C          -3.7108   -3.2090    0.1690 C.ar    1  UNL1       -0.0544
     18 C          -4.8449   -3.9564   -0.0564 C.ar    1  UNL1       -0.0261
     19 C          -6.0603   -3.4797    0.3862 C.ar    1  UNL1        0.1234
     20 F          -7.2144   -4.1498    0.2052 F       1  UNL1       -0.2055
     21 C          -6.1361   -2.2710    1.0454 C.ar    1  UNL1       -0.0261
     22 C          -4.9497   -1.5927    1.2257 C.ar    1  UNL1       -0.0544
     23 C          -2.5861    1.1115   -0.1633 C.3     1  UNL1        0.0301
     24 C          -3.9329    1.0899   -0.8288 C.3     1  UNL1       -0.0214
     25 C          -5.0170    1.8504   -0.1720 C.3     1  UNL1        0.0003
     26 N          -4.6323    2.9123    0.6978 N.3     1  UNL1       -0.3052
     27 C          -4.1869    4.0384   -0.0559 C.3     1  UNL1       -0.0128
     28 C          -3.7167    2.4086    1.6686 C.3     1  UNL1        0.0003
     29 C          -2.4382    2.0314    0.9813 C.3     1  UNL1       -0.0214
     30 C           2.4911   -1.8461   -0.7132 C.ar    1  UNL1       -0.0536
     31 C           3.6750   -1.6967   -0.0588 C.ar    1  UNL1       -0.0196
     32 H           7.1619   -0.2081    2.5954 H       1  UNL1        0.0233
     33 H           8.1227    1.3202    2.7708 H       1  UNL1        0.0233
     34 H           6.3760    1.3460    2.2358 H       1  UNL1        0.0233
     35 H           8.3947    1.5919    0.4338 H       1  UNL1        0.0328
     36 H           9.5889   -0.3178    0.4862 H       1  UNL1        0.0233
     37 H           8.3043   -1.2442    1.3668 H       1  UNL1        0.0233
     38 H           8.1831   -1.0432   -0.4509 H       1  UNL1        0.0233
     39 H           5.9156    1.6469   -0.0294 H       1  UNL1        0.0699
     40 H           6.8150    0.6185   -1.1697 H       1  UNL1        0.0699
     41 H           4.6998    1.1664   -1.5990 H       1  UNL1        0.0654
     42 H           2.5974    0.8267   -2.7037 H       1  UNL1        0.0622
     43 H           0.4557   -2.0883   -2.6660 H       1  UNL1        0.0512
     44 H           0.9400   -0.5619   -3.4383 H       1  UNL1        0.0512
     45 H          -0.5873    0.6273   -2.1386 H       1  UNL1        0.1506
     46 H          -2.7092   -0.5564    2.0928 H       1  UNL1        0.0514
     47 H          -1.6942   -1.8237    1.4297 H       1  UNL1        0.0514
     48 H          -2.7809   -3.6191   -0.1895 H       1  UNL1        0.0622
     49 H          -4.7748   -4.9016   -0.5735 H       1  UNL1        0.0646
     50 H          -7.0563   -1.8425    1.4167 H       1  UNL1        0.0646
     51 H          -5.0197   -0.6317    1.7594 H       1  UNL1        0.0622
     52 H          -1.9017    1.4980   -0.9812 H       1  UNL1        0.0502
     53 H          -3.8860    1.4827   -1.8974 H       1  UNL1        0.0295
     54 H          -4.2571    0.0418   -0.9779 H       1  UNL1        0.0295
     55 H          -5.7103    2.3170   -0.9396 H       1  UNL1        0.0427
     56 H          -5.7177    1.1658    0.3900 H       1  UNL1        0.0427
     57 H          -4.4870    4.9534    0.5044 H       1  UNL1        0.0391
     58 H          -3.1384    4.0366   -0.3626 H       1  UNL1        0.0391
     59 H          -4.7687    4.0445   -1.0245 H       1  UNL1        0.0391
     60 H          -4.1862    1.5928    2.2209 H       1  UNL1        0.0427
     61 H          -3.4548    3.2481    2.3662 H       1  UNL1        0.0427
     62 H          -1.8279    1.4878    1.7621 H       1  UNL1        0.0295
     63 H          -1.8594    2.9587    0.7981 H       1  UNL1        0.0295
     64 H           1.8495   -2.6831   -0.4903 H       1  UNL1        0.0622
     65 H           3.9814   -2.4058    0.6870 H       1  UNL1        0.0654
@<TRIPOS>BOND
     1     1     2    1
     2     2     3    1
     3     2     4    1
     4     4     5    1
     5     5     6    1
     6     6     7   ar
     7     7     8   ar
     8     8     9   ar
     9     9    10    1
    10    10    11    1
    11    11    12   am
    12    12    13    2
    13    12    14   am
    14    14    15    1
    15    15    16    1
    16    16    17   ar
    17    17    18   ar
    18    18    19   ar
    19    19    20    1
    20    19    21   ar
    21    21    22   ar
    22    14    23    1
    23    23    24    1
    24    24    25    1
    25    25    26    1
    26    26    27    1
    27    26    28    1
    28    28    29    1
    29     9    30   ar
    30    30    31   ar
    31    31     6   ar
    32    22    16   ar
    33    29    23    1
    34     1    32    1
    35     1    33    1
    36     1    34    1
    37     2    35    1
    38     3    36    1
    39     3    37    1
    40     3    38    1
    41     4    39    1
    42     4    40    1
    43     7    41    1
    44     8    42    1
    45    10    43    1
    46    10    44    1
    47    11    45    1
    48    15    46    1
    49    15    47    1
    50    17    48    1
    51    18    49    1
    52    21    50    1
    53    22    51    1
    54    23    52    1
    55    24    53    1
    56    24    54    1
    57    25    55    1
    58    25    56    1
    59    27    57    1
    60    27    58    1
    61    27    59    1
    62    28    60    1
    63    28    61    1
    64    29    62    1
    65    29    63    1
    66    30    64    1
    67    31    65    1
