
     RDKit          3D

 65 67  0  0  0  0  0  0  0  0999 V2000
    7.3441    0.8163    2.1752 C   0  0  0  0  0  0  0  0  0  0  0  0
    7.7558    0.7346    0.7220 C   0  0  0  0  0  0  0  0  0  0  0  0
    8.4977   -0.5660    0.5118 C   0  0  0  0  0  0  0  0  0  0  0  0
    6.4740    0.7113   -0.0963 C   0  0  0  0  0  0  0  0  0  0  0  0
    5.7046   -0.4173    0.2749 O   0  0  0  0  0  0  0  0  0  0  0  0
    4.4778   -0.6219   -0.3650 C   0  0  0  0  0  0  0  0  0  0  0  0
    4.1042    0.3124   -1.3277 C   0  0  0  0  0  0  0  0  0  0  0  0
    2.8855    0.0833   -1.9433 C   0  0  0  0  0  0  0  0  0  0  0  0
    2.0272   -0.9832   -1.6793 C   0  0  0  0  0  0  0  0  0  0  0  0
    0.7748   -1.0446   -2.4501 C   0  0  0  0  0  0  0  0  0  0  0  0
   -0.2870   -0.3140   -1.8086 N   0  0  0  0  0  0  0  0  0  0  0  0
   -1.0314   -0.7516   -0.7006 C   0  0  0  0  0  0  0  0  0  0  0  0
   -0.7417   -1.8778   -0.2387 O   0  0  0  0  0  0  0  0  0  0  0  0
   -2.0928   -0.2313    0.0898 N   0  0  0  0  0  0  0  0  0  0  0  0
   -2.5312   -1.1397    1.1279 C   0  0  0  0  0  0  0  0  0  0  0  0
   -3.6699   -1.9954    0.8123 C   0  0  0  0  0  0  0  0  0  0  0  0
   -3.7108   -3.2090    0.1690 C   0  0  0  0  0  0  0  0  0  0  0  0
   -4.8449   -3.9564   -0.0564 C   0  0  0  0  0  0  0  0  0  0  0  0
   -6.0603   -3.4797    0.3862 C   0  0  0  0  0  0  0  0  0  0  0  0
   -7.2144   -4.1498    0.2052 F   0  0  0  0  0  0  0  0  0  0  0  0
   -6.1361   -2.2710    1.0454 C   0  0  0  0  0  0  0  0  0  0  0  0
   -4.9497   -1.5927    1.2257 C   0  0  0  0  0  0  0  0  0  0  0  0
   -2.5861    1.1115   -0.1633 C   0  0  0  0  0  0  0  0  0  0  0  0
   -3.9329    1.0899   -0.8288 C   0  0  0  0  0  0  0  0  0  0  0  0
   -5.0170    1.8504   -0.1720 C   0  0  0  0  0  0  0  0  0  0  0  0
   -4.6323    2.9123    0.6978 N   0  0  0  0  0  0  0  0  0  0  0  0
   -4.1869    4.0384   -0.0559 C   0  0  0  0  0  0  0  0  0  0  0  0
   -3.7167    2.4086    1.6686 C   0  0  0  0  0  0  0  0  0  0  0  0
   -2.4382    2.0314    0.9813 C   0  0  0  0  0  0  0  0  0  0  0  0
    2.4911   -1.8461   -0.7132 C   0  0  0  0  0  0  0  0  0  0  0  0
    3.6750   -1.6967   -0.0588 C   0  0  0  0  0  0  0  0  0  0  0  0
    7.1619   -0.2081    2.5954 H   0  0  0  0  0  0  0  0  0  0  0  0
    8.1227    1.3202    2.7708 H   0  0  0  0  0  0  0  0  0  0  0  0
    6.3760    1.3460    2.2358 H   0  0  0  0  0  0  0  0  0  0  0  0
    8.3947    1.5919    0.4338 H   0  0  0  0  0  0  0  0  0  0  0  0
    9.5889   -0.3178    0.4862 H   0  0  0  0  0  0  0  0  0  0  0  0
    8.3043   -1.2442    1.3668 H   0  0  0  0  0  0  0  0  0  0  0  0
    8.1831   -1.0432   -0.4509 H   0  0  0  0  0  0  0  0  0  0  0  0
    5.9156    1.6469   -0.0294 H   0  0  0  0  0  0  0  0  0  0  0  0
    6.8150    0.6185   -1.1697 H   0  0  0  0  0  0  0  0  0  0  0  0
    4.6998    1.1664   -1.5990 H   0  0  0  0  0  0  0  0  0  0  0  0
    2.5974    0.8267   -2.7037 H   0  0  0  0  0  0  0  0  0  0  0  0
    0.4557   -2.0883   -2.6660 H   0  0  0  0  0  0  0  0  0  0  0  0
    0.9400   -0.5619   -3.4383 H   0  0  0  0  0  0  0  0  0  0  0  0
   -0.5873    0.6273   -2.1386 H   0  0  0  0  0  0  0  0  0  0  0  0
   -2.7092   -0.5564    2.0928 H   0  0  0  0  0  0  0  0  0  0  0  0
   -1.6942   -1.8237    1.4297 H   0  0  0  0  0  0  0  0  0  0  0  0
   -2.7809   -3.6191   -0.1895 H   0  0  0  0  0  0  0  0  0  0  0  0
   -4.7748   -4.9016   -0.5735 H   0  0  0  0  0  0  0  0  0  0  0  0
   -7.0563   -1.8425    1.4167 H   0  0  0  0  0  0  0  0  0  0  0  0
   -5.0197   -0.6317    1.7594 H   0  0  0  0  0  0  0  0  0  0  0  0
   -1.9017    1.4980   -0.9812 H   0  0  0  0  0  0  0  0  0  0  0  0
   -3.8860    1.4827   -1.8974 H   0  0  0  0  0  0  0  0  0  0  0  0
   -4.2571    0.0418   -0.9779 H   0  0  0  0  0  0  0  0  0  0  0  0
   -5.7103    2.3170   -0.9396 H   0  0  0  0  0  0  0  0  0  0  0  0
   -5.7177    1.1658    0.3900 H   0  0  0  0  0  0  0  0  0  0  0  0
   -4.4870    4.9534    0.5044 H   0  0  0  0  0  0  0  0  0  0  0  0
   -3.1384    4.0366   -0.3626 H   0  0  0  0  0  0  0  0  0  0  0  0
   -4.7687    4.0445   -1.0245 H   0  0  0  0  0  0  0  0  0  0  0  0
   -4.1862    1.5928    2.2209 H   0  0  0  0  0  0  0  0  0  0  0  0
   -3.4548    3.2481    2.3662 H   0  0  0  0  0  0  0  0  0  0  0  0
   -1.8279    1.4878    1.7621 H   0  0  0  0  0  0  0  0  0  0  0  0
   -1.8594    2.9587    0.7981 H   0  0  0  0  0  0  0  0  0  0  0  0
    1.8495   -2.6831   -0.4903 H   0  0  0  0  0  0  0  0  0  0  0  0
    3.9814   -2.4058    0.6870 H   0  0  0  0  0  0  0  0  0  0  0  0
  1  2  1  0
  2  3  1  0
  2  4  1  0
  4  5  1  0
  5  6  1  0
  6  7  2  0
  7  8  1  0
  8  9  2  0
  9 10  1  0
 10 11  1  0
 11 12  1  0
 12 13  2  0
 12 14  1  0
 14 15  1  0
 15 16  1  0
 16 17  2  0
 17 18  1  0
 18 19  2  0
 19 20  1  0
 19 21  1  0
 21 22  2  0
 14 23  1  0
 23 24  1  0
 24 25  1  0
 25 26  1  0
 26 27  1  0
 26 28  1  0
 28 29  1  0
  9 30  1  0
 30 31  2  0
 31  6  1  0
 22 16  1  0
 29 23  1  0
  1 32  1  0
  1 33  1  0
  1 34  1  0
  2 35  1  0
  3 36  1  0
  3 37  1  0
  3 38  1  0
  4 39  1  0
  4 40  1  0
  7 41  1  0
  8 42  1  0
 10 43  1  0
 10 44  1  0
 11 45  1  0
 15 46  1  0
 15 47  1  0
 17 48  1  0
 18 49  1  0
 21 50  1  0
 22 51  1  0
 23 52  1  0
 24 53  1  0
 24 54  1  0
 25 55  1  0
 25 56  1  0
 27 57  1  0
 27 58  1  0
 27 59  1  0
 28 60  1  0
 28 61  1  0
 29 62  1  0
 29 63  1  0
 30 64  1  0
 31 65  1  0
M  END
$$$$
