
     RDKit          3D

 76 80  0  0  0  0  0  0  0  0999 V2000
    9.7487    4.2659   -1.5125 C   0  0  0  0  0  0  0  0  0  0  0  0
    8.9400    3.1506   -0.9483 C   0  0  0  0  0  0  0  0  0  0  0  0
    9.5142    1.9101   -0.7692 C   0  0  0  0  0  0  0  0  0  0  0  0
    8.7789    0.8492   -0.2426 C   0  0  0  0  0  0  0  0  0  0  0  0
    7.4722    1.0587    0.0955 C   0  0  0  0  0  0  0  0  0  0  0  0
    6.6335   -0.0200    0.6587 C   0  0  0  0  0  0  0  0  0  0  0  0
    7.1875   -1.0042    1.4481 C   0  0  0  0  0  0  0  0  0  0  0  0
    6.3935   -2.0034    1.9649 C   0  0  0  0  0  0  0  0  0  0  0  0
    5.0304   -2.0637    1.7201 C   0  0  0  0  0  0  0  0  0  0  0  0
    4.5004   -1.0696    0.9290 C   0  0  0  0  0  0  0  0  0  0  0  0
    5.2981   -0.0511    0.3998 C   0  0  0  0  0  0  0  0  0  0  0  0
    3.1016   -0.9208    0.5327 C   0  0  0  0  0  0  0  0  0  0  0  0
    2.1406   -1.8347    0.5085 C   0  0  0  0  0  0  0  0  0  0  0  0
    0.8380   -1.3606    0.0568 C   0  0  0  0  0  0  0  0  0  0  0  0
    0.7640   -0.1221   -0.2611 O   0  0  0  0  0  0  0  0  0  0  0  0
   -0.3311   -2.1143   -0.0645 N   0  0  0  0  0  0  0  0  0  0  0  0
   -1.6133   -1.6968   -0.4959 C   0  0  0  0  0  0  0  0  0  0  0  0
   -1.9458   -0.4225   -0.8731 C   0  0  0  0  0  0  0  0  0  0  0  0
   -3.2518   -0.0987   -1.2922 C   0  0  0  0  0  0  0  0  0  0  0  0
   -4.2491   -1.0402   -1.3424 C   0  0  0  0  0  0  0  0  0  0  0  0
   -5.6117   -0.6957   -1.7808 C   0  0  0  0  0  0  0  0  0  0  0  0
   -6.4882   -0.2865   -0.7253 N   0  0  0  0  0  4  0  0  0  0  0  0
   -7.8165   -0.8198   -1.0106 C   0  0  0  0  0  0  0  0  0  0  0  0
   -6.1065   -0.8684    0.5592 C   0  0  0  0  0  0  0  0  0  0  0  0
   -6.6311    1.1465   -0.6350 C   0  0  0  0  0  0  0  0  0  0  0  0
   -5.8850    1.7397    0.5498 C   0  0  0  0  0  0  0  0  0  0  0  0
   -6.0418    3.2498    0.4355 C   0  0  0  0  0  0  0  0  0  0  0  0
   -7.3799    3.5419    0.6774 O   0  0  0  0  0  0  0  0  0  0  0  0
   -8.1096    3.0837   -0.4301 C   0  0  0  0  0  0  0  0  0  0  0  0
   -8.0869    1.5535   -0.4379 C   0  0  0  0  0  0  0  0  0  0  0  0
   -3.9336   -2.3274   -0.9666 C   0  0  0  0  0  0  0  0  0  0  0  0
   -2.6612   -2.6294   -0.5614 C   0  0  0  0  0  0  0  0  0  0  0  0
    2.3277   -3.2397    0.9052 C   0  0  0  0  0  0  0  0  0  0  0  0
    2.9655   -3.4114    2.2437 C   0  0  0  0  0  0  0  0  0  0  0  0
    4.3961   -3.2034    2.3677 C   0  0  0  0  0  0  0  0  0  0  0  0
    6.9209    2.3082   -0.0932 C   0  0  0  0  0  0  0  0  0  0  0  0
    7.6207    3.3637   -0.6075 C   0  0  0  0  0  0  0  0  0  0  0  0
    9.3757    4.4792   -2.5135 H   0  0  0  0  0  0  0  0  0  0  0  0
    9.6464    5.1821   -0.8673 H   0  0  0  0  0  0  0  0  0  0  0  0
   10.8181    3.9976   -1.5303 H   0  0  0  0  0  0  0  0  0  0  0  0
   10.5597    1.7336   -1.0372 H   0  0  0  0  0  0  0  0  0  0  0  0
    9.1896   -0.1340   -0.0876 H   0  0  0  0  0  0  0  0  0  0  0  0
    8.2502   -0.9390    1.6268 H   0  0  0  0  0  0  0  0  0  0  0  0
    6.8568   -2.7562    2.5770 H   0  0  0  0  0  0  0  0  0  0  0  0
    4.8123    0.6898   -0.2091 H   0  0  0  0  0  0  0  0  0  0  0  0
    2.8264    0.0974    0.2131 H   0  0  0  0  0  0  0  0  0  0  0  0
   -0.2603   -3.1377    0.1977 H   0  0  0  0  0  0  0  0  0  0  0  0
   -1.2072    0.3621   -0.8553 H   0  0  0  0  0  0  0  0  0  0  0  0
   -3.4467    0.9302   -1.5770 H   0  0  0  0  0  0  0  0  0  0  0  0
   -5.6058    0.1519   -2.5289 H   0  0  0  0  0  0  0  0  0  0  0  0
   -6.0812   -1.5435   -2.3234 H   0  0  0  0  0  0  0  0  0  0  0  0
   -7.6797   -1.9419   -0.9994 H   0  0  0  0  0  0  0  0  0  0  0  0
   -8.5461   -0.6190   -0.2095 H   0  0  0  0  0  0  0  0  0  0  0  0
   -8.1626   -0.5815   -2.0263 H   0  0  0  0  0  0  0  0  0  0  0  0
   -6.2226   -1.9580    0.4603 H   0  0  0  0  0  0  0  0  0  0  0  0
   -6.8798   -0.5433    1.3004 H   0  0  0  0  0  0  0  0  0  0  0  0
   -5.1347   -0.5353    0.9167 H   0  0  0  0  0  0  0  0  0  0  0  0
   -6.2478    1.5760   -1.5907 H   0  0  0  0  0  0  0  0  0  0  0  0
   -6.4539    1.4447    1.4565 H   0  0  0  0  0  0  0  0  0  0  0  0
   -4.8357    1.4506    0.5696 H   0  0  0  0  0  0  0  0  0  0  0  0
   -5.4609    3.6979    1.2768 H   0  0  0  0  0  0  0  0  0  0  0  0
   -5.6796    3.6217   -0.5412 H   0  0  0  0  0  0  0  0  0  0  0  0
   -7.6211    3.4957   -1.3290 H   0  0  0  0  0  0  0  0  0  0  0  0
   -9.1468    3.3899   -0.2847 H   0  0  0  0  0  0  0  0  0  0  0  0
   -8.3911    1.2454    0.5868 H   0  0  0  0  0  0  0  0  0  0  0  0
   -8.7548    1.1905   -1.2163 H   0  0  0  0  0  0  0  0  0  0  0  0
   -4.7038   -3.1154   -0.9920 H   0  0  0  0  0  0  0  0  0  0  0  0
   -2.4429   -3.6377   -0.2749 H   0  0  0  0  0  0  0  0  0  0  0  0
    3.0022   -3.7738    0.1681 H   0  0  0  0  0  0  0  0  0  0  0  0
    1.4002   -3.7884    0.8981 H   0  0  0  0  0  0  0  0  0  0  0  0
    2.7090   -4.4445    2.5868 H   0  0  0  0  0  0  0  0  0  0  0  0
    2.4124   -2.7354    2.9590 H   0  0  0  0  0  0  0  0  0  0  0  0
    4.9364   -4.1254    1.9930 H   0  0  0  0  0  0  0  0  0  0  0  0
    4.6770   -3.1908    3.4645 H   0  0  0  0  0  0  0  0  0  0  0  0
    5.8741    2.4859    0.1747 H   0  0  0  0  0  0  0  0  0  0  0  0
    7.1895    4.3615   -0.7607 H   0  0  0  0  0  0  0  0  0  0  0  0
  1  2  1  0
  2  3  2  0
  3  4  1  0
  4  5  2  0
  5  6  1  0
  6  7  2  0
  7  8  1  0
  8  9  2  0
  9 10  1  0
 10 11  2  0
 10 12  1  0
 12 13  2  0
 13 14  1  0
 14 15  2  0
 14 16  1  0
 16 17  1  0
 17 18  2  0
 18 19  1  0
 19 20  2  0
 20 21  1  0
 21 22  1  0
 22 23  1  0
 22 24  1  0
 22 25  1  0
 25 26  1  0
 26 27  1  0
 27 28  1  0
 28 29  1  0
 29 30  1  0
 20 31  1  0
 31 32  2  0
 13 33  1  0
 33 34  1  0
 34 35  1  0
  5 36  1  0
 36 37  2  0
 37  2  1  0
 11  6  1  0
 32 17  1  0
 35  9  1  0
 30 25  1  0
  1 38  1  0
  1 39  1  0
  1 40  1  0
  3 41  1  0
  4 42  1  0
  7 43  1  0
  8 44  1  0
 11 45  1  0
 12 46  1  0
 16 47  1  0
 18 48  1  0
 19 49  1  0
 21 50  1  0
 21 51  1  0
 23 52  1  0
 23 53  1  0
 23 54  1  0
 24 55  1  0
 24 56  1  0
 24 57  1  0
 25 58  1  0
 26 59  1  0
 26 60  1  0
 27 61  1  0
 27 62  1  0
 29 63  1  0
 29 64  1  0
 30 65  1  0
 30 66  1  0
 31 67  1  0
 32 68  1  0
 33 69  1  0
 33 70  1  0
 34 71  1  0
 34 72  1  0
 35 73  1  0
 35 74  1  0
 36 75  1  0
 37 76  1  0
M  CHG  1  22   1
M  END
$$$$
