@<TRIPOS>MOLECULE
*****
 76 80 0 0 0
SMALL
GASTEIGER

@<TRIPOS>ATOM
      1 C           9.7487    4.2659   -1.5125 C.3     1  UNL1       -0.0397
      2 C           8.9400    3.1506   -0.9483 C.ar    1  UNL1       -0.0504
      3 C           9.5142    1.9101   -0.7692 C.ar    1  UNL1       -0.0583
      4 C           8.7789    0.8492   -0.2426 C.ar    1  UNL1       -0.0538
      5 C           7.4722    1.0587    0.0955 C.ar    1  UNL1       -0.0178
      6 C           6.6335   -0.0200    0.6587 C.ar    1  UNL1       -0.0173
      7 C           7.1875   -1.0042    1.4481 C.ar    1  UNL1       -0.0537
      8 C           6.3935   -2.0034    1.9649 C.ar    1  UNL1       -0.0574
      9 C           5.0304   -2.0637    1.7201 C.ar    1  UNL1       -0.0402
     10 C           4.5004   -1.0696    0.9290 C.ar    1  UNL1       -0.0209
     11 C           5.2981   -0.0511    0.3998 C.ar    1  UNL1       -0.0466
     12 C           3.1016   -0.9208    0.5327 C.2     1  UNL1       -0.0462
     13 C           2.1406   -1.8347    0.5085 C.2     1  UNL1        0.0152
     14 C           0.8380   -1.3606    0.0568 C.2     1  UNL1        0.2443
     15 O           0.7640   -0.1221   -0.2611 O.2     1  UNL1       -0.2702
     16 N          -0.3311   -2.1143   -0.0645 N.am    1  UNL1       -0.2818
     17 C          -1.6133   -1.6968   -0.4959 C.ar    1  UNL1        0.0337
     18 C          -1.9458   -0.4225   -0.8731 C.ar    1  UNL1       -0.0400
     19 C          -3.2518   -0.0987   -1.2922 C.ar    1  UNL1       -0.0518
     20 C          -4.2491   -1.0402   -1.3424 C.ar    1  UNL1       -0.0027
     21 C          -5.6117   -0.6957   -1.7808 C.3     1  UNL1       -0.0044
     22 N          -6.4882   -0.2865   -0.7253 N.4     1  UNL1        0.2445
     23 C          -7.8165   -0.8198   -1.0106 C.3     1  UNL1       -0.0410
     24 C          -6.1065   -0.8684    0.5592 C.3     1  UNL1       -0.0410
     25 C          -6.6311    1.1465   -0.6350 C.3     1  UNL1       -0.0150
     26 C          -5.8850    1.7397    0.5498 C.3     1  UNL1        0.0139
     27 C          -6.0418    3.2498    0.4355 C.3     1  UNL1        0.0528
     28 O          -7.3799    3.5419    0.6774 O.3     1  UNL1       -0.3794
     29 C          -8.1096    3.0837   -0.4301 C.3     1  UNL1        0.0528
     30 C          -8.0869    1.5535   -0.4379 C.3     1  UNL1        0.0139
     31 C          -3.9336   -2.3274   -0.9666 C.ar    1  UNL1       -0.0518
     32 C          -2.6612   -2.6294   -0.5614 C.ar    1  UNL1       -0.0400
     33 C           2.3277   -3.2397    0.9052 C.3     1  UNL1       -0.0224
     34 C           2.9655   -3.4114    2.2437 C.3     1  UNL1       -0.0449
     35 C           4.3961   -3.2034    2.3677 C.3     1  UNL1       -0.0268
     36 C           6.9209    2.3082   -0.0932 C.ar    1  UNL1       -0.0538
     37 C           7.6207    3.3637   -0.6075 C.ar    1  UNL1       -0.0583
     38 H           9.3757    4.4792   -2.5135 H       1  UNL1        0.0278
     39 H           9.6464    5.1821   -0.8673 H       1  UNL1        0.0278
     40 H          10.8181    3.9976   -1.5303 H       1  UNL1        0.0278
     41 H          10.5597    1.7336   -1.0372 H       1  UNL1        0.0620
     42 H           9.1896   -0.1340   -0.0876 H       1  UNL1        0.0624
     43 H           8.2502   -0.9390    1.6268 H       1  UNL1        0.0624
     44 H           6.8568   -2.7562    2.5770 H       1  UNL1        0.0621
     45 H           4.8123    0.6898   -0.2091 H       1  UNL1        0.0630
     46 H           2.8264    0.0974    0.2131 H       1  UNL1        0.0628
     47 H          -0.2603   -3.1377    0.1977 H       1  UNL1        0.1551
     48 H          -1.2072    0.3621   -0.8553 H       1  UNL1        0.0636
     49 H          -3.4467    0.9302   -1.5770 H       1  UNL1        0.0623
     50 H          -5.6058    0.1519   -2.5289 H       1  UNL1        0.0868
     51 H          -6.0812   -1.5435   -2.3234 H       1  UNL1        0.0868
     52 H          -7.6797   -1.9419   -0.9994 H       1  UNL1        0.0778
     53 H          -8.5461   -0.6190   -0.2095 H       1  UNL1        0.0778
     54 H          -8.1626   -0.5815   -2.0263 H       1  UNL1        0.0778
     55 H          -6.2226   -1.9580    0.4603 H       1  UNL1        0.0778
     56 H          -6.8798   -0.5433    1.3004 H       1  UNL1        0.0778
     57 H          -5.1347   -0.5353    0.9167 H       1  UNL1        0.0778
     58 H          -6.2478    1.5760   -1.5907 H       1  UNL1        0.0853
     59 H          -6.4539    1.4447    1.4565 H       1  UNL1        0.0342
     60 H          -4.8357    1.4506    0.5696 H       1  UNL1        0.0342
     61 H          -5.4609    3.6979    1.2768 H       1  UNL1        0.0562
     62 H          -5.6796    3.6217   -0.5412 H       1  UNL1        0.0562
     63 H          -7.6211    3.4957   -1.3290 H       1  UNL1        0.0562
     64 H          -9.1468    3.3899   -0.2847 H       1  UNL1        0.0562
     65 H          -8.3911    1.2454    0.5868 H       1  UNL1        0.0342
     66 H          -8.7548    1.1905   -1.2163 H       1  UNL1        0.0342
     67 H          -4.7038   -3.1154   -0.9920 H       1  UNL1        0.0623
     68 H          -2.4429   -3.6377   -0.2749 H       1  UNL1        0.0636
     69 H           3.0022   -3.7738    0.1681 H       1  UNL1        0.0315
     70 H           1.4002   -3.7884    0.8981 H       1  UNL1        0.0315
     71 H           2.7090   -4.4445    2.5868 H       1  UNL1        0.0272
     72 H           2.4124   -2.7354    2.9590 H       1  UNL1        0.0272
     73 H           4.9364   -4.1254    1.9930 H       1  UNL1        0.0313
     74 H           4.6770   -3.1908    3.4645 H       1  UNL1        0.0313
     75 H           5.8741    2.4859    0.1747 H       1  UNL1        0.0624
     76 H           7.1895    4.3615   -0.7607 H       1  UNL1        0.0620
@<TRIPOS>UNITY_ATOM_ATTR
22 1
charge 1
@<TRIPOS>BOND
     1     1     2    1
     2     2     3   ar
     3     3     4   ar
     4     4     5   ar
     5     5     6    1
     6     6     7   ar
     7     7     8   ar
     8     8     9   ar
     9     9    10   ar
    10    10    11   ar
    11    10    12    1
    12    12    13    2
    13    13    14    1
    14    14    15    2
    15    14    16   am
    16    16    17    1
    17    17    18   ar
    18    18    19   ar
    19    19    20   ar
    20    20    21    1
    21    21    22    1
    22    22    23    1
    23    22    24    1
    24    22    25    1
    25    25    26    1
    26    26    27    1
    27    27    28    1
    28    28    29    1
    29    29    30    1
    30    20    31   ar
    31    31    32   ar
    32    13    33    1
    33    33    34    1
    34    34    35    1
    35     5    36   ar
    36    36    37   ar
    37    37     2   ar
    38    11     6   ar
    39    32    17   ar
    40    35     9    1
    41    30    25    1
    42     1    38    1
    43     1    39    1
    44     1    40    1
    45     3    41    1
    46     4    42    1
    47     7    43    1
    48     8    44    1
    49    11    45    1
    50    12    46    1
    51    16    47    1
    52    18    48    1
    53    19    49    1
    54    21    50    1
    55    21    51    1
    56    23    52    1
    57    23    53    1
    58    23    54    1
    59    24    55    1
    60    24    56    1
    61    24    57    1
    62    25    58    1
    63    26    59    1
    64    26    60    1
    65    27    61    1
    66    27    62    1
    67    29    63    1
    68    29    64    1
    69    30    65    1
    70    30    66    1
    71    31    67    1
    72    32    68    1
    73    33    69    1
    74    33    70    1
    75    34    71    1
    76    34    72    1
    77    35    73    1
    78    35    74    1
    79    36    75    1
    80    37    76    1
