@<TRIPOS>MOLECULE
*****
 48 50 0 0 0
SMALL
GASTEIGER

@<TRIPOS>ATOM
      1 C          -1.0500   -3.4548   -1.6916 C.3     1  UNL1        0.0789
      2 O          -1.4644   -2.2346   -1.1099 O.3     1  UNL1       -0.4933
      3 C          -0.5931   -1.2288   -0.7560 C.ar    1  UNL1        0.1411
      4 C           0.7697   -1.4023   -0.9737 C.ar    1  UNL1       -0.0163
      5 C           1.6673   -0.3968   -0.6227 C.ar    1  UNL1       -0.0358
      6 C           1.1666    0.7487   -0.0645 C.ar    1  UNL1        0.0500
      7 N           2.0063    1.8198    0.3016 N.pl3   1  UNL1       -0.2162
      8 S           3.3992    1.7058    1.2589 S.O2    1  UNL1        0.0723
      9 O           3.9438    3.1164    1.4834 O.2     1  UNL1       -0.1500
     10 O           3.0287    1.1161    2.6244 O.2     1  UNL1       -0.1500
     11 C           4.6689    0.7052    0.6138 C.ar    1  UNL1        0.1086
     12 C           4.8548   -0.5909    1.0448 C.ar    1  UNL1       -0.0340
     13 C           5.8504   -1.4028    0.5512 C.ar    1  UNL1       -0.0459
     14 C           6.7030   -0.9227   -0.4087 C.ar    1  UNL1        0.0180
     15 BR          8.0683   -2.0819   -1.0645 Br      1  UNL1       -0.0503
     16 C           6.5508    0.3641   -0.8647 C.ar    1  UNL1       -0.0459
     17 C           5.5339    1.1740   -0.3518 C.ar    1  UNL1       -0.0340
     18 C          -0.2126    0.9152    0.1515 C.ar    1  UNL1       -0.0147
     19 C          -1.1009   -0.0788   -0.1957 C.ar    1  UNL1        0.0738
     20 N          -2.5055    0.0139   -0.0102 N.pl3   1  UNL1       -0.3246
     21 C          -3.4579   -0.0620   -1.1002 C.3     1  UNL1        0.0251
     22 C          -4.8566   -0.2350   -0.5504 C.3     1  UNL1        0.0144
     23 N          -5.2133    0.7376    0.4328 N.3     1  UNL1       -0.3024
     24 C          -5.9628    1.8502   -0.1166 C.3     1  UNL1       -0.0126
     25 C          -4.1286    1.2460    1.2158 C.3     1  UNL1        0.0144
     26 C          -3.0703    0.1950    1.3240 C.3     1  UNL1        0.0251
     27 H          -1.8788   -4.1700   -1.7319 H       1  UNL1        0.0660
     28 H          -0.1442   -3.8694   -1.1831 H       1  UNL1        0.0660
     29 H          -0.7406   -3.2248   -2.7315 H       1  UNL1        0.0660
     30 H           1.1598   -2.3099   -1.4149 H       1  UNL1        0.0655
     31 H           2.7262   -0.4933   -0.7879 H       1  UNL1        0.0638
     32 H           1.7323    2.7943   -0.0638 H       1  UNL1        0.1737
     33 H           4.1998   -1.0002    1.8007 H       1  UNL1        0.0637
     34 H           5.9596   -2.4192    0.9210 H       1  UNL1        0.0629
     35 H           7.2393    0.7126   -1.6220 H       1  UNL1        0.0629
     36 H           5.4426    2.1655   -0.7257 H       1  UNL1        0.0637
     37 H          -0.6037    1.8275    0.5948 H       1  UNL1        0.0656
     38 H          -3.2699   -0.9096   -1.7754 H       1  UNL1        0.0476
     39 H          -3.4250    0.8552   -1.7047 H       1  UNL1        0.0476
     40 H          -5.5786   -0.1351   -1.4061 H       1  UNL1        0.0442
     41 H          -5.0235   -1.2581   -0.1421 H       1  UNL1        0.0442
     42 H          -6.0396    2.6159    0.6783 H       1  UNL1        0.0391
     43 H          -6.9741    1.5719   -0.4482 H       1  UNL1        0.0391
     44 H          -5.3968    2.3363   -0.9558 H       1  UNL1        0.0391
     45 H          -4.5166    1.4330    2.2465 H       1  UNL1        0.0442
     46 H          -3.6773    2.1573    0.7749 H       1  UNL1        0.0442
     47 H          -2.2659    0.4691    2.0353 H       1  UNL1        0.0476
     48 H          -3.5209   -0.7658    1.6636 H       1  UNL1        0.0476
@<TRIPOS>BOND
     1     1     2    1
     2     2     3    1
     3     3     4   ar
     4     4     5   ar
     5     5     6   ar
     6     6     7    1
     7     7     8    1
     8     8     9    2
     9     8    10    2
    10     8    11    1
    11    11    12   ar
    12    12    13   ar
    13    13    14   ar
    14    14    15    1
    15    14    16   ar
    16    16    17   ar
    17     6    18   ar
    18    18    19   ar
    19    19    20    1
    20    20    21    1
    21    21    22    1
    22    22    23    1
    23    23    24    1
    24    23    25    1
    25    25    26    1
    26    19     3   ar
    27    26    20    1
    28    17    11   ar
    29     1    27    1
    30     1    28    1
    31     1    29    1
    32     4    30    1
    33     5    31    1
    34     7    32    1
    35    12    33    1
    36    13    34    1
    37    16    35    1
    38    17    36    1
    39    18    37    1
    40    21    38    1
    41    21    39    1
    42    22    40    1
    43    22    41    1
    44    24    42    1
    45    24    43    1
    46    24    44    1
    47    25    45    1
    48    25    46    1
    49    26    47    1
    50    26    48    1
