
     RDKit          3D

 48 50  0  0  0  0  0  0  0  0999 V2000
   -1.0500   -3.4548   -1.6916 C   0  0  0  0  0  0  0  0  0  0  0  0
   -1.4644   -2.2346   -1.1099 O   0  0  0  0  0  0  0  0  0  0  0  0
   -0.5931   -1.2288   -0.7560 C   0  0  0  0  0  0  0  0  0  0  0  0
    0.7697   -1.4023   -0.9737 C   0  0  0  0  0  0  0  0  0  0  0  0
    1.6673   -0.3968   -0.6227 C   0  0  0  0  0  0  0  0  0  0  0  0
    1.1666    0.7487   -0.0645 C   0  0  0  0  0  0  0  0  0  0  0  0
    2.0063    1.8198    0.3016 N   0  0  0  0  0  0  0  0  0  0  0  0
    3.3992    1.7058    1.2589 S   0  0  0  0  0  6  0  0  0  0  0  0
    3.9438    3.1164    1.4834 O   0  0  0  0  0  0  0  0  0  0  0  0
    3.0287    1.1161    2.6244 O   0  0  0  0  0  0  0  0  0  0  0  0
    4.6689    0.7052    0.6138 C   0  0  0  0  0  0  0  0  0  0  0  0
    4.8548   -0.5909    1.0448 C   0  0  0  0  0  0  0  0  0  0  0  0
    5.8504   -1.4028    0.5512 C   0  0  0  0  0  0  0  0  0  0  0  0
    6.7030   -0.9227   -0.4087 C   0  0  0  0  0  0  0  0  0  0  0  0
    8.0683   -2.0819   -1.0645 Br  0  0  0  0  0  0  0  0  0  0  0  0
    6.5508    0.3641   -0.8647 C   0  0  0  0  0  0  0  0  0  0  0  0
    5.5339    1.1740   -0.3518 C   0  0  0  0  0  0  0  0  0  0  0  0
   -0.2126    0.9152    0.1515 C   0  0  0  0  0  0  0  0  0  0  0  0
   -1.1009   -0.0788   -0.1957 C   0  0  0  0  0  0  0  0  0  0  0  0
   -2.5055    0.0139   -0.0102 N   0  0  0  0  0  0  0  0  0  0  0  0
   -3.4579   -0.0620   -1.1002 C   0  0  0  0  0  0  0  0  0  0  0  0
   -4.8566   -0.2350   -0.5504 C   0  0  0  0  0  0  0  0  0  0  0  0
   -5.2133    0.7376    0.4328 N   0  0  0  0  0  0  0  0  0  0  0  0
   -5.9628    1.8502   -0.1166 C   0  0  0  0  0  0  0  0  0  0  0  0
   -4.1286    1.2460    1.2158 C   0  0  0  0  0  0  0  0  0  0  0  0
   -3.0703    0.1950    1.3240 C   0  0  0  0  0  0  0  0  0  0  0  0
   -1.8788   -4.1700   -1.7319 H   0  0  0  0  0  0  0  0  0  0  0  0
   -0.1442   -3.8694   -1.1831 H   0  0  0  0  0  0  0  0  0  0  0  0
   -0.7406   -3.2248   -2.7315 H   0  0  0  0  0  0  0  0  0  0  0  0
    1.1598   -2.3099   -1.4149 H   0  0  0  0  0  0  0  0  0  0  0  0
    2.7262   -0.4933   -0.7879 H   0  0  0  0  0  0  0  0  0  0  0  0
    1.7323    2.7943   -0.0638 H   0  0  0  0  0  0  0  0  0  0  0  0
    4.1998   -1.0002    1.8007 H   0  0  0  0  0  0  0  0  0  0  0  0
    5.9596   -2.4192    0.9210 H   0  0  0  0  0  0  0  0  0  0  0  0
    7.2393    0.7126   -1.6220 H   0  0  0  0  0  0  0  0  0  0  0  0
    5.4426    2.1655   -0.7257 H   0  0  0  0  0  0  0  0  0  0  0  0
   -0.6037    1.8275    0.5948 H   0  0  0  0  0  0  0  0  0  0  0  0
   -3.2699   -0.9096   -1.7754 H   0  0  0  0  0  0  0  0  0  0  0  0
   -3.4250    0.8552   -1.7047 H   0  0  0  0  0  0  0  0  0  0  0  0
   -5.5786   -0.1351   -1.4061 H   0  0  0  0  0  0  0  0  0  0  0  0
   -5.0235   -1.2581   -0.1421 H   0  0  0  0  0  0  0  0  0  0  0  0
   -6.0396    2.6159    0.6783 H   0  0  0  0  0  0  0  0  0  0  0  0
   -6.9741    1.5719   -0.4482 H   0  0  0  0  0  0  0  0  0  0  0  0
   -5.3968    2.3363   -0.9558 H   0  0  0  0  0  0  0  0  0  0  0  0
   -4.5166    1.4330    2.2465 H   0  0  0  0  0  0  0  0  0  0  0  0
   -3.6773    2.1573    0.7749 H   0  0  0  0  0  0  0  0  0  0  0  0
   -2.2659    0.4691    2.0353 H   0  0  0  0  0  0  0  0  0  0  0  0
   -3.5209   -0.7658    1.6636 H   0  0  0  0  0  0  0  0  0  0  0  0
  1  2  1  0
  2  3  1  0
  3  4  2  0
  4  5  1  0
  5  6  2  0
  6  7  1  0
  7  8  1  0
  8  9  2  0
  8 10  2  0
  8 11  1  0
 11 12  2  0
 12 13  1  0
 13 14  2  0
 14 15  1  0
 14 16  1  0
 16 17  2  0
  6 18  1  0
 18 19  2  0
 19 20  1  0
 20 21  1  0
 21 22  1  0
 22 23  1  0
 23 24  1  0
 23 25  1  0
 25 26  1  0
 19  3  1  0
 26 20  1  0
 17 11  1  0
  1 27  1  0
  1 28  1  0
  1 29  1  0
  4 30  1  0
  5 31  1  0
  7 32  1  0
 12 33  1  0
 13 34  1  0
 16 35  1  0
 17 36  1  0
 18 37  1  0
 21 38  1  0
 21 39  1  0
 22 40  1  0
 22 41  1  0
 24 42  1  0
 24 43  1  0
 24 44  1  0
 25 45  1  0
 25 46  1  0
 26 47  1  0
 26 48  1  0
M  END
$$$$
