@<TRIPOS>MOLECULE
*****
 61 68 0 0 0
SMALL
GASTEIGER

@<TRIPOS>ATOM
      1 C           5.2395   -0.7827   -0.5772 C.3     1  UNL1       -0.0155
      2 N           4.0477   -1.4615   -1.0466 N.3     1  UNL1       -0.3136
      3 C           2.9892   -1.2606   -0.1152 C.3     1  UNL1        0.0423
      4 C           1.7100   -2.0041   -0.5349 C.3     1  UNL1        0.0107
      5 C           0.8530   -1.9929    0.7399 C.3     1  UNL1        0.1402
      6 O           1.2114   -1.0169    1.6002 O.3     1  UNL1       -0.3282
      7 C           1.5152    0.2378    1.0758 C.3     1  UNL1        0.1741
      8 C           2.1598    0.9604    2.2741 C.3     1  UNL1       -0.0136
      9 C           2.5351    0.2061   -0.0227 C.3     1  UNL1        0.1214
     10 O           1.9843    0.5443   -1.2590 O.3     1  UNL1       -0.3735
     11 C           2.6892    1.5211   -1.9354 C.3     1  UNL1        0.0371
     12 N           0.3291    0.9942    0.7032 N.ar    1  UNL1       -0.3070
     13 C           0.2067    2.3350    0.6690 C.ar    1  UNL1        0.0527
     14 C           1.1158    3.3459    0.8789 C.ar    1  UNL1       -0.0375
     15 C           0.7169    4.6861    0.7596 C.ar    1  UNL1       -0.0598
     16 C          -0.5836    5.0037    0.4308 C.ar    1  UNL1       -0.0611
     17 C          -1.5137    4.0102    0.2135 C.ar    1  UNL1       -0.0520
     18 C          -1.0803    2.6997    0.3414 C.ar    1  UNL1        0.0081
     19 C          -1.7799    1.5237    0.1594 C.ar    1  UNL1        0.0151
     20 C          -3.0923    1.2419   -0.1879 C.ar    1  UNL1       -0.0078
     21 C          -3.5155   -0.0796   -0.3137 C.ar    1  UNL1        0.0518
     22 C          -2.5967   -1.1100   -0.0858 C.ar    1  UNL1        0.0221
     23 C          -2.6819   -2.4679   -0.1517 C.ar    1  UNL1        0.0085
     24 C          -3.7001   -3.3403   -0.4410 C.ar    1  UNL1       -0.0520
     25 C          -3.4020   -4.7081   -0.4100 C.ar    1  UNL1       -0.0611
     26 C          -2.1451   -5.1772   -0.1041 C.ar    1  UNL1       -0.0598
     27 C          -1.1378   -4.2813    0.1832 C.ar    1  UNL1       -0.0375
     28 C          -1.4063   -2.9348    0.1591 C.ar    1  UNL1        0.0524
     29 N          -0.5777   -1.9313    0.4046 N.ar    1  UNL1       -0.3115
     30 C          -1.2918   -0.8136    0.2610 C.ar    1  UNL1        0.0774
     31 C          -0.9101    0.5102    0.3799 C.ar    1  UNL1        0.0772
     32 C          -4.9039   -0.0289   -0.6770 C.2     1  UNL1        0.2453
     33 O          -5.6816   -0.9876   -0.8912 O.2     1  UNL1       -0.2702
     34 N          -5.2947    1.3592   -0.7642 N.am    1  UNL1       -0.3072
     35 C          -4.1714    2.2005   -0.4573 C.3     1  UNL1        0.0385
     36 H           5.0803   -0.3557    0.4555 H       1  UNL1        0.0388
     37 H           6.0831   -1.5232   -0.4434 H       1  UNL1        0.0388
     38 H           5.5689    0.0303   -1.2516 H       1  UNL1        0.0388
     39 H           4.2479   -2.4667   -1.1006 H       1  UNL1        0.1220
     40 H           3.2386   -1.6378    0.8915 H       1  UNL1        0.0489
     41 H           1.2356   -1.3690   -1.3084 H       1  UNL1        0.0325
     42 H           1.9346   -3.0241   -0.8679 H       1  UNL1        0.0325
     43 H           1.0446   -2.9720    1.2237 H       1  UNL1        0.0839
     44 H           1.5147    1.6963    2.7387 H       1  UNL1        0.0277
     45 H           3.1502    1.3542    2.0590 H       1  UNL1        0.0277
     46 H           2.3576    0.2104    3.1168 H       1  UNL1        0.0277
     47 H           3.4342    0.7988    0.1609 H       1  UNL1        0.0660
     48 H           3.7349    1.2553   -2.1678 H       1  UNL1        0.0524
     49 H           2.1447    1.6819   -2.8982 H       1  UNL1        0.0524
     50 H           2.7463    2.4650   -1.3432 H       1  UNL1        0.0524
     51 H           2.1477    3.1330    1.1085 H       1  UNL1        0.0638
     52 H           1.4549    5.4688    0.9317 H       1  UNL1        0.0618
     53 H          -0.8275    6.0630    0.3546 H       1  UNL1        0.0618
     54 H          -2.5197    4.2482   -0.0416 H       1  UNL1        0.0624
     55 H          -4.7027   -3.0527   -0.6873 H       1  UNL1        0.0624
     56 H          -4.2099   -5.4192   -0.6401 H       1  UNL1        0.0618
     57 H          -1.9215   -6.2434   -0.0822 H       1  UNL1        0.0618
     58 H          -0.1388   -4.6325    0.4270 H       1  UNL1        0.0638
     59 H          -6.2824    1.6290   -1.0223 H       1  UNL1        0.1493
     60 H          -4.3786    2.8239    0.4605 H       1  UNL1        0.0512
     61 H          -3.9742    2.8374   -1.3322 H       1  UNL1        0.0512
@<TRIPOS>BOND
     1     1     2    1
     2     2     3    1
     3     3     4    1
     4     4     5    1
     5     5     6    1
     6     6     7    1
     7     7     8    1
     8     7     9    1
     9     9    10    1
    10    10    11    1
    11     7    12    1
    12    12    13   ar
    13    13    14   ar
    14    14    15   ar
    15    15    16   ar
    16    16    17   ar
    17    17    18   ar
    18    18    19   ar
    19    19    20   ar
    20    20    21   ar
    21    21    22   ar
    22    22    23   ar
    23    23    24   ar
    24    24    25   ar
    25    25    26   ar
    26    26    27   ar
    27    27    28   ar
    28    28    29   ar
    29    29    30   ar
    30    30    31   ar
    31    21    32    1
    32    32    33    2
    33    32    34   am
    34    34    35    1
    35     9     3    1
    36    31    12   ar
    37    29     5    1
    38    18    13   ar
    39    31    19   ar
    40    35    20    1
    41    30    22   ar
    42    28    23   ar
    43     1    36    1
    44     1    37    1
    45     1    38    1
    46     2    39    1
    47     3    40    1
    48     4    41    1
    49     4    42    1
    50     5    43    1
    51     8    44    1
    52     8    45    1
    53     8    46    1
    54     9    47    1
    55    11    48    1
    56    11    49    1
    57    11    50    1
    58    14    51    1
    59    15    52    1
    60    16    53    1
    61    17    54    1
    62    24    55    1
    63    25    56    1
    64    26    57    1
    65    27    58    1
    66    34    59    1
    67    35    60    1
    68    35    61    1
