
     RDKit          3D

 61 68  0  0  0  0  0  0  0  0999 V2000
    5.2395   -0.7827   -0.5772 C   0  0  0  0  0  0  0  0  0  0  0  0
    4.0477   -1.4615   -1.0466 N   0  0  0  0  0  0  0  0  0  0  0  0
    2.9892   -1.2606   -0.1152 C   0  0  2  0  0  0  0  0  0  0  0  0
    1.7100   -2.0041   -0.5349 C   0  0  0  0  0  0  0  0  0  0  0  0
    0.8530   -1.9929    0.7399 C   0  0  1  0  0  0  0  0  0  0  0  0
    1.2114   -1.0169    1.6002 O   0  0  0  0  0  0  0  0  0  0  0  0
    1.5152    0.2378    1.0758 C   0  0  1  0  0  0  0  0  0  0  0  0
    2.1598    0.9604    2.2741 C   0  0  0  0  0  0  0  0  0  0  0  0
    2.5351    0.2061   -0.0227 C   0  0  2  0  0  0  0  0  0  0  0  0
    1.9843    0.5443   -1.2590 O   0  0  0  0  0  0  0  0  0  0  0  0
    2.6892    1.5211   -1.9354 C   0  0  0  0  0  0  0  0  0  0  0  0
    0.3291    0.9942    0.7032 N   0  0  0  0  0  0  0  0  0  0  0  0
    0.2067    2.3350    0.6690 C   0  0  0  0  0  0  0  0  0  0  0  0
    1.1158    3.3459    0.8789 C   0  0  0  0  0  0  0  0  0  0  0  0
    0.7169    4.6861    0.7596 C   0  0  0  0  0  0  0  0  0  0  0  0
   -0.5836    5.0037    0.4308 C   0  0  0  0  0  0  0  0  0  0  0  0
   -1.5137    4.0102    0.2135 C   0  0  0  0  0  0  0  0  0  0  0  0
   -1.0803    2.6997    0.3414 C   0  0  0  0  0  0  0  0  0  0  0  0
   -1.7799    1.5237    0.1594 C   0  0  0  0  0  0  0  0  0  0  0  0
   -3.0923    1.2419   -0.1879 C   0  0  0  0  0  0  0  0  0  0  0  0
   -3.5155   -0.0796   -0.3137 C   0  0  0  0  0  0  0  0  0  0  0  0
   -2.5967   -1.1100   -0.0858 C   0  0  0  0  0  0  0  0  0  0  0  0
   -2.6819   -2.4679   -0.1517 C   0  0  0  0  0  0  0  0  0  0  0  0
   -3.7001   -3.3403   -0.4410 C   0  0  0  0  0  0  0  0  0  0  0  0
   -3.4020   -4.7081   -0.4100 C   0  0  0  0  0  0  0  0  0  0  0  0
   -2.1451   -5.1772   -0.1041 C   0  0  0  0  0  0  0  0  0  0  0  0
   -1.1378   -4.2813    0.1832 C   0  0  0  0  0  0  0  0  0  0  0  0
   -1.4063   -2.9348    0.1591 C   0  0  0  0  0  0  0  0  0  0  0  0
   -0.5777   -1.9313    0.4046 N   0  0  0  0  0  0  0  0  0  0  0  0
   -1.2918   -0.8136    0.2610 C   0  0  0  0  0  0  0  0  0  0  0  0
   -0.9101    0.5102    0.3799 C   0  0  0  0  0  0  0  0  0  0  0  0
   -4.9039   -0.0289   -0.6770 C   0  0  0  0  0  0  0  0  0  0  0  0
   -5.6816   -0.9876   -0.8912 O   0  0  0  0  0  0  0  0  0  0  0  0
   -5.2947    1.3592   -0.7642 N   0  0  0  0  0  0  0  0  0  0  0  0
   -4.1714    2.2005   -0.4573 C   0  0  0  0  0  0  0  0  0  0  0  0
    5.0803   -0.3557    0.4555 H   0  0  0  0  0  0  0  0  0  0  0  0
    6.0831   -1.5232   -0.4434 H   0  0  0  0  0  0  0  0  0  0  0  0
    5.5689    0.0303   -1.2516 H   0  0  0  0  0  0  0  0  0  0  0  0
    4.2479   -2.4667   -1.1006 H   0  0  0  0  0  0  0  0  0  0  0  0
    3.2386   -1.6378    0.8915 H   0  0  0  0  0  0  0  0  0  0  0  0
    1.2356   -1.3690   -1.3084 H   0  0  0  0  0  0  0  0  0  0  0  0
    1.9346   -3.0241   -0.8679 H   0  0  0  0  0  0  0  0  0  0  0  0
    1.0446   -2.9720    1.2237 H   0  0  0  0  0  0  0  0  0  0  0  0
    1.5147    1.6963    2.7387 H   0  0  0  0  0  0  0  0  0  0  0  0
    3.1502    1.3542    2.0590 H   0  0  0  0  0  0  0  0  0  0  0  0
    2.3576    0.2104    3.1168 H   0  0  0  0  0  0  0  0  0  0  0  0
    3.4342    0.7988    0.1609 H   0  0  0  0  0  0  0  0  0  0  0  0
    3.7349    1.2553   -2.1678 H   0  0  0  0  0  0  0  0  0  0  0  0
    2.1447    1.6819   -2.8982 H   0  0  0  0  0  0  0  0  0  0  0  0
    2.7463    2.4650   -1.3432 H   0  0  0  0  0  0  0  0  0  0  0  0
    2.1477    3.1330    1.1085 H   0  0  0  0  0  0  0  0  0  0  0  0
    1.4549    5.4688    0.9317 H   0  0  0  0  0  0  0  0  0  0  0  0
   -0.8275    6.0630    0.3546 H   0  0  0  0  0  0  0  0  0  0  0  0
   -2.5197    4.2482   -0.0416 H   0  0  0  0  0  0  0  0  0  0  0  0
   -4.7027   -3.0527   -0.6873 H   0  0  0  0  0  0  0  0  0  0  0  0
   -4.2099   -5.4192   -0.6401 H   0  0  0  0  0  0  0  0  0  0  0  0
   -1.9215   -6.2434   -0.0822 H   0  0  0  0  0  0  0  0  0  0  0  0
   -0.1388   -4.6325    0.4270 H   0  0  0  0  0  0  0  0  0  0  0  0
   -6.2824    1.6290   -1.0223 H   0  0  0  0  0  0  0  0  0  0  0  0
   -4.3786    2.8239    0.4605 H   0  0  0  0  0  0  0  0  0  0  0  0
   -3.9742    2.8374   -1.3322 H   0  0  0  0  0  0  0  0  0  0  0  0
  1  2  1  0
  2  3  1  0
  3  4  1  0
  4  5  1  0
  5  6  1  0
  6  7  1  0
  7  8  1  1
  7  9  1  0
  9 10  1  0
 10 11  1  0
  7 12  1  0
 12 13  1  0
 13 14  2  0
 14 15  1  0
 15 16  2  0
 16 17  1  0
 17 18  2  0
 18 19  1  0
 19 20  2  0
 20 21  1  0
 21 22  2  0
 22 23  1  0
 23 24  2  0
 24 25  1  0
 25 26  2  0
 26 27  1  0
 27 28  2  0
 28 29  1  0
 29 30  1  0
 30 31  2  0
 21 32  1  0
 32 33  2  0
 32 34  1  0
 34 35  1  0
  9  3  1  0
 31 12  1  0
 29  5  1  0
 18 13  1  0
 31 19  1  0
 35 20  1  0
 30 22  1  0
 28 23  1  0
  1 36  1  0
  1 37  1  0
  1 38  1  0
  2 39  1  0
  3 40  1  1
  4 41  1  0
  4 42  1  0
  5 43  1  1
  8 44  1  0
  8 45  1  0
  8 46  1  0
  9 47  1  1
 11 48  1  0
 11 49  1  0
 11 50  1  0
 14 51  1  0
 15 52  1  0
 16 53  1  0
 17 54  1  0
 24 55  1  0
 25 56  1  0
 26 57  1  0
 27 58  1  0
 34 59  1  0
 35 60  1  0
 35 61  1  0
M  END
$$$$
