
     RDKit          3D

 59 62  0  0  0  0  0  0  0  0999 V2000
  -11.0569   -0.2175   -1.0878 C   0  0  0  0  0  0  0  0  0  0  0  0
   -9.7387   -0.1864   -0.3548 C   0  0  0  0  0  0  0  0  0  0  0  0
   -9.5220    0.7750    0.6056 C   0  0  0  0  0  0  0  0  0  0  0  0
   -8.3152    0.7666    1.2732 C   0  0  0  0  0  0  0  0  0  0  0  0
   -8.1245    1.8252    2.2961 C   0  0  0  0  0  0  0  0  0  0  0  0
   -7.3772   -0.1744    0.9792 N   0  0  0  0  0  0  0  0  0  0  0  0
   -7.5701   -1.1110    0.0550 C   0  0  0  0  0  0  0  0  0  0  0  0
   -6.4695   -2.4368   -0.3689 S   0  0  0  0  0  0  0  0  0  0  0  0
   -5.2703   -1.9555   -1.5803 C   0  0  0  0  0  0  0  0  0  0  0  0
   -3.8761   -1.9166   -1.1891 C   0  0  0  0  0  0  0  0  0  0  0  0
   -3.1588   -2.9179   -1.5815 O   0  0  0  0  0  0  0  0  0  0  0  0
   -3.1543   -0.9560   -0.4470 N   0  0  0  0  0  0  0  0  0  0  0  0
   -1.7381   -1.1678   -0.2138 C   0  0  0  0  0  0  0  0  0  0  0  0
   -1.3015   -1.8502    0.8856 C   0  0  0  0  0  0  0  0  0  0  0  0
    0.0649   -2.1036    1.0560 C   0  0  0  0  0  0  0  0  0  0  0  0
    1.0137   -1.6750    0.1251 C   0  0  0  0  0  0  0  0  0  0  0  0
    0.5738   -0.9950   -0.9656 C   0  0  0  0  0  0  0  0  0  0  0  0
    1.4583   -0.5326   -2.0630 C   0  0  0  0  0  0  0  0  0  0  0  0
    2.7579   -0.5830   -1.9313 O   0  0  0  0  0  0  0  0  0  0  0  0
    3.8822   -0.2935   -1.3562 C   0  0  0  0  0  0  0  0  0  0  0  0
    3.9505    0.5021   -0.2096 C   0  0  0  0  0  0  0  0  0  0  0  0
    5.1239    0.8280    0.4110 C   0  0  0  0  0  0  0  0  0  0  0  0
    6.3065    0.3728   -0.0839 C   0  0  0  0  0  0  0  0  0  0  0  0
    7.5926    0.6556    0.5048 N   0  0  0  0  0  0  0  0  0  0  0  0
    8.2949    1.8515    0.2335 C   0  0  0  0  0  0  0  0  0  0  0  0
    7.7453    2.6922   -0.5464 O   0  0  0  0  0  0  0  0  0  0  0  0
    9.5667    2.1362    0.7943 C   0  0  0  0  0  0  0  0  0  0  0  0
   10.3932    1.4246    1.6221 C   0  0  0  0  0  0  0  0  0  0  0  0
   11.5685    1.9097    1.9968 C   0  0  0  0  0  0  0  0  0  0  0  0
   11.9627    3.1866    1.5299 C   0  0  0  0  0  0  0  0  0  0  0  0
   10.5238    3.6423    0.5093 S   0  0  0  0  0  0  0  0  0  0  0  0
    6.2827   -0.4235   -1.2224 C   0  0  0  0  0  0  0  0  0  0  0  0
    5.1276   -0.7566   -1.8504 C   0  0  0  0  0  0  0  0  0  0  0  0
   -0.8061   -0.7460   -1.1251 C   0  0  0  0  0  0  0  0  0  0  0  0
   -8.7853   -1.0893   -0.6090 N   0  0  0  0  0  0  0  0  0  0  0  0
  -11.4188    0.7944   -1.2707 H   0  0  0  0  0  0  0  0  0  0  0  0
  -10.8503   -0.7153   -2.0788 H   0  0  0  0  0  0  0  0  0  0  0  0
  -11.8016   -0.8643   -0.5709 H   0  0  0  0  0  0  0  0  0  0  0  0
  -10.2972    1.4890    0.7998 H   0  0  0  0  0  0  0  0  0  0  0  0
   -7.5993    2.6635    1.7695 H   0  0  0  0  0  0  0  0  0  0  0  0
   -7.4646    1.4199    3.0798 H   0  0  0  0  0  0  0  0  0  0  0  0
   -9.1089    2.1599    2.6871 H   0  0  0  0  0  0  0  0  0  0  0  0
   -5.4937   -0.9026   -1.9948 H   0  0  0  0  0  0  0  0  0  0  0  0
   -5.4320   -2.5828   -2.5108 H   0  0  0  0  0  0  0  0  0  0  0  0
   -3.6283   -0.1302   -0.0857 H   0  0  0  0  0  0  0  0  0  0  0  0
   -2.0102   -2.2025    1.6392 H   0  0  0  0  0  0  0  0  0  0  0  0
    0.4390   -2.6339    1.9016 H   0  0  0  0  0  0  0  0  0  0  0  0
    2.0755   -1.8950    0.2932 H   0  0  0  0  0  0  0  0  0  0  0  0
    1.0554    0.5338   -2.2963 H   0  0  0  0  0  0  0  0  0  0  0  0
    1.1183   -1.0680   -3.0228 H   0  0  0  0  0  0  0  0  0  0  0  0
    3.0249    0.8813    0.2092 H   0  0  0  0  0  0  0  0  0  0  0  0
    5.1457    1.4500    1.3067 H   0  0  0  0  0  0  0  0  0  0  0  0
    8.0438   -0.0328    1.1563 H   0  0  0  0  0  0  0  0  0  0  0  0
    9.9979    0.4099    1.9532 H   0  0  0  0  0  0  0  0  0  0  0  0
   12.2958    1.3594    2.6749 H   0  0  0  0  0  0  0  0  0  0  0  0
   12.8309    3.7546    1.6963 H   0  0  0  0  0  0  0  0  0  0  0  0
    7.2452   -0.7903   -1.6163 H   0  0  0  0  0  0  0  0  0  0  0  0
    5.0737   -1.3768   -2.7422 H   0  0  0  0  0  0  0  0  0  0  0  0
   -1.1664   -0.2014   -1.9906 H   0  0  0  0  0  0  0  0  0  0  0  0
  1  2  1  0
  2  3  2  0
  3  4  1  0
  4  5  1  0
  4  6  2  0
  6  7  1  0
  7  8  1  0
  8  9  1  0
  9 10  1  0
 10 11  2  0
 10 12  1  0
 12 13  1  0
 13 14  2  0
 14 15  1  0
 15 16  2  0
 16 17  1  0
 17 18  1  0
 18 19  1  0
 19 20  1  0
 20 21  2  0
 21 22  1  0
 22 23  2  0
 23 24  1  0
 24 25  1  0
 25 26  2  0
 25 27  1  0
 27 28  2  0
 28 29  1  0
 29 30  2  0
 30 31  1  0
 23 32  1  0
 32 33  2  0
 17 34  2  0
  7 35  2  0
 35  2  1  0
 34 13  1  0
 33 20  1  0
 31 27  1  0
  1 36  1  0
  1 37  1  0
  1 38  1  0
  3 39  1  0
  5 40  1  0
  5 41  1  0
  5 42  1  0
  9 43  1  0
  9 44  1  0
 12 45  1  0
 14 46  1  0
 15 47  1  0
 16 48  1  0
 18 49  1  0
 18 50  1  0
 21 51  1  0
 22 52  1  0
 24 53  1  0
 28 54  1  0
 29 55  1  0
 30 56  1  0
 32 57  1  0
 33 58  1  0
 34 59  1  0
M  END
$$$$
