@<TRIPOS>MOLECULE
*****
 59 62 0 0 0
SMALL
GASTEIGER

@<TRIPOS>ATOM
      1 C         -11.0569   -0.2175   -1.0878 C.3     1  UNL1       -0.0222
      2 C          -9.7387   -0.1864   -0.3548 C.ar    1  UNL1        0.0428
      3 C          -9.5220    0.7750    0.6056 C.ar    1  UNL1       -0.0195
      4 C          -8.3152    0.7666    1.2732 C.ar    1  UNL1        0.0428
      5 C          -8.1245    1.8252    2.2961 C.3     1  UNL1       -0.0222
      6 N          -7.3772   -0.1744    0.9792 N.ar    1  UNL1       -0.2271
      7 C          -7.5701   -1.1110    0.0550 C.ar    1  UNL1        0.1891
      8 S          -6.4695   -2.4368   -0.3689 S.3     1  UNL1       -0.0767
      9 C          -5.2703   -1.9555   -1.5803 C.3     1  UNL1        0.0779
     10 C          -3.8761   -1.9166   -1.1891 C.2     1  UNL1        0.2275
     11 O          -3.1588   -2.9179   -1.5815 O.2     1  UNL1       -0.2746
     12 N          -3.1543   -0.9560   -0.4470 N.am    1  UNL1       -0.2848
     13 C          -1.7381   -1.1678   -0.2138 C.ar    1  UNL1        0.0338
     14 C          -1.3015   -1.8502    0.8856 C.ar    1  UNL1       -0.0405
     15 C           0.0649   -2.1036    1.0560 C.ar    1  UNL1       -0.0596
     16 C           1.0137   -1.6750    0.1251 C.ar    1  UNL1       -0.0552
     17 C           0.5738   -0.9950   -0.9656 C.ar    1  UNL1       -0.0087
     18 C           1.4583   -0.5326   -2.0630 C.3     1  UNL1        0.1147
     19 O           2.7579   -0.5830   -1.9313 O.3     1  UNL1       -0.4874
     20 C           3.8822   -0.2935   -1.3562 C.ar    1  UNL1        0.1211
     21 C           3.9505    0.5021   -0.2096 C.ar    1  UNL1       -0.0182
     22 C           5.1239    0.8280    0.4110 C.ar    1  UNL1       -0.0370
     23 C           6.3065    0.3728   -0.0839 C.ar    1  UNL1        0.0339
     24 N           7.5926    0.6556    0.5048 N.am    1  UNL1       -0.2811
     25 C           8.2949    1.8515    0.2335 C.2     1  UNL1        0.2549
     26 O           7.7453    2.6922   -0.5464 O.2     1  UNL1       -0.2693
     27 C           9.5667    2.1362    0.7943 C.ar    1  UNL1        0.0742
     28 C          10.3932    1.4246    1.6221 C.ar    1  UNL1       -0.0425
     29 C          11.5685    1.9097    1.9968 C.ar    1  UNL1       -0.0540
     30 C          11.9627    3.1866    1.5299 C.ar    1  UNL1       -0.0236
     31 S          10.5238    3.6423    0.5093 S.2     1  UNL1       -0.0921
     32 C           6.2827   -0.4235   -1.2224 C.ar    1  UNL1       -0.0370
     33 C           5.1276   -0.7566   -1.8504 C.ar    1  UNL1       -0.0182
     34 C          -0.8061   -0.7460   -1.1251 C.ar    1  UNL1       -0.0341
     35 N          -8.7853   -1.0893   -0.6090 N.ar    1  UNL1       -0.2271
     36 H         -11.4188    0.7944   -1.2707 H       1  UNL1        0.0293
     37 H         -10.8503   -0.7153   -2.0788 H       1  UNL1        0.0293
     38 H         -11.8016   -0.8643   -0.5709 H       1  UNL1        0.0293
     39 H         -10.2972    1.4890    0.7998 H       1  UNL1        0.0653
     40 H          -7.5993    2.6635    1.7695 H       1  UNL1        0.0293
     41 H          -7.4646    1.4199    3.0798 H       1  UNL1        0.0293
     42 H          -9.1089    2.1599    2.6871 H       1  UNL1        0.0293
     43 H          -5.4937   -0.9026   -1.9948 H       1  UNL1        0.0475
     44 H          -5.4320   -2.5828   -2.5108 H       1  UNL1        0.0475
     45 H          -3.6283   -0.1302   -0.0857 H       1  UNL1        0.1548
     46 H          -2.0102   -2.2025    1.6392 H       1  UNL1        0.0636
     47 H           0.4390   -2.6339    1.9016 H       1  UNL1        0.0618
     48 H           2.0755   -1.8950    0.2932 H       1  UNL1        0.0621
     49 H           1.0554    0.5338   -2.2963 H       1  UNL1        0.0748
     50 H           1.1183   -1.0680   -3.0228 H       1  UNL1        0.0748
     51 H           3.0249    0.8813    0.2092 H       1  UNL1        0.0655
     52 H           5.1457    1.4500    1.3067 H       1  UNL1        0.0637
     53 H           8.0438   -0.0328    1.1563 H       1  UNL1        0.1551
     54 H           9.9979    0.4099    1.9532 H       1  UNL1        0.0630
     55 H          12.2958    1.3594    2.6749 H       1  UNL1        0.0623
     56 H          12.8309    3.7546    1.6963 H       1  UNL1        0.0693
     57 H           7.2452   -0.7903   -1.6163 H       1  UNL1        0.0637
     58 H           5.0737   -1.3768   -2.7422 H       1  UNL1        0.0655
     59 H          -1.1664   -0.2014   -1.9906 H       1  UNL1        0.0640
@<TRIPOS>BOND
     1     1     2    1
     2     2     3   ar
     3     3     4   ar
     4     4     5    1
     5     4     6   ar
     6     6     7   ar
     7     7     8    1
     8     8     9    1
     9     9    10    1
    10    10    11    2
    11    10    12   am
    12    12    13    1
    13    13    14   ar
    14    14    15   ar
    15    15    16   ar
    16    16    17   ar
    17    17    18    1
    18    18    19    1
    19    19    20    1
    20    20    21   ar
    21    21    22   ar
    22    22    23   ar
    23    23    24    1
    24    24    25   am
    25    25    26    2
    26    25    27    1
    27    27    28   ar
    28    28    29   ar
    29    29    30   ar
    30    30    31   ar
    31    23    32   ar
    32    32    33   ar
    33    17    34   ar
    34     7    35   ar
    35    35     2   ar
    36    34    13   ar
    37    33    20   ar
    38    31    27   ar
    39     1    36    1
    40     1    37    1
    41     1    38    1
    42     3    39    1
    43     5    40    1
    44     5    41    1
    45     5    42    1
    46     9    43    1
    47     9    44    1
    48    12    45    1
    49    14    46    1
    50    15    47    1
    51    16    48    1
    52    18    49    1
    53    18    50    1
    54    21    51    1
    55    22    52    1
    56    24    53    1
    57    28    54    1
    58    29    55    1
    59    30    56    1
    60    32    57    1
    61    33    58    1
    62    34    59    1
