@<TRIPOS>MOLECULE
*****
 46 49 0 0 0
SMALL
GASTEIGER

@<TRIPOS>ATOM
      1 O           6.8254    1.0662    0.5442 O.2     1  UNL1       -0.2681
      2 C           6.0031    0.4630   -0.1811 C.2     1  UNL1        0.2665
      3 N           6.3809    0.1170   -1.4969 N.am    1  UNL1       -0.1935
      4 O           7.6482    0.4744   -1.8944 O.3     1  UNL1       -0.2949
      5 C           4.6968    0.1420    0.3531 C.ar    1  UNL1        0.0390
      6 C           4.3900    0.5105    1.6684 C.ar    1  UNL1       -0.0493
      7 C           3.1591    0.2112    2.1777 C.ar    1  UNL1       -0.0576
      8 C           2.2166   -0.4413    1.4330 C.ar    1  UNL1       -0.0440
      9 C           2.5301   -0.8058    0.1229 C.ar    1  UNL1       -0.0417
     10 C           3.7820   -0.5145   -0.4313 C.ar    1  UNL1       -0.0461
     11 C           1.5145   -1.5206   -0.6705 C.3     1  UNL1       -0.0089
     12 C           0.1511   -0.9543   -0.4738 C.3     1  UNL1        0.0276
     13 N          -0.0981   -0.0188   -1.5774 N.pl3   1  UNL1       -0.3103
     14 C          -1.4096    0.5721   -1.6675 C.ar    1  UNL1        0.2159
     15 N          -1.6521    1.4693   -2.6626 N.ar    1  UNL1       -0.2229
     16 C          -2.8541    2.0329   -2.7949 C.ar    1  UNL1        0.0332
     17 C          -3.8718    1.6899   -1.8933 C.ar    1  UNL1       -0.0174
     18 C          -3.6475    0.7875   -0.8839 C.ar    1  UNL1        0.0775
     19 C          -4.6532    0.3721    0.0765 C.ar    1  UNL1        0.0186
     20 C          -4.3730   -0.5591    1.0601 C.ar    1  UNL1       -0.0497
     21 C          -5.3447   -0.9485    1.9834 C.ar    1  UNL1       -0.0430
     22 C          -6.6079   -0.4010    1.9211 C.ar    1  UNL1        0.0276
     23 N          -6.8818    0.5008    0.9693 N.ar    1  UNL1       -0.2626
     24 C          -5.9292    0.8742    0.0744 C.ar    1  UNL1        0.0367
     25 N          -2.3981    0.2611   -0.8193 N.ar    1  UNL1       -0.2145
     26 C          -0.0877   -0.2623    0.8309 C.3     1  UNL1       -0.0302
     27 C           0.8529   -0.7942    1.9024 C.3     1  UNL1       -0.0257
     28 H           5.7652   -0.3833   -2.1682 H       1  UNL1        0.1825
     29 H           8.2185   -0.3175   -1.6442 H       1  UNL1        0.2414
     30 H           5.1469    1.0183    2.2235 H       1  UNL1        0.0625
     31 H           2.9094    0.4903    3.1918 H       1  UNL1        0.0621
     32 H           3.9873   -0.8175   -1.4628 H       1  UNL1        0.0628
     33 H           1.8170   -1.5510   -1.7514 H       1  UNL1        0.0331
     34 H           1.4821   -2.5892   -0.3038 H       1  UNL1        0.0331
     35 H          -0.6461   -1.7540   -0.5763 H       1  UNL1        0.0501
     36 H           0.6403    0.2138   -2.2728 H       1  UNL1        0.1492
     37 H          -3.0556    2.7564   -3.5944 H       1  UNL1        0.0831
     38 H          -4.8324    2.1416   -2.0006 H       1  UNL1        0.0654
     39 H          -3.4036   -0.9862    1.1091 H       1  UNL1        0.0625
     40 H          -5.1241   -1.6848    2.7616 H       1  UNL1        0.0633
     41 H          -7.3563   -0.7185    2.6531 H       1  UNL1        0.0829
     42 H          -6.1968    1.6168   -0.6889 H       1  UNL1        0.0836
     43 H          -1.1180   -0.4328    1.1635 H       1  UNL1        0.0286
     44 H           0.0866    0.8393    0.7694 H       1  UNL1        0.0286
     45 H           0.6056   -0.2869    2.8690 H       1  UNL1        0.0314
     46 H           0.7318   -1.8788    2.0358 H       1  UNL1        0.0314
@<TRIPOS>BOND
     1     1     2    2
     2     2     3   am
     3     3     4    1
     4     2     5    1
     5     5     6   ar
     6     6     7   ar
     7     7     8   ar
     8     8     9   ar
     9     9    10   ar
    10     9    11    1
    11    11    12    1
    12    12    13    1
    13    13    14    1
    14    14    15   ar
    15    15    16   ar
    16    16    17   ar
    17    17    18   ar
    18    18    19    1
    19    19    20   ar
    20    20    21   ar
    21    21    22   ar
    22    22    23   ar
    23    23    24   ar
    24    18    25   ar
    25    12    26    1
    26    26    27    1
    27    10     5   ar
    28    25    14   ar
    29    27     8    1
    30    24    19   ar
    31     3    28    1
    32     4    29    1
    33     6    30    1
    34     7    31    1
    35    10    32    1
    36    11    33    1
    37    11    34    1
    38    12    35    1
    39    13    36    1
    40    16    37    1
    41    17    38    1
    42    20    39    1
    43    21    40    1
    44    22    41    1
    45    24    42    1
    46    26    43    1
    47    26    44    1
    48    27    45    1
    49    27    46    1
