
     RDKit          3D

 43 45  0  0  0  0  0  0  0  0999 V2000
   -6.6454   -0.5349   -0.3361 C   0  0  0  0  0  0  0  0  0  0  0  0
   -5.6360    0.5892   -0.1832 C   0  0  0  0  0  0  0  0  0  0  0  0
   -5.8451    1.6359   -1.2587 C   0  0  0  0  0  0  0  0  0  0  0  0
   -4.2685    0.0154   -0.2362 C   0  0  0  0  0  0  0  0  0  0  0  0
   -3.2904    0.0567    0.7263 C   0  0  0  0  0  0  0  0  0  0  0  0
   -2.1892   -0.6025    0.2497 C   0  0  0  0  0  0  0  0  0  0  0  0
   -0.9523   -0.7554    1.0128 C   0  0  0  0  0  0  0  0  0  0  0  0
   -1.0504   -1.3510    2.1178 O   0  0  0  0  0  0  0  0  0  0  0  0
    0.2411   -0.2483    0.4936 N   0  0  0  0  0  0  0  0  0  0  0  0
    0.4188    0.4353   -0.7503 C   0  0  0  0  0  0  0  0  0  0  0  0
    1.6429   -0.3178   -1.2927 C   0  0  0  0  0  0  0  0  0  0  0  0
    2.3964   -0.7910   -0.0646 C   0  0  1  0  0  0  0  0  0  0  0  0
    3.7283   -0.2299   -0.0153 N   0  0  0  0  0  0  0  0  0  0  0  0
    4.8849   -1.0351    0.1471 C   0  0  0  0  0  0  0  0  0  0  0  0
    4.7559   -2.2839    0.2553 O   0  0  0  0  0  0  0  0  0  0  0  0
    6.2325   -0.4115    0.1887 C   0  0  0  0  0  0  0  0  0  0  0  0
    6.4243    1.0232    0.4712 C   0  0  0  0  0  0  0  0  0  0  0  0
    6.4426    0.6062   -0.9547 C   0  0  0  0  0  0  0  0  0  0  0  0
    1.5314   -0.3173    1.1133 C   0  0  0  0  0  0  0  0  0  0  0  0
   -2.4843   -1.0363   -0.9719 N   0  0  0  0  0  0  0  0  0  0  0  0
   -3.7241   -0.6718   -1.2705 N   0  0  0  0  0  0  0  0  0  0  0  0
   -6.1534   -1.4600    0.0347 H   0  0  0  0  0  0  0  0  0  0  0  0
   -6.8253   -0.6560   -1.4182 H   0  0  0  0  0  0  0  0  0  0  0  0
   -7.5691   -0.2804    0.2165 H   0  0  0  0  0  0  0  0  0  0  0  0
   -5.7448    1.0823    0.8247 H   0  0  0  0  0  0  0  0  0  0  0  0
   -6.9194    1.8300   -1.4043 H   0  0  0  0  0  0  0  0  0  0  0  0
   -5.3238    1.3832   -2.2069 H   0  0  0  0  0  0  0  0  0  0  0  0
   -5.4031    2.6031   -0.9217 H   0  0  0  0  0  0  0  0  0  0  0  0
   -3.3896    0.5325    1.6916 H   0  0  0  0  0  0  0  0  0  0  0  0
   -0.4364    0.3709   -1.4397 H   0  0  0  0  0  0  0  0  0  0  0  0
    0.7732    1.4878   -0.6181 H   0  0  0  0  0  0  0  0  0  0  0  0
    1.2372   -1.1556   -1.8926 H   0  0  0  0  0  0  0  0  0  0  0  0
    2.2832    0.3627   -1.8878 H   0  0  0  0  0  0  0  0  0  0  0  0
    2.4376   -1.9043    0.0163 H   0  0  0  0  0  0  0  0  0  0  0  0
    3.8341    0.8041   -0.1027 H   0  0  0  0  0  0  0  0  0  0  0  0
    7.0799   -1.1140    0.3312 H   0  0  0  0  0  0  0  0  0  0  0  0
    7.3509    1.3021    1.0096 H   0  0  0  0  0  0  0  0  0  0  0  0
    5.5074    1.5721    0.7879 H   0  0  0  0  0  0  0  0  0  0  0  0
    7.4120    0.5201   -1.4973 H   0  0  0  0  0  0  0  0  0  0  0  0
    5.5874    0.8506   -1.6020 H   0  0  0  0  0  0  0  0  0  0  0  0
    1.8764    0.7052    1.4142 H   0  0  0  0  0  0  0  0  0  0  0  0
    1.5851   -1.0279    1.9650 H   0  0  0  0  0  0  0  0  0  0  0  0
   -1.8132   -1.5839   -1.5828 H   0  0  0  0  0  0  0  0  0  0  0  0
  1  2  1  0
  2  3  1  0
  2  4  1  0
  4  5  1  0
  5  6  2  0
  6  7  1  0
  7  8  2  0
  7  9  1  0
  9 10  1  0
 10 11  1  0
 11 12  1  0
 12 13  1  0
 13 14  1  0
 14 15  2  0
 14 16  1  0
 16 17  1  0
 17 18  1  0
 12 19  1  0
  6 20  1  0
 20 21  1  0
 21  4  2  0
 19  9  1  0
 18 16  1  0
  1 22  1  0
  1 23  1  0
  1 24  1  0
  2 25  1  0
  3 26  1  0
  3 27  1  0
  3 28  1  0
  5 29  1  0
 10 30  1  0
 10 31  1  0
 11 32  1  0
 11 33  1  0
 12 34  1  6
 13 35  1  0
 16 36  1  0
 17 37  1  0
 17 38  1  0
 18 39  1  0
 18 40  1  0
 19 41  1  0
 19 42  1  0
 20 43  1  0
M  END
$$$$
