@<TRIPOS>MOLECULE
*****
 43 45 0 0 0
SMALL
GASTEIGER

@<TRIPOS>ATOM
      1 C          -6.6454   -0.5349   -0.3361 C.3     1  UNL1       -0.0572
      2 C          -5.6360    0.5892   -0.1832 C.3     1  UNL1       -0.0026
      3 C          -5.8451    1.6359   -1.2587 C.3     1  UNL1       -0.0572
      4 C          -4.2685    0.0154   -0.2362 C.ar    1  UNL1        0.0661
      5 C          -3.2904    0.0567    0.7263 C.ar    1  UNL1       -0.0086
      6 C          -2.1892   -0.6025    0.2497 C.ar    1  UNL1        0.1206
      7 C          -0.9523   -0.7554    1.0128 C.2     1  UNL1        0.2644
      8 O          -1.0504   -1.3510    2.1178 O.2     1  UNL1       -0.2683
      9 N           0.2411   -0.2483    0.4936 N.am    1  UNL1       -0.2945
     10 C           0.4188    0.4353   -0.7503 C.3     1  UNL1        0.0168
     11 C           1.6429   -0.3178   -1.2927 C.3     1  UNL1       -0.0172
     12 C           2.3964   -0.7910   -0.0646 C.3     1  UNL1        0.0403
     13 N           3.7283   -0.2299   -0.0153 N.am    1  UNL1       -0.3107
     14 C           4.8849   -1.0351    0.1471 C.2     1  UNL1        0.2164
     15 O           4.7559   -2.2839    0.2553 O.2     1  UNL1       -0.2755
     16 C           6.2325   -0.4115    0.1887 C.3     1  UNL1        0.0356
     17 C           6.4243    1.0232    0.4712 C.3     1  UNL1       -0.0412
     18 C           6.4426    0.6062   -0.9547 C.3     1  UNL1       -0.0412
     19 C           1.5314   -0.3173    1.1133 C.3     1  UNL1        0.0335
     20 N          -2.4843   -1.0363   -0.9719 N.ar    1  UNL1       -0.2722
     21 N          -3.7241   -0.6718   -1.2705 N.ar    1  UNL1       -0.1779
     22 H          -6.1534   -1.4600    0.0347 H       1  UNL1        0.0236
     23 H          -6.8253   -0.6560   -1.4182 H       1  UNL1        0.0236
     24 H          -7.5691   -0.2804    0.2165 H       1  UNL1        0.0236
     25 H          -5.7448    1.0823    0.8247 H       1  UNL1        0.0359
     26 H          -6.9194    1.8300   -1.4043 H       1  UNL1        0.0236
     27 H          -5.3238    1.3832   -2.2069 H       1  UNL1        0.0236
     28 H          -5.4031    2.6031   -0.9217 H       1  UNL1        0.0236
     29 H          -3.3896    0.5325    1.6916 H       1  UNL1        0.0659
     30 H          -0.4364    0.3709   -1.4397 H       1  UNL1        0.0465
     31 H           0.7732    1.4878   -0.6181 H       1  UNL1        0.0465
     32 H           1.2372   -1.1556   -1.8926 H       1  UNL1        0.0299
     33 H           2.2832    0.3627   -1.8878 H       1  UNL1        0.0299
     34 H           2.4376   -1.9043    0.0163 H       1  UNL1        0.0514
     35 H           3.8341    0.8041   -0.1027 H       1  UNL1        0.1490
     36 H           7.0799   -1.1140    0.3312 H       1  UNL1        0.0394
     37 H           7.3509    1.3021    1.0096 H       1  UNL1        0.0273
     38 H           5.5074    1.5721    0.7879 H       1  UNL1        0.0273
     39 H           7.4120    0.5201   -1.4973 H       1  UNL1        0.0273
     40 H           5.5874    0.8506   -1.6020 H       1  UNL1        0.0273
     41 H           1.8764    0.7052    1.4142 H       1  UNL1        0.0483
     42 H           1.5851   -1.0279    1.9650 H       1  UNL1        0.0483
     43 H          -1.8132   -1.5839   -1.5828 H       1  UNL1        0.1891
@<TRIPOS>BOND
     1     1     2    1
     2     2     3    1
     3     2     4    1
     4     4     5   ar
     5     5     6   ar
     6     6     7    1
     7     7     8    2
     8     7     9   am
     9     9    10    1
    10    10    11    1
    11    11    12    1
    12    12    13    1
    13    13    14   am
    14    14    15    2
    15    14    16    1
    16    16    17    1
    17    17    18    1
    18    12    19    1
    19     6    20   ar
    20    20    21   ar
    21    21     4   ar
    22    19     9    1
    23    18    16    1
    24     1    22    1
    25     1    23    1
    26     1    24    1
    27     2    25    1
    28     3    26    1
    29     3    27    1
    30     3    28    1
    31     5    29    1
    32    10    30    1
    33    10    31    1
    34    11    32    1
    35    11    33    1
    36    12    34    1
    37    13    35    1
    38    16    36    1
    39    17    37    1
    40    17    38    1
    41    18    39    1
    42    18    40    1
    43    19    41    1
    44    19    42    1
    45    20    43    1
