
     RDKit          3D

 48 51  0  0  0  0  0  0  0  0999 V2000
    8.4574    2.4850   -0.8276 C   0  0  0  0  0  0  0  0  0  0  0  0
    7.0368    2.1014   -0.7069 C   0  0  0  0  0  0  0  0  0  0  0  0
    5.9741    2.8782   -0.9843 N   0  0  0  0  0  0  0  0  0  0  0  0
    4.8893    2.1560   -0.7438 N   0  0  0  0  0  0  0  0  0  0  0  0
    5.2995    0.9471   -0.3225 C   0  0  0  0  0  0  0  0  0  0  0  0
    6.5920    0.9189   -0.3019 O   0  0  0  0  0  0  0  0  0  0  0  0
    4.4804   -0.1936    0.0649 C   0  0  0  0  0  0  0  0  0  0  0  0
    5.0544   -1.3570    0.4718 C   0  0  0  0  0  0  0  0  0  0  0  0
    4.2344   -2.4071    0.8278 C   0  0  0  0  0  0  0  0  0  0  0  0
    2.8623   -2.3105    0.7828 C   0  0  0  0  0  0  0  0  0  0  0  0
    1.9763   -3.4412    1.1630 C   0  0  0  0  0  0  0  0  0  0  0  0
    2.2320   -1.1554    0.3783 C   0  0  0  0  0  0  0  0  0  0  0  0
    3.1033   -0.1172    0.0269 C   0  0  0  0  0  0  0  0  0  0  0  0
    0.7981   -0.9122    0.2853 C   0  0  0  0  0  0  0  0  0  0  0  0
    0.4350   -0.2918   -0.9155 C   0  0  0  0  0  0  0  0  0  0  0  0
   -0.8831    0.0361   -1.2169 C   0  0  0  0  0  0  0  0  0  0  0  0
   -1.8776   -0.2560   -0.3065 C   0  0  0  0  0  0  0  0  0  0  0  0
   -1.5128   -0.8669    0.8739 C   0  0  0  0  0  0  0  0  0  0  0  0
   -0.2098   -1.1962    1.1826 C   0  0  0  0  0  0  0  0  0  0  0  0
   -3.2409    0.0842   -0.6207 C   0  0  0  0  0  0  0  0  0  0  0  0
   -3.5057    0.6386   -1.7117 O   0  0  0  0  0  0  0  0  0  0  0  0
   -4.3288   -0.1750    0.2481 N   0  0  0  0  0  0  0  0  0  0  0  0
   -5.6531    0.1918   -0.1337 C   0  0  0  0  0  0  0  0  0  0  0  0
   -6.0781    1.4715    0.2287 C   0  0  0  0  0  0  0  0  0  0  0  0
   -7.3509    1.9473   -0.0868 C   0  0  0  0  0  0  0  0  0  0  0  0
   -8.2309    1.1184   -0.7881 C   0  0  0  0  0  0  0  0  0  0  0  0
   -7.7980   -0.1502   -1.1427 C   0  0  0  0  0  0  0  0  0  0  0  0
   -6.5354   -0.6068   -0.8232 C   0  0  0  0  0  0  0  0  0  0  0  0
   -7.7505    3.2734    0.3051 C   0  0  0  0  0  0  0  0  0  0  0  0
   -8.0740    4.3422    0.6179 N   0  0  0  0  0  0  0  0  0  0  0  0
    9.1048    1.9510   -0.0832 H   0  0  0  0  0  0  0  0  0  0  0  0
    8.8044    2.3325   -1.8582 H   0  0  0  0  0  0  0  0  0  0  0  0
    8.5576    3.5729   -0.5967 H   0  0  0  0  0  0  0  0  0  0  0  0
    6.1235   -1.5076    0.5329 H   0  0  0  0  0  0  0  0  0  0  0  0
    4.6250   -3.3681    1.1632 H   0  0  0  0  0  0  0  0  0  0  0  0
    1.0029   -3.3755    0.6318 H   0  0  0  0  0  0  0  0  0  0  0  0
    2.4935   -4.4031    0.9665 H   0  0  0  0  0  0  0  0  0  0  0  0
    1.7542   -3.4353    2.2493 H   0  0  0  0  0  0  0  0  0  0  0  0
    2.6891    0.8280   -0.3033 H   0  0  0  0  0  0  0  0  0  0  0  0
    1.1383   -0.0189   -1.6993 H   0  0  0  0  0  0  0  0  0  0  0  0
   -1.1605    0.5135   -2.1417 H   0  0  0  0  0  0  0  0  0  0  0  0
   -2.2467   -1.1173    1.6191 H   0  0  0  0  0  0  0  0  0  0  0  0
    0.1473   -1.6685    2.0767 H   0  0  0  0  0  0  0  0  0  0  0  0
   -4.1762   -0.6329    1.1687 H   0  0  0  0  0  0  0  0  0  0  0  0
   -5.4187    2.1432    0.7753 H   0  0  0  0  0  0  0  0  0  0  0  0
   -9.2279    1.4563   -1.0498 H   0  0  0  0  0  0  0  0  0  0  0  0
   -8.4317   -0.8331   -1.6836 H   0  0  0  0  0  0  0  0  0  0  0  0
   -6.1742   -1.5901   -1.0877 H   0  0  0  0  0  0  0  0  0  0  0  0
  1  2  1  0
  2  3  2  0
  3  4  1  0
  4  5  2  0
  5  6  1  0
  5  7  1  0
  7  8  2  0
  8  9  1  0
  9 10  2  0
 10 11  1  0
 10 12  1  0
 12 13  2  0
 12 14  1  0
 14 15  2  0
 15 16  1  0
 16 17  2  0
 17 18  1  0
 18 19  2  0
 17 20  1  0
 20 21  2  0
 20 22  1  0
 22 23  1  0
 23 24  2  0
 24 25  1  0
 25 26  2  0
 26 27  1  0
 27 28  2  0
 25 29  1  0
 29 30  3  0
  6  2  1  0
 13  7  1  0
 19 14  1  0
 28 23  1  0
  1 31  1  0
  1 32  1  0
  1 33  1  0
  8 34  1  0
  9 35  1  0
 11 36  1  0
 11 37  1  0
 11 38  1  0
 13 39  1  0
 15 40  1  0
 16 41  1  0
 18 42  1  0
 19 43  1  0
 22 44  1  0
 24 45  1  0
 26 46  1  0
 27 47  1  0
 28 48  1  0
M  END
$$$$
