@<TRIPOS>MOLECULE
*****
 48 51 0 0 0
SMALL
GASTEIGER

@<TRIPOS>ATOM
      1 C           8.4574    2.4850   -0.8276 C.3     1  UNL1        0.0138
      2 C           7.0368    2.1014   -0.7069 C.ar    1  UNL1        0.2147
      3 N           5.9741    2.8782   -0.9843 N.ar    1  UNL1       -0.1124
      4 N           4.8893    2.1560   -0.7438 N.ar    1  UNL1       -0.1073
      5 C           5.2995    0.9471   -0.3225 C.ar    1  UNL1        0.2483
      6 O           6.5920    0.9189   -0.3019 O.2     1  UNL1       -0.4205
      7 C           4.4804   -0.1936    0.0649 C.ar    1  UNL1        0.0391
      8 C           5.0544   -1.3570    0.4718 C.ar    1  UNL1       -0.0492
      9 C           4.2344   -2.4071    0.8278 C.ar    1  UNL1       -0.0575
     10 C           2.8623   -2.3105    0.7828 C.ar    1  UNL1       -0.0427
     11 C           1.9763   -3.4412    1.1630 C.3     1  UNL1       -0.0391
     12 C           2.2320   -1.1554    0.3783 C.ar    1  UNL1       -0.0143
     13 C           3.1033   -0.1172    0.0269 C.ar    1  UNL1       -0.0415
     14 C           0.7981   -0.9122    0.2853 C.ar    1  UNL1       -0.0176
     15 C           0.4350   -0.2918   -0.9155 C.ar    1  UNL1       -0.0533
     16 C          -0.8831    0.0361   -1.2169 C.ar    1  UNL1       -0.0491
     17 C          -1.8776   -0.2560   -0.3065 C.ar    1  UNL1        0.0371
     18 C          -1.5128   -0.8669    0.8739 C.ar    1  UNL1       -0.0491
     19 C          -0.2098   -1.1962    1.1826 C.ar    1  UNL1       -0.0533
     20 C          -3.2409    0.0842   -0.6207 C.2     1  UNL1        0.2483
     21 O          -3.5057    0.6386   -1.7117 O.2     1  UNL1       -0.2699
     22 N          -4.3288   -0.1750    0.2481 N.am    1  UNL1       -0.2815
     23 C          -5.6531    0.1918   -0.1337 C.ar    1  UNL1        0.0349
     24 C          -6.0781    1.4715    0.2287 C.ar    1  UNL1       -0.0231
     25 C          -7.3509    1.9473   -0.0868 C.ar    1  UNL1        0.0535
     26 C          -8.2309    1.1184   -0.7881 C.ar    1  UNL1       -0.0442
     27 C          -7.7980   -0.1502   -1.1427 C.ar    1  UNL1       -0.0588
     28 C          -6.5354   -0.6068   -0.8232 C.ar    1  UNL1       -0.0404
     29 C          -7.7505    3.2734    0.3051 C.1     1  UNL1        0.0992
     30 N          -8.0740    4.3422    0.6179 N.1     1  UNL1       -0.1909
     31 H           9.1048    1.9510   -0.0832 H       1  UNL1        0.0324
     32 H           8.8044    2.3325   -1.8582 H       1  UNL1        0.0324
     33 H           8.5576    3.5729   -0.5967 H       1  UNL1        0.0324
     34 H           6.1235   -1.5076    0.5329 H       1  UNL1        0.0625
     35 H           4.6250   -3.3681    1.1632 H       1  UNL1        0.0621
     36 H           1.0029   -3.3755    0.6318 H       1  UNL1        0.0278
     37 H           2.4935   -4.4031    0.9665 H       1  UNL1        0.0278
     38 H           1.7542   -3.4353    2.2493 H       1  UNL1        0.0278
     39 H           2.6891    0.8280   -0.3033 H       1  UNL1        0.0631
     40 H           1.1383   -0.0189   -1.6993 H       1  UNL1        0.0624
     41 H          -1.1605    0.5135   -2.1417 H       1  UNL1        0.0625
     42 H          -2.2467   -1.1173    1.6191 H       1  UNL1        0.0625
     43 H           0.1473   -1.6685    2.0767 H       1  UNL1        0.0624
     44 H          -4.1762   -0.6329    1.1687 H       1  UNL1        0.1551
     45 H          -5.4187    2.1432    0.7753 H       1  UNL1        0.0649
     46 H          -9.2279    1.4563   -1.0498 H       1  UNL1        0.0630
     47 H          -8.4317   -0.8331   -1.6836 H       1  UNL1        0.0619
     48 H          -6.1742   -1.5901   -1.0877 H       1  UNL1        0.0636
@<TRIPOS>BOND
     1     1     2    1
     2     2     3   ar
     3     3     4   ar
     4     4     5   ar
     5     5     6   ar
     6     5     7    1
     7     7     8   ar
     8     8     9   ar
     9     9    10   ar
    10    10    11    1
    11    10    12   ar
    12    12    13   ar
    13    12    14    1
    14    14    15   ar
    15    15    16   ar
    16    16    17   ar
    17    17    18   ar
    18    18    19   ar
    19    17    20    1
    20    20    21    2
    21    20    22   am
    22    22    23    1
    23    23    24   ar
    24    24    25   ar
    25    25    26   ar
    26    26    27   ar
    27    27    28   ar
    28    25    29    1
    29    29    30    3
    30     6     2   ar
    31    13     7   ar
    32    19    14   ar
    33    28    23   ar
    34     1    31    1
    35     1    32    1
    36     1    33    1
    37     8    34    1
    38     9    35    1
    39    11    36    1
    40    11    37    1
    41    11    38    1
    42    13    39    1
    43    15    40    1
    44    16    41    1
    45    18    42    1
    46    19    43    1
    47    22    44    1
    48    24    45    1
    49    26    46    1
    50    27    47    1
    51    28    48    1
