@<TRIPOS>MOLECULE
*****
 58 60 0 0 0
SMALL
GASTEIGER

@<TRIPOS>ATOM
      1 C           6.3557   -0.9298    1.0571 C.3     1  UNL1       -0.0638
      2 C           5.4071   -2.0809    1.1190 C.3     1  UNL1       -0.0350
      3 C           3.9593   -1.6473    1.0546 C.3     1  UNL1        0.0817
      4 S           3.5970   -0.7761   -0.4442 S.O2    1  UNL1        0.0318
      5 O           3.9141   -1.6791   -1.5889 O.2     1  UNL1       -0.1580
      6 O           4.4863    0.4584   -0.4704 O.2     1  UNL1       -0.1580
      7 N           1.9980   -0.3084   -0.4935 N.3     1  UNL1       -0.1811
      8 C           1.5251    0.5721    0.4977 C.3     1  UNL1        0.0210
      9 C          -0.0173    0.5007    0.6182 C.3     1  UNL1       -0.0260
     10 C          -0.6325    0.7349   -0.7238 C.3     1  UNL1        0.0308
     11 C          -2.1058    0.7542   -0.7529 C.3     1  UNL1        0.0230
     12 N          -2.8951   -0.3286   -0.3586 N.am    1  UNL1       -0.3104
     13 C          -3.1101   -0.9293    0.9045 C.2     1  UNL1        0.2441
     14 O          -2.5020   -0.3917    1.8872 O.2     1  UNL1       -0.2702
     15 C          -3.9618   -2.0917    1.1339 C.ar    1  UNL1        0.0367
     16 C          -4.6544   -2.7490    0.1613 C.ar    1  UNL1       -0.0496
     17 C          -5.4429   -3.8569    0.5030 C.ar    1  UNL1       -0.0610
     18 C          -5.5327   -4.2957    1.8029 C.ar    1  UNL1       -0.0617
     19 C          -4.8321   -3.6304    2.7851 C.ar    1  UNL1       -0.0610
     20 C          -4.0697   -2.5527    2.4283 C.ar    1  UNL1       -0.0496
     21 C          -0.2124    2.1288   -1.1564 C.ar    1  UNL1        0.0493
     22 C           0.8773    2.3956   -1.9279 C.ar    1  UNL1       -0.0398
     23 C           1.2139    3.7069   -2.2898 C.ar    1  UNL1       -0.0584
     24 C           0.4341    4.7544   -1.8624 C.ar    1  UNL1       -0.0406
     25 C          -0.6592    4.4605   -1.0858 C.ar    1  UNL1        0.0385
     26 C          -1.5315    5.5880   -0.6034 C.3     1  UNL1       -0.0224
     27 N          -0.9557    3.1954   -0.7559 N.ar    1  UNL1       -0.2562
     28 C          -0.0923   -0.2571   -1.7458 C.3     1  UNL1       -0.0260
     29 C           1.0922   -1.0197   -1.2723 C.3     1  UNL1        0.0210
     30 H           6.5650   -0.5734    0.0270 H       1  UNL1        0.0230
     31 H           7.3273   -1.2484    1.4770 H       1  UNL1        0.0230
     32 H           5.9772   -0.1080    1.7015 H       1  UNL1        0.0230
     33 H           5.5819   -2.8099    0.2974 H       1  UNL1        0.0279
     34 H           5.5794   -2.6145    2.0725 H       1  UNL1        0.0279
     35 H           3.2732   -2.5160    1.1068 H       1  UNL1        0.0515
     36 H           3.7777   -1.0187    1.9587 H       1  UNL1        0.0515
     37 H           1.7550    1.6154    0.2224 H       1  UNL1        0.0444
     38 H           1.9166    0.3289    1.4942 H       1  UNL1        0.0444
     39 H          -0.3674    1.1504    1.4216 H       1  UNL1        0.0288
     40 H          -0.1570   -0.5680    0.9503 H       1  UNL1        0.0288
     41 H          -2.4522    1.0638   -1.8015 H       1  UNL1        0.0471
     42 H          -2.4038    1.7220   -0.1835 H       1  UNL1        0.0471
     43 H          -3.4602   -0.8267   -1.1404 H       1  UNL1        0.1490
     44 H          -4.5893   -2.4125   -0.8571 H       1  UNL1        0.0625
     45 H          -5.9889   -4.3711   -0.2793 H       1  UNL1        0.0618
     46 H          -6.1600   -5.1701    2.0464 H       1  UNL1        0.0618
     47 H          -4.9264   -4.0049    3.8016 H       1  UNL1        0.0618
     48 H          -3.5309   -2.0569    3.2476 H       1  UNL1        0.0625
     49 H           1.5404    1.6483   -2.3097 H       1  UNL1        0.0636
     50 H           2.0821    3.9038   -2.9027 H       1  UNL1        0.0619
     51 H           0.6526    5.7849   -2.1153 H       1  UNL1        0.0635
     52 H          -1.0703    6.5420   -0.8499 H       1  UNL1        0.0292
     53 H          -1.5083    5.4940    0.5192 H       1  UNL1        0.0292
     54 H          -2.5731    5.4612   -0.8996 H       1  UNL1        0.0292
     55 H          -0.8987   -1.0214   -1.9374 H       1  UNL1        0.0288
     56 H           0.1445    0.3043   -2.6630 H       1  UNL1        0.0288
     57 H           0.7133   -1.8937   -0.6586 H       1  UNL1        0.0444
     58 H           1.5475   -1.5305   -2.1671 H       1  UNL1        0.0444
@<TRIPOS>BOND
     1     1     2    1
     2     2     3    1
     3     3     4    1
     4     4     5    2
     5     4     6    2
     6     4     7    1
     7     7     8    1
     8     8     9    1
     9     9    10    1
    10    10    11    1
    11    11    12    1
    12    12    13   am
    13    13    14    2
    14    13    15    1
    15    15    16   ar
    16    16    17   ar
    17    17    18   ar
    18    18    19   ar
    19    19    20   ar
    20    10    21    1
    21    21    22   ar
    22    22    23   ar
    23    23    24   ar
    24    24    25   ar
    25    25    26    1
    26    25    27   ar
    27    10    28    1
    28    28    29    1
    29    29     7    1
    30    20    15   ar
    31    27    21   ar
    32     1    30    1
    33     1    31    1
    34     1    32    1
    35     2    33    1
    36     2    34    1
    37     3    35    1
    38     3    36    1
    39     8    37    1
    40     8    38    1
    41     9    39    1
    42     9    40    1
    43    11    41    1
    44    11    42    1
    45    12    43    1
    46    16    44    1
    47    17    45    1
    48    18    46    1
    49    19    47    1
    50    20    48    1
    51    22    49    1
    52    23    50    1
    53    24    51    1
    54    26    52    1
    55    26    53    1
    56    26    54    1
    57    28    55    1
    58    28    56    1
    59    29    57    1
    60    29    58    1
