
     RDKit          3D

 49 51  0  0  0  0  0  0  0  0999 V2000
   -5.2292   -0.0172    1.4697 C   0  0  0  0  0  0  0  0  0  0  0  0
   -4.7936    0.2814    0.0511 C   0  0  2  0  0  0  0  0  0  0  0  0
   -3.7347   -0.7224   -0.3167 C   0  0  0  0  0  0  0  0  0  0  0  0
   -2.3167   -0.6429    0.7517 S   0  0  0  0  0  6  0  0  0  0  0  0
   -2.6734   -0.8756    2.1753 O   0  0  0  0  0  0  0  0  0  0  0  0
   -1.7357    0.7557    0.5917 O   0  0  0  0  0  0  0  0  0  0  0  0
   -1.2012   -1.8348    0.2187 N   0  0  0  0  0  0  0  0  0  0  0  0
   -0.7316   -1.6373   -1.1123 C   0  0  0  0  0  0  0  0  0  0  0  0
    0.3550   -0.5913   -1.2094 C   0  0  0  0  0  0  0  0  0  0  0  0
    1.4129   -0.7753   -0.1479 C   0  0  0  0  0  0  0  0  0  0  0  0
    2.6896   -0.8537   -0.7180 O   0  0  0  0  0  0  0  0  0  0  0  0
    3.7857   -0.0794   -0.4597 C   0  0  0  0  0  0  0  0  0  0  0  0
    4.9497   -0.3653   -1.1702 C   0  0  0  0  0  0  0  0  0  0  0  0
    6.1073    0.3417   -0.9958 C   0  0  0  0  0  0  0  0  0  0  0  0
    6.1275    1.3814   -0.0800 C   0  0  0  0  0  0  0  0  0  0  0  0
    7.3569    2.1889    0.1556 C   0  0  0  0  0  0  0  0  0  0  0  0
    8.4492    1.3753   -0.0880 F   0  0  0  0  0  0  0  0  0  0  0  0
    7.3488    2.5984    1.4619 F   0  0  0  0  0  0  0  0  0  0  0  0
    7.3227    3.2802   -0.6926 F   0  0  0  0  0  0  0  0  0  0  0  0
    4.9987    1.6955    0.6417 C   0  0  0  0  0  0  0  0  0  0  0  0
    3.8327    0.9497    0.4363 C   0  0  0  0  0  0  0  0  0  0  0  0
    1.2019   -2.0470    0.6444 C   0  0  0  0  0  0  0  0  0  0  0  0
   -0.1995   -2.1618    1.1776 C   0  0  0  0  0  0  0  0  0  0  0  0
   -4.2973    1.6308   -0.0844 N   0  0  0  0  0  0  0  0  0  0  0  0
   -4.8818    2.2173   -1.2400 C   0  0  0  0  0  0  0  0  0  0  0  0
   -4.6341    3.3232   -1.7758 O   0  0  0  0  0  0  0  0  0  0  0  0
   -5.8701    1.2945   -1.7445 N   0  0  0  0  0  0  0  0  0  0  0  0
   -5.9007    0.1451   -0.9115 C   0  0  0  0  0  0  0  0  0  0  0  0
   -6.7364   -0.7820   -1.0195 O   0  0  0  0  0  0  0  0  0  0  0  0
   -6.3421    0.1047    1.4955 H   0  0  0  0  0  0  0  0  0  0  0  0
   -4.7290    0.6663    2.1665 H   0  0  0  0  0  0  0  0  0  0  0  0
   -4.9997   -1.0726    1.7204 H   0  0  0  0  0  0  0  0  0  0  0  0
   -4.1428   -1.7336   -0.3691 H   0  0  0  0  0  0  0  0  0  0  0  0
   -3.3667   -0.4594   -1.3480 H   0  0  0  0  0  0  0  0  0  0  0  0
   -1.5860   -1.3637   -1.7537 H   0  0  0  0  0  0  0  0  0  0  0  0
   -0.3781   -2.6367   -1.4983 H   0  0  0  0  0  0  0  0  0  0  0  0
   -0.1314    0.3978   -1.0705 H   0  0  0  0  0  0  0  0  0  0  0  0
    0.7725   -0.6117   -2.2269 H   0  0  0  0  0  0  0  0  0  0  0  0
    1.4026    0.0478    0.5863 H   0  0  0  0  0  0  0  0  0  0  0  0
    4.9661   -1.1732   -1.8946 H   0  0  0  0  0  0  0  0  0  0  0  0
    7.0226    0.1468   -1.5280 H   0  0  0  0  0  0  0  0  0  0  0  0
    5.0236    2.5131    1.3585 H   0  0  0  0  0  0  0  0  0  0  0  0
    2.9672    1.2073    1.0045 H   0  0  0  0  0  0  0  0  0  0  0  0
    1.4507   -2.9216    0.0375 H   0  0  0  0  0  0  0  0  0  0  0  0
    1.9030   -2.0135    1.5036 H   0  0  0  0  0  0  0  0  0  0  0  0
   -0.3607   -1.5115    2.0716 H   0  0  0  0  0  0  0  0  0  0  0  0
   -0.3612   -3.2074    1.5137 H   0  0  0  0  0  0  0  0  0  0  0  0
   -3.6279    2.1242    0.5355 H   0  0  0  0  0  0  0  0  0  0  0  0
   -6.4854    1.4240   -2.5917 H   0  0  0  0  0  0  0  0  0  0  0  0
  2  1  1  1
  2  3  1  0
  3  4  1  0
  4  5  2  0
  4  6  2  0
  4  7  1  0
  7  8  1  0
  8  9  1  0
  9 10  1  0
 10 11  1  0
 11 12  1  0
 12 13  2  0
 13 14  1  0
 14 15  2  0
 15 16  1  0
 16 17  1  0
 16 18  1  0
 16 19  1  0
 15 20  1  0
 20 21  2  0
 10 22  1  0
 22 23  1  0
  2 24  1  0
 24 25  1  0
 25 26  2  0
 25 27  1  0
 27 28  1  0
 28 29  2  0
 28  2  1  0
 23  7  1  0
 21 12  1  0
  1 30  1  0
  1 31  1  0
  1 32  1  0
  3 33  1  0
  3 34  1  0
  8 35  1  0
  8 36  1  0
  9 37  1  0
  9 38  1  0
 10 39  1  0
 13 40  1  0
 14 41  1  0
 20 42  1  0
 21 43  1  0
 22 44  1  0
 22 45  1  0
 23 46  1  0
 23 47  1  0
 24 48  1  0
 27 49  1  0
M  END
$$$$
