@<TRIPOS>MOLECULE
*****
 49 51 0 0 0
SMALL
GASTEIGER

@<TRIPOS>ATOM
      1 C          -5.2292   -0.0172    1.4697 C.3     1  UNL1       -0.0335
      2 C          -4.7936    0.2814    0.0511 C.3     1  UNL1        0.1302
      3 C          -3.7347   -0.7224   -0.3167 C.3     1  UNL1        0.1114
      4 S          -2.3167   -0.6429    0.7517 S.O2    1  UNL1        0.0343
      5 O          -2.6734   -0.8756    2.1753 O.2     1  UNL1       -0.1579
      6 O          -1.7357    0.7557    0.5917 O.2     1  UNL1       -0.1579
      7 N          -1.2012   -1.8348    0.2187 N.3     1  UNL1       -0.1808
      8 C          -0.7316   -1.6373   -1.1123 C.3     1  UNL1        0.0235
      9 C           0.3550   -0.5913   -1.2094 C.3     1  UNL1       -0.0013
     10 C           1.4129   -0.7753   -0.1479 C.3     1  UNL1        0.1026
     11 O           2.6896   -0.8537   -0.7180 O.3     1  UNL1       -0.4887
     12 C           3.7857   -0.0794   -0.4597 C.ar    1  UNL1        0.1209
     13 C           4.9497   -0.3653   -1.1702 C.ar    1  UNL1       -0.0194
     14 C           6.1073    0.3417   -0.9958 C.ar    1  UNL1       -0.0467
     15 C           6.1275    1.3814   -0.0800 C.ar    1  UNL1        0.0550
     16 C           7.3569    2.1889    0.1556 C.3     1  UNL1        0.4174
     17 F           8.4492    1.3753   -0.0880 F       1  UNL1       -0.1659
     18 F           7.3488    2.5984    1.4619 F       1  UNL1       -0.1659
     19 F           7.3227    3.2802   -0.6926 F       1  UNL1       -0.1659
     20 C           4.9987    1.6955    0.6417 C.ar    1  UNL1       -0.0467
     21 C           3.8327    0.9497    0.4363 C.ar    1  UNL1       -0.0194
     22 C           1.2019   -2.0470    0.6444 C.3     1  UNL1       -0.0013
     23 C          -0.1995   -2.1618    1.1776 C.3     1  UNL1        0.0235
     24 N          -4.2973    1.6308   -0.0844 N.am    1  UNL1       -0.2838
     25 C          -4.8818    2.2173   -1.2400 C.2     1  UNL1        0.3068
     26 O          -4.6341    3.3232   -1.7758 O.2     1  UNL1       -0.2524
     27 N          -5.8701    1.2945   -1.7445 N.am    1  UNL1       -0.2384
     28 C          -5.9007    0.1451   -0.9115 C.2     1  UNL1        0.2453
     29 O          -6.7364   -0.7820   -1.0195 O.2     1  UNL1       -0.2730
     30 H          -6.3421    0.1047    1.4955 H       1  UNL1        0.0255
     31 H          -4.7290    0.6663    2.1665 H       1  UNL1        0.0255
     32 H          -4.9997   -1.0726    1.7204 H       1  UNL1        0.0255
     33 H          -4.1428   -1.7336   -0.3691 H       1  UNL1        0.0542
     34 H          -3.3667   -0.4594   -1.3480 H       1  UNL1        0.0542
     35 H          -1.5860   -1.3637   -1.7537 H       1  UNL1        0.0445
     36 H          -0.3781   -2.6367   -1.4983 H       1  UNL1        0.0445
     37 H          -0.1314    0.3978   -1.0705 H       1  UNL1        0.0314
     38 H           0.7725   -0.6117   -2.2269 H       1  UNL1        0.0314
     39 H           1.4026    0.0478    0.5863 H       1  UNL1        0.0733
     40 H           4.9661   -1.1732   -1.8946 H       1  UNL1        0.0654
     41 H           7.0226    0.1468   -1.5280 H       1  UNL1        0.0624
     42 H           5.0236    2.5131    1.3585 H       1  UNL1        0.0624
     43 H           2.9672    1.2073    1.0045 H       1  UNL1        0.0654
     44 H           1.4507   -2.9216    0.0375 H       1  UNL1        0.0314
     45 H           1.9030   -2.0135    1.5036 H       1  UNL1        0.0314
     46 H          -0.3607   -1.5115    2.0716 H       1  UNL1        0.0445
     47 H          -0.3612   -3.2074    1.5137 H       1  UNL1        0.0445
     48 H          -3.6279    2.1242    0.5355 H       1  UNL1        0.1513
     49 H          -6.4854    1.4240   -2.5917 H       1  UNL1        0.1591
@<TRIPOS>BOND
     1     2     1    1
     2     2     3    1
     3     3     4    1
     4     4     5    2
     5     4     6    2
     6     4     7    1
     7     7     8    1
     8     8     9    1
     9     9    10    1
    10    10    11    1
    11    11    12    1
    12    12    13   ar
    13    13    14   ar
    14    14    15   ar
    15    15    16    1
    16    16    17    1
    17    16    18    1
    18    16    19    1
    19    15    20   ar
    20    20    21   ar
    21    10    22    1
    22    22    23    1
    23     2    24    1
    24    24    25   am
    25    25    26    2
    26    25    27   am
    27    27    28   am
    28    28    29    2
    29    28     2    1
    30    23     7    1
    31    21    12   ar
    32     1    30    1
    33     1    31    1
    34     1    32    1
    35     3    33    1
    36     3    34    1
    37     8    35    1
    38     8    36    1
    39     9    37    1
    40     9    38    1
    41    10    39    1
    42    13    40    1
    43    14    41    1
    44    20    42    1
    45    21    43    1
    46    22    44    1
    47    22    45    1
    48    23    46    1
    49    23    47    1
    50    24    48    1
    51    27    49    1
