@<TRIPOS>MOLECULE
*****
 81 87 0 0 0
SMALL
GASTEIGER

@<TRIPOS>ATOM
      1 C          -6.3553    4.6608    1.5078 C.3     1  UNL1       -0.0397
      2 C          -6.1283    3.2285    1.1456 C.ar    1  UNL1       -0.0503
      3 C          -6.3671    2.2214    2.0589 C.ar    1  UNL1       -0.0568
      4 C          -6.1553    0.8965    1.7209 C.ar    1  UNL1       -0.0359
      5 C          -5.7016    0.5227    0.4727 C.ar    1  UNL1        0.0674
      6 N          -5.4757   -0.8382    0.1070 N.ar    1  UNL1       -0.2181
      7 N          -6.3026   -1.6980   -0.4576 N.ar    1  UNL1       -0.1691
      8 C          -5.7572   -2.8861   -0.6560 C.ar    1  UNL1        0.0706
      9 C          -6.3643   -4.1203   -1.2675 C.3     1  UNL1        0.0063
     10 C          -7.7996   -3.7528   -1.6438 C.3     1  UNL1       -0.0546
     11 C          -6.4497   -5.2321   -0.2674 C.3     1  UNL1       -0.0546
     12 C          -5.6423   -4.4763   -2.5275 C.3     1  UNL1       -0.0546
     13 C          -4.4595   -2.8178   -0.1865 C.ar    1  UNL1        0.0021
     14 C          -4.3111   -1.5286    0.2840 C.ar    1  UNL1        0.1299
     15 N          -3.1635   -0.9378    0.8721 N.am    1  UNL1       -0.2538
     16 C          -2.1603   -0.2660    0.0652 C.2     1  UNL1        0.3092
     17 O          -2.3890   -0.2612   -1.1413 O.2     1  UNL1       -0.2521
     18 N          -1.0323    0.3205    0.6495 N.am    1  UNL1       -0.2686
     19 C          -0.0116    0.9775   -0.0792 C.ar    1  UNL1        0.0427
     20 C           0.0717    0.9270   -1.4555 C.ar    1  UNL1       -0.0363
     21 C           1.0734    1.6013   -2.1596 C.ar    1  UNL1       -0.0169
     22 C           2.0215    2.3482   -1.4722 C.ar    1  UNL1        0.1381
     23 O           3.0156    3.0152   -2.1738 O.3     1  UNL1       -0.4373
     24 C           4.3621    2.6525   -2.0171 C.ar    1  UNL1        0.2249
     25 C           5.3240    3.3781   -2.7142 C.ar    1  UNL1        0.0186
     26 C           6.6341    3.0226   -2.5595 C.ar    1  UNL1        0.0362
     27 N           6.9327    2.0000   -1.7504 N.ar    1  UNL1       -0.2225
     28 C           6.0435    1.2753   -1.0615 C.ar    1  UNL1        0.2226
     29 N           6.3339    0.1961   -0.2017 N.pl3   1  UNL1       -0.2830
     30 C           7.6080   -0.3246    0.0714 C.ar    1  UNL1        0.0428
     31 C           8.7771    0.1188   -0.4787 C.ar    1  UNL1       -0.0398
     32 C          10.0142   -0.4710   -0.1455 C.ar    1  UNL1       -0.0580
     33 C          10.0863   -1.5164    0.7480 C.ar    1  UNL1       -0.0377
     34 C           8.9158   -1.9712    1.3084 C.ar    1  UNL1        0.0482
     35 N           8.7261   -2.9642    2.1939 N.ar    1  UNL1       -0.3606
     36 C           7.4044   -3.0238    2.4338 C.ar    1  UNL1        0.0028
     37 C           6.7458   -2.0602    1.6947 C.ar    1  UNL1       -0.0349
     38 C           7.7108   -1.3859    0.9743 C.ar    1  UNL1        0.0208
     39 N           4.7272    1.6384   -1.2221 N.ar    1  UNL1       -0.1789
     40 C           1.9673    2.4219   -0.0985 C.ar    1  UNL1        0.0262
     41 C           2.8960    3.1825    0.5984 C.ar    1  UNL1       -0.0505
     42 C           2.8367    3.2728    1.9692 C.ar    1  UNL1       -0.0611
     43 C           1.8519    2.6054    2.6384 C.ar    1  UNL1       -0.0611
     44 C           0.9030    1.8325    1.9464 C.ar    1  UNL1       -0.0521
     45 C           0.9620    1.7426    0.5808 C.ar    1  UNL1        0.0069
     46 C          -5.4626    1.5276   -0.4409 C.ar    1  UNL1       -0.0359
     47 C          -5.6748    2.8561   -0.1029 C.ar    1  UNL1       -0.0568
     48 H          -6.6979    5.2700    0.6713 H       1  UNL1        0.0278
     49 H          -7.1091    4.7322    2.3169 H       1  UNL1        0.0278
     50 H          -5.4239    5.1244    1.9140 H       1  UNL1        0.0278
     51 H          -6.7268    2.5119    3.0512 H       1  UNL1        0.0621
     52 H          -6.3447    0.1143    2.4423 H       1  UNL1        0.0639
     53 H          -8.4080   -4.6732   -1.5747 H       1  UNL1        0.0239
     54 H          -7.8498   -3.3700   -2.6866 H       1  UNL1        0.0239
     55 H          -8.2224   -2.9967   -0.9775 H       1  UNL1        0.0239
     56 H          -6.7656   -4.7593    0.7062 H       1  UNL1        0.0239
     57 H          -5.5025   -5.7675   -0.1871 H       1  UNL1        0.0239
     58 H          -7.3062   -5.8739   -0.5586 H       1  UNL1        0.0239
     59 H          -5.8086   -3.6487   -3.2503 H       1  UNL1        0.0239
     60 H          -6.1027   -5.3905   -2.9536 H       1  UNL1        0.0239
     61 H          -4.5715   -4.5832   -2.3195 H       1  UNL1        0.0239
     62 H          -3.7027   -3.6078   -0.1825 H       1  UNL1        0.0671
     63 H          -2.9899   -0.9542    1.8921 H       1  UNL1        0.1578
     64 H          -0.9585    0.2406    1.7083 H       1  UNL1        0.1564
     65 H          -0.6156    0.3623   -2.0480 H       1  UNL1        0.0637
     66 H           1.1521    1.5714   -3.2341 H       1  UNL1        0.0655
     67 H           4.9800    4.1831   -3.3401 H       1  UNL1        0.0686
     68 H           7.3858    3.5858   -3.1002 H       1  UNL1        0.0832
     69 H           5.4881   -0.2570    0.2804 H       1  UNL1        0.1550
     70 H           8.7809    0.9291   -1.1811 H       1  UNL1        0.0636
     71 H          10.9049   -0.0991   -0.5936 H       1  UNL1        0.0619
     72 H          11.0637   -1.9264    0.9625 H       1  UNL1        0.0638
     73 H           9.4140   -3.6029    2.6480 H       1  UNL1        0.1653
     74 H           6.8710   -3.6978    3.0924 H       1  UNL1        0.0807
     75 H           5.6958   -1.8330    1.6477 H       1  UNL1        0.0639
     76 H           3.6764    3.7393    0.0763 H       1  UNL1        0.0625
     77 H           3.5601    3.8621    2.4824 H       1  UNL1        0.0618
     78 H           1.7729    2.6515    3.7135 H       1  UNL1        0.0618
     79 H           0.1718    1.3559    2.5759 H       1  UNL1        0.0624
     80 H          -5.1031    1.2580   -1.4348 H       1  UNL1        0.0639
     81 H          -5.4894    3.6386   -0.8112 H       1  UNL1        0.0621
@<TRIPOS>BOND
     1     1     2    1
     2     2     3   ar
     3     3     4   ar
     4     4     5   ar
     5     5     6    1
     6     6     7   ar
     7     7     8   ar
     8     8     9    1
     9     9    10    1
    10     9    11    1
    11     9    12    1
    12     8    13   ar
    13    13    14   ar
    14    14    15    1
    15    15    16   am
    16    16    17    2
    17    16    18   am
    18    18    19    1
    19    19    20   ar
    20    20    21   ar
    21    21    22   ar
    22    22    23    1
    23    23    24    1
    24    24    25   ar
    25    25    26   ar
    26    26    27   ar
    27    27    28   ar
    28    28    29    1
    29    29    30    1
    30    30    31   ar
    31    31    32   ar
    32    32    33   ar
    33    33    34   ar
    34    34    35   ar
    35    35    36   ar
    36    36    37   ar
    37    37    38   ar
    38    28    39   ar
    39    22    40   ar
    40    40    41   ar
    41    41    42   ar
    42    42    43   ar
    43    43    44   ar
    44    44    45   ar
    45     5    46   ar
    46    46    47   ar
    47    47     2   ar
    48    14     6   ar
    49    45    19   ar
    50    39    24   ar
    51    45    40   ar
    52    38    30   ar
    53    38    34   ar
    54     1    48    1
    55     1    49    1
    56     1    50    1
    57     3    51    1
    58     4    52    1
    59    10    53    1
    60    10    54    1
    61    10    55    1
    62    11    56    1
    63    11    57    1
    64    11    58    1
    65    12    59    1
    66    12    60    1
    67    12    61    1
    68    13    62    1
    69    15    63    1
    70    18    64    1
    71    20    65    1
    72    21    66    1
    73    25    67    1
    74    26    68    1
    75    29    69    1
    76    31    70    1
    77    32    71    1
    78    33    72    1
    79    35    73    1
    80    36    74    1
    81    37    75    1
    82    41    76    1
    83    42    77    1
    84    43    78    1
    85    44    79    1
    86    46    80    1
    87    47    81    1
