
     RDKit          3D

 64 65  0  0  0  0  0  0  0  0999 V2000
   -2.2929   -1.9487   -1.5497 C   0  0  0  0  0  0  0  0  0  0  0  0
   -2.5517   -0.4964   -1.7996 C   0  0  0  0  0  0  0  0  0  0  0  0
   -2.8849    0.3137   -0.6007 C   0  0  2  0  0  0  0  0  0  0  0  0
   -3.1351    1.7300   -1.0751 N   0  0  0  0  0  0  0  0  0  0  0  0
   -3.6290    2.7133   -0.1899 C   0  0  0  0  0  0  0  0  0  0  0  0
   -3.8979    2.4742    1.0151 O   0  0  0  0  0  0  0  0  0  0  0  0
   -3.8527    4.1081   -0.6757 C   0  0  0  0  0  0  0  0  0  0  0  0
   -4.3283    4.8556    0.3628 F   0  0  0  0  0  0  0  0  0  0  0  0
   -4.7859    4.0484   -1.7156 F   0  0  0  0  0  0  0  0  0  0  0  0
   -2.6486    4.6183   -1.1634 F   0  0  0  0  0  0  0  0  0  0  0  0
   -1.8564    0.4368    0.4180 C   0  0  0  0  0  0  0  0  0  0  0  0
   -1.5698    1.6747    0.7394 O   0  0  0  0  0  0  0  0  0  0  0  0
   -1.1252   -0.5747    1.1003 N   0  0  0  0  0  0  0  0  0  0  0  0
   -0.8411   -1.9465    1.2996 C   0  0  0  0  0  0  0  0  0  0  0  0
   -0.3768   -1.6836    2.7413 C   0  0  0  0  0  0  0  0  0  0  0  0
   -0.1023   -0.3350    2.1706 C   0  0  1  0  0  0  0  0  0  0  0  0
    1.2534   -0.2048    1.6311 C   0  0  0  0  0  0  0  0  0  0  0  0
    2.1836   -0.0217    2.4581 O   0  0  0  0  0  0  0  0  0  0  0  0
    1.6030   -0.2676    0.2583 N   0  0  0  0  0  0  0  0  0  0  0  0
    2.9815   -0.1272   -0.1834 C   0  0  2  0  0  0  0  0  0  0  0  0
    3.1455    1.0744   -1.0479 C   0  0  0  0  0  0  0  0  0  0  0  0
    2.1716    1.7758   -1.2844 O   0  0  0  0  0  0  0  0  0  0  0  0
    3.3777   -1.3848   -0.8762 C   0  0  0  0  0  0  0  0  0  0  0  0
    4.7600   -1.4342   -1.4170 C   0  0  0  0  0  0  0  0  0  0  0  0
    5.8633   -1.2758   -0.4081 C   0  0  0  0  0  0  0  0  0  0  0  0
    5.8248   -0.0105    0.2790 N   0  0  0  0  0  0  0  0  0  0  0  0
    6.6637    0.9076   -0.0522 C   0  0  0  0  0  0  0  0  0  0  0  0
    6.6842    2.1725    0.5783 N   0  0  0  0  0  0  0  0  0  0  0  0
    7.6183    0.6646   -1.0908 N   0  0  0  0  0  0  0  0  0  0  0  0
   -4.1983   -0.0622   -0.0435 C   0  0  0  0  0  0  0  0  0  0  0  0
   -5.3732    0.5084   -0.5479 C   0  0  0  0  0  0  0  0  0  0  0  0
   -6.6097    0.2006   -0.0492 C   0  0  0  0  0  0  0  0  0  0  0  0
   -6.7676   -0.6978    0.9881 C   0  0  0  0  0  0  0  0  0  0  0  0
   -5.6469   -1.2735    1.5053 C   0  0  0  0  0  0  0  0  0  0  0  0
   -4.3936   -0.9458    0.9825 C   0  0  0  0  0  0  0  0  0  0  0  0
   -2.5905   -2.5535   -2.4526 H   0  0  0  0  0  0  0  0  0  0  0  0
   -1.2017   -2.0789   -1.4901 H   0  0  0  0  0  0  0  0  0  0  0  0
   -2.8579   -2.2716   -0.6614 H   0  0  0  0  0  0  0  0  0  0  0  0
   -3.4742   -0.4674   -2.4598 H   0  0  0  0  0  0  0  0  0  0  0  0
   -1.7696   -0.0324   -2.4439 H   0  0  0  0  0  0  0  0  0  0  0  0
   -2.9416    1.9759   -2.0553 H   0  0  0  0  0  0  0  0  0  0  0  0
    0.0504   -2.3517    0.7586 H   0  0  0  0  0  0  0  0  0  0  0  0
   -1.6180   -2.6979    1.3377 H   0  0  0  0  0  0  0  0  0  0  0  0
    0.4735   -2.2907    3.0641 H   0  0  0  0  0  0  0  0  0  0  0  0
   -1.2544   -1.7368    3.4462 H   0  0  0  0  0  0  0  0  0  0  0  0
   -0.3945    0.4515    2.8677 H   0  0  0  0  0  0  0  0  0  0  0  0
    0.8174   -0.4199   -0.4287 H   0  0  0  0  0  0  0  0  0  0  0  0
    3.5693    0.0196    0.7392 H   0  0  0  0  0  0  0  0  0  0  0  0
    4.0933    1.3574   -1.4794 H   0  0  0  0  0  0  0  0  0  0  0  0
    2.6215   -1.5963   -1.6733 H   0  0  0  0  0  0  0  0  0  0  0  0
    3.2617   -2.2264   -0.1532 H   0  0  0  0  0  0  0  0  0  0  0  0
    4.8818   -0.6617   -2.2352 H   0  0  0  0  0  0  0  0  0  0  0  0
    4.8993   -2.4285   -1.9368 H   0  0  0  0  0  0  0  0  0  0  0  0
    5.8025   -2.1353    0.3004 H   0  0  0  0  0  0  0  0  0  0  0  0
    6.8587   -1.4196   -0.9158 H   0  0  0  0  0  0  0  0  0  0  0  0
    5.8150    2.7309    0.6369 H   0  0  0  0  0  0  0  0  0  0  0  0
    7.5732    2.5201    0.9725 H   0  0  0  0  0  0  0  0  0  0  0  0
    7.3215    0.3349   -2.0202 H   0  0  0  0  0  0  0  0  0  0  0  0
    8.6337    0.8364   -0.8660 H   0  0  0  0  0  0  0  0  0  0  0  0
   -5.2680    1.2221   -1.3693 H   0  0  0  0  0  0  0  0  0  0  0  0
   -7.5217    0.6557   -0.4546 H   0  0  0  0  0  0  0  0  0  0  0  0
   -7.7631   -0.9109    1.3499 H   0  0  0  0  0  0  0  0  0  0  0  0
   -5.7206   -1.9826    2.3180 H   0  0  0  0  0  0  0  0  0  0  0  0
   -3.5598   -1.4286    1.4490 H   0  0  0  0  0  0  0  0  0  0  0  0
  1  2  1  0
  2  3  1  0
  3  4  1  6
  4  5  1  0
  5  6  2  0
  5  7  1  0
  7  8  1  0
  7  9  1  0
  7 10  1  0
  3 11  1  0
 11 12  2  0
 11 13  1  0
 13 14  1  0
 14 15  1  0
 15 16  1  0
 16 17  1  0
 17 18  2  0
 17 19  1  0
 19 20  1  0
 20 21  1  0
 21 22  2  0
 20 23  1  0
 23 24  1  0
 24 25  1  0
 25 26  1  0
 26 27  2  3
 27 28  1  0
 27 29  1  0
  3 30  1  0
 30 31  2  0
 31 32  1  0
 32 33  2  0
 33 34  1  0
 34 35  2  0
 16 13  1  0
 35 30  1  0
  1 36  1  0
  1 37  1  0
  1 38  1  0
  2 39  1  0
  2 40  1  0
  4 41  1  0
 14 42  1  0
 14 43  1  0
 15 44  1  0
 15 45  1  0
 16 46  1  1
 19 47  1  0
 20 48  1  1
 21 49  1  0
 23 50  1  0
 23 51  1  0
 24 52  1  0
 24 53  1  0
 25 54  1  0
 25 55  1  0
 28 56  1  0
 28 57  1  0
 29 58  1  0
 29 59  1  0
 31 60  1  0
 32 61  1  0
 33 62  1  0
 34 63  1  0
 35 64  1  0
M  END
$$$$
