@<TRIPOS>MOLECULE
*****
 64 65 0 0 0
SMALL
GASTEIGER

@<TRIPOS>ATOM
      1 C          -2.2929   -1.9487   -1.5497 C.3     0  UNK0       -0.0626
      2 C          -2.5517   -0.4964   -1.7996 C.3     0  UNK0       -0.0216
      3 C          -2.8849    0.3137   -0.6007 C.3     0  UNK0        0.1363
      4 N          -3.1351    1.7300   -1.0751 N.am    0  UNK0       -0.2905
      5 C          -3.6290    2.7133   -0.1899 C.2     0  UNK0        0.3183
      6 O          -3.8979    2.4742    1.0151 O.2     0  UNK0       -0.2660
      7 C          -3.8527    4.1081   -0.6757 C.3     0  UNK0        0.4694
      8 F          -4.3283    4.8556    0.3628 F       0  UNK0       -0.1620
      9 F          -4.7859    4.0484   -1.7156 F       0  UNK0       -0.1620
     10 F          -2.6486    4.6183   -1.1634 F       0  UNK0       -0.1620
     11 C          -1.8564    0.4368    0.4180 C.2     0  UNK0        0.2442
     12 O          -1.5698    1.6747    0.7394 O.2     0  UNK0       -0.2728
     13 N          -1.1252   -0.5747    1.1003 N.am    0  UNK0       -0.2878
     14 C          -0.8411   -1.9465    1.2996 C.3     0  UNK0        0.0177
     15 C          -0.3768   -1.6836    2.7413 C.3     0  UNK0       -0.0099
     16 C          -0.1023   -0.3350    2.1706 C.3     0  UNK0        0.1037
     17 C           1.2534   -0.2048    1.6311 C.2     0  UNK0        0.2342
     18 O           2.1836   -0.0217    2.4581 O.2     0  UNK0       -0.2738
     19 N           1.6030   -0.2676    0.2583 N.am    1  ARG1       -0.3044
     20 CA          2.9815   -0.1272   -0.1834 C.3     1  ARG1        0.0786
     21 C           3.1455    1.0744   -1.0479 C.2     1  ARG1        0.1404
     22 O           2.1716    1.7758   -1.2844 O.2     1  ARG1       -0.2991
     23 CB          3.3777   -1.3848   -0.8762 C.3     1  ARG1       -0.0249
     24 CG          4.7600   -1.4342   -1.4170 C.3     1  ARG1       -0.0166
     25 CD          5.8633   -1.2758   -0.4081 C.3     1  ARG1        0.1048
     26 NE          5.8248   -0.0105    0.2790 N.pl3   1  ARG1       -0.1138
     27 CZ          6.6637    0.9076   -0.0522 C.cat   1  ARG1        0.3765
     28 NH1         6.6842    2.1725    0.5783 N.pl3   1  ARG1       -0.2893
     29 NH2         7.6183    0.6646   -1.0908 N.pl3   1  ARG1       -0.2893
     30 C          -4.1983   -0.0622   -0.0435 C.ar    0  UNK0       -0.0153
     31 C          -5.3732    0.5084   -0.5479 C.ar    0  UNK0       -0.0561
     32 C          -6.6097    0.2006   -0.0492 C.ar    0  UNK0       -0.0614
     33 C          -6.7676   -0.6978    0.9881 C.ar    0  UNK0       -0.0617
     34 C          -5.6469   -1.2735    1.5053 C.ar    0  UNK0       -0.0614
     35 C          -4.3936   -0.9458    0.9825 C.ar    0  UNK0       -0.0561
     36 H          -2.5905   -2.5535   -2.4526 H       0  UNK0        0.0231
     37 H          -1.2017   -2.0789   -1.4901 H       0  UNK0        0.0231
     38 H          -2.8579   -2.2716   -0.6614 H       0  UNK0        0.0231
     39 H          -3.4742   -0.4674   -2.4598 H       0  UNK0        0.0291
     40 H          -1.7696   -0.0324   -2.4439 H       0  UNK0        0.0291
     41 H          -2.9416    1.9759   -2.0553 H       0  UNK0        0.1503
     42 H           0.0504   -2.3517    0.7586 H       0  UNK0        0.0465
     43 H          -1.6180   -2.6979    1.3377 H       0  UNK0        0.0465
     44 H           0.4735   -2.2907    3.0641 H       0  UNK0        0.0303
     45 H          -1.2544   -1.7368    3.4462 H       0  UNK0        0.0303
     46 H          -0.3945    0.4515    2.8677 H       0  UNK0        0.0597
     47 H           0.8174   -0.4199   -0.4287 H       1  ARG1        0.1494
     48 HA          3.5693    0.0196    0.7392 H       1  ARG1        0.0574
     49 H           4.0933    1.3574   -1.4794 H       1  ARG1        0.1046
     50 HB1         2.6215   -1.5963   -1.6733 H       1  ARG1        0.0288
     51 HB2         3.2617   -2.2264   -0.1532 H       1  ARG1        0.0288
     52 HG1         4.8818   -0.6617   -2.2352 H       1  ARG1        0.0298
     53 HG2         4.8993   -2.4285   -1.9368 H       1  ARG1        0.0298
     54 HD1         5.8025   -2.1353    0.3004 H       1  ARG1        0.0693
     55 HD2         6.8587   -1.4196   -0.9158 H       1  ARG1        0.0693
     56 HH11        5.8150    2.7309    0.6369 H       1  ARG1        0.2546
     57 HH12        7.5732    2.5201    0.9725 H       1  ARG1        0.2546
     58 HH21        7.3215    0.3349   -2.0202 H       1  ARG1        0.2546
     59 HH22        8.6337    0.8364   -0.8660 H       1  ARG1        0.2546
     60 H          -5.2680    1.2221   -1.3693 H       0  UNK0        0.0621
     61 H          -7.5217    0.6557   -0.4546 H       0  UNK0        0.0618
     62 H          -7.7631   -0.9109    1.3499 H       0  UNK0        0.0618
     63 H          -5.7206   -1.9826    2.3180 H       0  UNK0        0.0618
     64 H          -3.5598   -1.4286    1.4490 H       0  UNK0        0.0621
@<TRIPOS>BOND
     1     1     2    1
     2     2     3    1
     3     3     4    1
     4     4     5   am
     5     5     6    2
     6     5     7    1
     7     7     8    1
     8     7     9    1
     9     7    10    1
    10     3    11    1
    11    11    12    2
    12    11    13   am
    13    13    14    1
    14    14    15    1
    15    15    16    1
    16    16    17    1
    17    17    18    2
    18    17    19   am
    19    19    20    1
    20    20    21    1
    21    21    22    2
    22    20    23    1
    23    23    24    1
    24    24    25    1
    25    25    26    1
    26    26    27    2
    27    27    28    1
    28    27    29    1
    29     3    30    1
    30    30    31   ar
    31    31    32   ar
    32    32    33   ar
    33    33    34   ar
    34    34    35   ar
    35    16    13    1
    36    35    30   ar
    37     1    36    1
    38     1    37    1
    39     1    38    1
    40     2    39    1
    41     2    40    1
    42     4    41    1
    43    14    42    1
    44    14    43    1
    45    15    44    1
    46    15    45    1
    47    16    46    1
    48    19    47    1
    49    20    48    1
    50    21    49    1
    51    23    50    1
    52    23    51    1
    53    24    52    1
    54    24    53    1
    55    25    54    1
    56    25    55    1
    57    28    56    1
    58    28    57    1
    59    29    58    1
    60    29    59    1
    61    31    60    1
    62    32    61    1
    63    33    62    1
    64    34    63    1
    65    35    64    1
