
     RDKit          3D

 73 75  0  0  0  0  0  0  0  0999 V2000
   -6.5241    1.8787    0.5462 C   0  0  0  0  0  0  0  0  0  0  0  0
   -5.9720    0.5993   -0.1060 C   0  0  1  0  0  0  0  0  0  0  0  0
   -4.5312    0.7914   -0.3754 C   0  0  0  0  0  0  0  0  0  0  0  0
   -3.7675   -0.2821   -1.0150 C   0  0  1  0  0  0  0  0  0  0  0  0
   -4.2738   -0.6917   -2.3826 C   0  0  0  0  0  0  0  0  0  0  0  0
   -2.3037    0.0972   -1.1640 C   0  0  0  0  0  0  0  0  0  0  0  0
   -1.9656    1.5013   -2.1239 S   0  0  0  0  0  6  0  0  0  0  0  0
   -2.3591    1.3316   -3.5817 O   0  0  0  0  0  0  0  0  0  0  0  0
   -2.5767    2.7747   -1.6645 O   0  0  0  0  0  0  0  0  0  0  0  0
   -0.2243    1.7159   -2.1548 N   0  0  0  0  0  0  0  0  0  0  0  0
    0.4748    0.6501   -2.7393 C   0  0  0  0  0  0  0  0  0  0  0  0
    1.8554    0.3477   -2.3279 C   0  0  0  0  0  0  0  0  0  0  0  0
    2.3885    1.2213   -1.2185 C   0  0  0  0  0  0  0  0  0  0  0  0
    3.6191    0.6051   -0.6136 C   0  0  0  0  0  0  0  0  0  0  0  0
    4.1289    1.5076    0.4833 C   0  0  0  0  0  0  0  0  0  0  0  0
    5.3583    0.8664    1.0586 C   0  0  0  0  0  0  0  0  0  0  0  0
    6.5931    1.3644    0.7129 C   0  0  0  0  0  0  0  0  0  0  0  0
    7.7293    0.7862    1.2281 C   0  0  0  0  0  0  0  0  0  0  0  0
    7.6568   -0.2757    2.0787 C   0  0  0  0  0  0  0  0  0  0  0  0
    9.0800   -1.0572    2.7698 S   0  0  0  0  0  6  0  0  0  0  0  0
    9.5445   -2.3588    1.6334 C   0  0  0  0  0  0  0  0  0  0  0  0
   10.2015   -0.0684    2.9123 O   0  0  0  0  0  0  0  0  0  0  0  0
    8.6894   -1.6572    4.0749 O   0  0  0  0  0  0  0  0  0  0  0  0
    6.4160   -0.7604    2.4134 C   0  0  0  0  0  0  0  0  0  0  0  0
    5.2646   -0.1988    1.9109 C   0  0  0  0  0  0  0  0  0  0  0  0
    3.6897   -0.8231    2.3454 Cl  0  0  0  0  0  0  0  0  0  0  0  0
    1.2539    1.3667   -0.2296 C   0  0  0  0  0  0  0  0  0  0  0  0
    0.2440    2.2780   -0.9428 C   0  0  0  0  0  0  0  0  0  0  0  0
   -3.7542   -1.4719   -0.1899 N   0  0  0  0  0  0  0  0  0  0  0  0
   -4.2733   -2.6484   -0.6074 O   0  0  0  0  0  0  0  0  0  0  0  0
   -3.1735   -1.4109    1.0946 C   0  0  0  0  0  0  0  0  0  0  0  0
   -3.1388   -2.4384    1.8525 O   0  0  0  0  0  0  0  0  0  0  0  0
   -6.3758   -0.4912    0.7712 C   0  0  0  0  0  0  0  0  0  0  0  0
   -7.0497   -1.5315    0.2946 N   0  0  0  0  0  0  0  0  0  0  0  0
   -7.4434   -2.5250    1.0922 C   0  0  0  0  0  0  0  0  0  0  0  0
   -7.1383   -2.4579    2.4347 C   0  0  0  0  0  0  0  0  0  0  0  0
   -7.5261   -3.4528    3.2656 F   0  0  0  0  0  0  0  0  0  0  0  0
   -6.4396   -1.3876    2.9520 C   0  0  0  0  0  0  0  0  0  0  0  0
   -6.0840   -0.4341    2.0747 N   0  0  0  0  0  0  0  0  0  0  0  0
   -6.2786    1.8295    1.6317 H   0  0  0  0  0  0  0  0  0  0  0  0
   -7.6331    1.7987    0.4879 H   0  0  0  0  0  0  0  0  0  0  0  0
   -6.1282    2.7756    0.0712 H   0  0  0  0  0  0  0  0  0  0  0  0
   -6.5130    0.5256   -1.0959 H   0  0  0  0  0  0  0  0  0  0  0  0
   -4.4456    1.7910   -0.8999 H   0  0  0  0  0  0  0  0  0  0  0  0
   -4.0383    1.0011    0.6220 H   0  0  0  0  0  0  0  0  0  0  0  0
   -4.5742    0.1542   -3.0004 H   0  0  0  0  0  0  0  0  0  0  0  0
   -5.0534   -1.4796   -2.2829 H   0  0  0  0  0  0  0  0  0  0  0  0
   -3.4212   -1.1889   -2.8973 H   0  0  0  0  0  0  0  0  0  0  0  0
   -1.9048    0.2618   -0.1406 H   0  0  0  0  0  0  0  0  0  0  0  0
   -1.8102   -0.7966   -1.6194 H   0  0  0  0  0  0  0  0  0  0  0  0
    0.4433    0.7506   -3.8597 H   0  0  0  0  0  0  0  0  0  0  0  0
   -0.1380   -0.2894   -2.5615 H   0  0  0  0  0  0  0  0  0  0  0  0
    2.0360   -0.7304   -2.0943 H   0  0  0  0  0  0  0  0  0  0  0  0
    2.5471    0.5337   -3.2068 H   0  0  0  0  0  0  0  0  0  0  0  0
    2.6587    2.2111   -1.6417 H   0  0  0  0  0  0  0  0  0  0  0  0
    4.3849    0.3722   -1.3486 H   0  0  0  0  0  0  0  0  0  0  0  0
    3.2916   -0.3515   -0.1228 H   0  0  0  0  0  0  0  0  0  0  0  0
    4.4275    2.5024    0.1160 H   0  0  0  0  0  0  0  0  0  0  0  0
    3.4122    1.6327    1.3160 H   0  0  0  0  0  0  0  0  0  0  0  0
    6.6694    2.2137    0.0334 H   0  0  0  0  0  0  0  0  0  0  0  0
    8.7158    1.1750    0.9592 H   0  0  0  0  0  0  0  0  0  0  0  0
    9.2312   -2.0753    0.6274 H   0  0  0  0  0  0  0  0  0  0  0  0
    8.9619   -3.2638    1.9332 H   0  0  0  0  0  0  0  0  0  0  0  0
   10.6379   -2.5317    1.7047 H   0  0  0  0  0  0  0  0  0  0  0  0
    6.3323   -1.6061    3.0897 H   0  0  0  0  0  0  0  0  0  0  0  0
    1.5194    1.8181    0.7208 H   0  0  0  0  0  0  0  0  0  0  0  0
    0.8021    0.3428   -0.1135 H   0  0  0  0  0  0  0  0  0  0  0  0
    0.7931    3.2192   -1.1411 H   0  0  0  0  0  0  0  0  0  0  0  0
   -0.6286    2.4544   -0.2655 H   0  0  0  0  0  0  0  0  0  0  0  0
   -4.6719   -3.0742    0.1873 H   0  0  0  0  0  0  0  0  0  0  0  0
   -2.7261   -0.5301    1.5335 H   0  0  0  0  0  0  0  0  0  0  0  0
   -8.0063   -3.3928    0.6906 H   0  0  0  0  0  0  0  0  0  0  0  0
   -6.1857   -1.3137    4.0185 H   0  0  0  0  0  0  0  0  0  0  0  0
  1  2  1  0
  2  3  1  0
  3  4  1  0
  4  5  1  0
  4  6  1  0
  6  7  1  0
  7  8  2  0
  7  9  2  0
  7 10  1  0
 10 11  1  0
 11 12  1  0
 12 13  1  0
 13 14  1  0
 14 15  1  0
 15 16  1  0
 16 17  2  0
 17 18  1  0
 18 19  2  0
 19 20  1  0
 20 21  1  0
 20 22  2  0
 20 23  2  0
 19 24  1  0
 24 25  2  0
 25 26  1  0
 13 27  1  0
 27 28  1  0
  4 29  1  1
 29 30  1  0
 29 31  1  0
 31 32  2  0
  2 33  1  0
 33 34  2  0
 34 35  1  0
 35 36  2  0
 36 37  1  0
 36 38  1  0
 38 39  2  0
 28 10  1  0
 39 33  1  0
 25 16  1  0
  1 40  1  0
  1 41  1  0
  1 42  1  0
  2 43  1  6
  3 44  1  0
  3 45  1  0
  5 46  1  0
  5 47  1  0
  5 48  1  0
  6 49  1  0
  6 50  1  0
 11 51  1  0
 11 52  1  0
 12 53  1  0
 12 54  1  0
 13 55  1  0
 14 56  1  0
 14 57  1  0
 15 58  1  0
 15 59  1  0
 17 60  1  0
 18 61  1  0
 21 62  1  0
 21 63  1  0
 21 64  1  0
 24 65  1  0
 27 66  1  0
 27 67  1  0
 28 68  1  0
 28 69  1  0
 30 70  1  0
 31 71  1  0
 35 72  1  0
 38 73  1  0
M  END
$$$$
