@<TRIPOS>MOLECULE
*****
 73 75 0 0 0
SMALL
GASTEIGER

@<TRIPOS>ATOM
      1 C          -6.5241    1.8787    0.5462 C.3     1  UNL1       -0.0554
      2 C          -5.9720    0.5993   -0.1060 C.3     1  UNL1        0.0182
      3 C          -4.5312    0.7914   -0.3754 C.3     1  UNL1       -0.0183
      4 C          -3.7675   -0.2821   -1.0150 C.3     1  UNL1        0.0821
      5 C          -4.2738   -0.6917   -2.3826 C.3     1  UNL1       -0.0396
      6 C          -2.3037    0.0972   -1.1640 C.3     1  UNL1        0.1053
      7 S          -1.9656    1.5013   -2.1239 S.O2    1  UNL1        0.0339
      8 O          -2.3591    1.3316   -3.5817 O.2     1  UNL1       -0.1580
      9 O          -2.5767    2.7747   -1.6645 O.2     1  UNL1       -0.1580
     10 N          -0.2243    1.7159   -2.1548 N.3     1  UNL1       -0.1810
     11 C           0.4748    0.6501   -2.7393 C.3     1  UNL1        0.0204
     12 C           1.8554    0.3477   -2.3279 C.3     1  UNL1       -0.0357
     13 C           2.3885    1.2213   -1.2185 C.3     1  UNL1       -0.0383
     14 C           3.6191    0.6051   -0.6136 C.3     1  UNL1       -0.0461
     15 C           4.1289    1.5076    0.4833 C.3     1  UNL1       -0.0260
     16 C           5.3583    0.8664    1.0586 C.ar    1  UNL1       -0.0289
     17 C           6.5931    1.3644    0.7129 C.ar    1  UNL1       -0.0554
     18 C           7.7293    0.7862    1.2281 C.ar    1  UNL1       -0.0365
     19 C           7.6568   -0.2757    2.0787 C.ar    1  UNL1        0.0893
     20 S           9.0800   -1.0572    2.7698 S.O2    1  UNL1       -0.0058
     21 C           9.5445   -2.3588    1.6334 C.3     1  UNL1        0.0596
     22 O          10.2015   -0.0684    2.9123 O.2     1  UNL1       -0.1696
     23 O           8.6894   -1.6572    4.0749 O.2     1  UNL1       -0.1696
     24 C           6.4160   -0.7604    2.4134 C.ar    1  UNL1       -0.0183
     25 C           5.2646   -0.1988    1.9109 C.ar    1  UNL1        0.0459
     26 CL          3.6897   -0.8231    2.3454 Cl      1  UNL1       -0.0832
     27 C           1.2539    1.3667   -0.2296 C.3     1  UNL1       -0.0357
     28 C           0.2440    2.2780   -0.9428 C.3     1  UNL1        0.0204
     29 N          -3.7542   -1.4719   -0.1899 N.am    1  UNL1       -0.1788
     30 O          -4.2733   -2.6484   -0.6074 O.3     1  UNL1       -0.2921
     31 C          -3.1735   -1.4109    1.0946 C.2     1  UNL1        0.2256
     32 O          -3.1388   -2.4384    1.8525 O.2     1  UNL1       -0.2772
     33 C          -6.3758   -0.4912    0.7712 C.ar    1  UNL1        0.1320
     34 N          -7.0497   -1.5315    0.2946 N.ar    1  UNL1       -0.2372
     35 C          -7.4434   -2.5250    1.0922 C.ar    1  UNL1        0.0663
     36 C          -7.1383   -2.4579    2.4347 C.ar    1  UNL1        0.1594
     37 F          -7.5261   -3.4528    3.2656 F       1  UNL1       -0.2023
     38 C          -6.4396   -1.3876    2.9520 C.ar    1  UNL1        0.0663
     39 N          -6.0840   -0.4341    2.0747 N.ar    1  UNL1       -0.2372
     40 H          -6.2786    1.8295    1.6317 H       1  UNL1        0.0236
     41 H          -7.6331    1.7987    0.4879 H       1  UNL1        0.0236
     42 H          -6.1282    2.7756    0.0712 H       1  UNL1        0.0236
     43 H          -6.5130    0.5256   -1.0959 H       1  UNL1        0.0377
     44 H          -4.4456    1.7910   -0.8999 H       1  UNL1        0.0294
     45 H          -4.0383    1.0011    0.6220 H       1  UNL1        0.0294
     46 H          -4.5742    0.1542   -3.0004 H       1  UNL1        0.0252
     47 H          -5.0534   -1.4796   -2.2829 H       1  UNL1        0.0252
     48 H          -3.4212   -1.1889   -2.8973 H       1  UNL1        0.0252
     49 H          -1.9048    0.2618   -0.1406 H       1  UNL1        0.0538
     50 H          -1.8102   -0.7966   -1.6194 H       1  UNL1        0.0538
     51 H           0.4433    0.7506   -3.8597 H       1  UNL1        0.0444
     52 H          -0.1380   -0.2894   -2.5615 H       1  UNL1        0.0444
     53 H           2.0360   -0.7304   -2.0943 H       1  UNL1        0.0281
     54 H           2.5471    0.5337   -3.2068 H       1  UNL1        0.0281
     55 H           2.6587    2.2111   -1.6417 H       1  UNL1        0.0302
     56 H           4.3849    0.3722   -1.3486 H       1  UNL1        0.0271
     57 H           3.2916   -0.3515   -0.1228 H       1  UNL1        0.0271
     58 H           4.4275    2.5024    0.1160 H       1  UNL1        0.0314
     59 H           3.4122    1.6327    1.3160 H       1  UNL1        0.0314
     60 H           6.6694    2.2137    0.0334 H       1  UNL1        0.0621
     61 H           8.7158    1.1750    0.9592 H       1  UNL1        0.0637
     62 H           9.2312   -2.0753    0.6274 H       1  UNL1        0.0468
     63 H           8.9619   -3.2638    1.9332 H       1  UNL1        0.0468
     64 H          10.6379   -2.5317    1.7047 H       1  UNL1        0.0468
     65 H           6.3323   -1.6061    3.0897 H       1  UNL1        0.0651
     66 H           1.5194    1.8181    0.7208 H       1  UNL1        0.0281
     67 H           0.8021    0.3428   -0.1135 H       1  UNL1        0.0281
     68 H           0.7931    3.2192   -1.1411 H       1  UNL1        0.0444
     69 H          -0.6286    2.4544   -0.2655 H       1  UNL1        0.0444
     70 H          -4.6719   -3.0742    0.1873 H       1  UNL1        0.2417
     71 H          -2.7261   -0.5301    1.5335 H       1  UNL1        0.1274
     72 H          -8.0063   -3.3928    0.6906 H       1  UNL1        0.0860
     73 H          -6.1857   -1.3137    4.0185 H       1  UNL1        0.0860
@<TRIPOS>BOND
     1     1     2    1
     2     2     3    1
     3     3     4    1
     4     4     5    1
     5     4     6    1
     6     6     7    1
     7     7     8    2
     8     7     9    2
     9     7    10    1
    10    10    11    1
    11    11    12    1
    12    12    13    1
    13    13    14    1
    14    14    15    1
    15    15    16    1
    16    16    17   ar
    17    17    18   ar
    18    18    19   ar
    19    19    20    1
    20    20    21    1
    21    20    22    2
    22    20    23    2
    23    19    24   ar
    24    24    25   ar
    25    25    26    1
    26    13    27    1
    27    27    28    1
    28     4    29    1
    29    29    30    1
    30    29    31   am
    31    31    32    2
    32     2    33    1
    33    33    34   ar
    34    34    35   ar
    35    35    36   ar
    36    36    37    1
    37    36    38   ar
    38    38    39   ar
    39    28    10    1
    40    39    33   ar
    41    25    16   ar
    42     1    40    1
    43     1    41    1
    44     1    42    1
    45     2    43    1
    46     3    44    1
    47     3    45    1
    48     5    46    1
    49     5    47    1
    50     5    48    1
    51     6    49    1
    52     6    50    1
    53    11    51    1
    54    11    52    1
    55    12    53    1
    56    12    54    1
    57    13    55    1
    58    14    56    1
    59    14    57    1
    60    15    58    1
    61    15    59    1
    62    17    60    1
    63    18    61    1
    64    21    62    1
    65    21    63    1
    66    21    64    1
    67    24    65    1
    68    27    66    1
    69    27    67    1
    70    28    68    1
    71    28    69    1
    72    30    70    1
    73    31    71    1
    74    35    72    1
    75    38    73    1
