@<TRIPOS>MOLECULE
*****
 34 37 0 0 0
SMALL
GASTEIGER

@<TRIPOS>ATOM
      1 CL         -4.3263    3.3301    0.0833 Cl      1  UNL1       -0.0816
      2 C          -4.7405    1.6097    0.0657 C.ar    1  UNL1        0.0621
      3 C          -6.0625    1.2401    0.0504 C.ar    1  UNL1       -0.0416
      4 C          -6.4147   -0.0912    0.0364 C.ar    1  UNL1       -0.0603
      5 C          -5.4371   -1.0597    0.0379 C.ar    1  UNL1       -0.0599
      6 C          -4.0859   -0.6616    0.0537 C.ar    1  UNL1       -0.0391
      7 C          -3.7058    0.6543    0.0678 C.ar    1  UNL1        0.0509
      8 N          -2.3853    1.0956    0.0837 N.pl3   1  UNL1       -0.2982
      9 C          -1.1930    0.3474    0.0888 C.ar    1  UNL1        0.1249
     10 C           0.0374    1.0150    0.1057 C.ar    1  UNL1        0.0023
     11 C           1.2539    0.3781    0.1119 C.ar    1  UNL1        0.0516
     12 N           2.5439    0.7590    0.1270 N.ar    1  UNL1       -0.3539
     13 C           3.3428   -0.3231    0.1257 C.ar    1  UNL1        0.0505
     14 C           4.8010   -0.3621    0.1389 C.ar    1  UNL1        0.0355
     15 C           5.5946   -1.4869    0.1373 C.ar    1  UNL1        0.0582
     16 N           6.8892   -1.1244    0.1522 N.ar    1  UNL1       -0.1817
     17 N           6.9217    0.1933    0.1630 N.ar    1  UNL1       -0.2841
     18 C           5.6705    0.7057    0.1555 C.ar    1  UNL1        0.0314
     19 C           2.5219   -1.4307    0.1091 C.ar    1  UNL1       -0.0271
     20 C           1.2074   -1.0037    0.1003 C.ar    1  UNL1        0.0185
     21 C          -0.0104   -1.6481    0.0837 C.ar    1  UNL1        0.0389
     22 N          -1.1510   -0.9785    0.0785 N.ar    1  UNL1       -0.2395
     23 H          -6.8585    1.9873    0.0488 H       1  UNL1        0.0633
     24 H          -7.4499   -0.4111    0.0242 H       1  UNL1        0.0618
     25 H          -5.6550   -2.1234    0.0274 H       1  UNL1        0.0618
     26 H          -3.3191   -1.4204    0.0549 H       1  UNL1        0.0636
     27 H          -2.2348    2.1618    0.0936 H       1  UNL1        0.1536
     28 H           0.0695    2.1206    0.1149 H       1  UNL1        0.0673
     29 H           2.8697    1.7713    0.1383 H       1  UNL1        0.1659
     30 H           5.2593   -2.5189    0.1260 H       1  UNL1        0.0854
     31 H           7.8033    0.7464    0.1755 H       1  UNL1        0.1882
     32 H           5.3765    1.7544    0.1611 H       1  UNL1        0.0830
     33 H           2.8168   -2.4874    0.1033 H       1  UNL1        0.0645
     34 H           0.0505   -2.7391    0.0754 H       1  UNL1        0.0837
@<TRIPOS>BOND
     1     1     2    1
     2     2     3   ar
     3     3     4   ar
     4     4     5   ar
     5     5     6   ar
     6     6     7   ar
     7     7     8    1
     8     8     9    1
     9     9    10   ar
    10    10    11   ar
    11    11    12   ar
    12    12    13   ar
    13    13    14    1
    14    14    15   ar
    15    15    16   ar
    16    16    17   ar
    17    17    18   ar
    18    13    19   ar
    19    19    20   ar
    20    20    21   ar
    21    21    22   ar
    22     7     2   ar
    23    22     9   ar
    24    20    11   ar
    25    18    14   ar
    26     3    23    1
    27     4    24    1
    28     5    25    1
    29     6    26    1
    30     8    27    1
    31    10    28    1
    32    12    29    1
    33    15    30    1
    34    17    31    1
    35    18    32    1
    36    19    33    1
    37    21    34    1
