
     RDKit          3D

 49 52  0  0  0  0  0  0  0  0999 V2000
    2.9332    0.5956    3.1007 C   0  0  0  0  0  0  0  0  0  0  0  0
    2.3344    0.2672    1.7877 C   0  0  0  0  0  0  0  0  0  0  0  0
    3.1022    0.0569    0.6477 C   0  0  0  0  0  0  0  0  0  0  0  0
    2.5227   -0.2461   -0.5566 C   0  0  0  0  0  0  0  0  0  0  0  0
    3.2968   -0.4583   -1.7073 O   0  0  0  0  0  0  0  0  0  0  0  0
    4.6812   -0.3659   -1.6539 C   0  0  0  0  0  0  0  0  0  0  0  0
    5.2887    0.8499   -1.8894 C   0  0  0  0  0  0  0  0  0  0  0  0
    6.6804    0.9834   -1.8447 C   0  0  0  0  0  0  0  0  0  0  0  0
    7.4619   -0.1217   -1.5596 C   0  0  0  0  0  0  0  0  0  0  0  0
    6.8678   -1.3591   -1.3187 C   0  0  0  0  0  0  0  0  0  0  0  0
    7.6724   -2.4138   -1.0435 F   0  0  0  0  0  0  0  0  0  0  0  0
    5.5029   -1.4380   -1.3740 C   0  0  0  0  0  0  0  0  0  0  0  0
    1.1923   -0.3343   -0.6049 N   0  0  0  0  0  0  0  0  0  0  0  0
    0.4115   -0.1372    0.4799 C   0  0  0  0  0  0  0  0  0  0  0  0
   -1.0016   -0.2464    0.3598 N   0  0  0  0  0  0  0  0  0  0  0  0
   -1.8071   -0.0226    1.5692 C   0  0  0  0  0  0  0  0  0  0  0  0
   -2.8274    1.0470    1.1625 C   0  0  0  0  0  0  0  0  0  0  0  0
   -3.7653    0.3275    0.1818 C   0  0  0  0  0  0  0  0  0  0  0  0
   -2.9847    0.0771   -1.0623 C   0  0  0  0  0  0  0  0  0  0  0  0
   -1.6608   -0.5593   -0.8666 C   0  0  0  0  0  0  0  0  0  0  0  0
   -4.8683    1.3089   -0.1369 C   0  0  0  0  0  0  0  0  0  0  0  0
   -6.0823    0.6866   -0.5667 N   0  0  0  0  0  0  0  0  0  0  0  0
   -6.4677   -0.4252    0.2809 C   0  0  0  0  0  0  0  0  0  0  0  0
   -5.2995   -1.4051    0.2605 C   0  0  0  0  0  0  0  0  0  0  0  0
   -4.1983   -0.8061    0.8179 O   0  0  0  0  0  0  0  0  0  0  0  0
    1.0033    0.1586    1.6489 N   0  0  0  0  0  0  0  0  0  0  0  0
    4.0257    0.5667    3.0461 H   0  0  0  0  0  0  0  0  0  0  0  0
    2.6378    1.6269    3.4429 H   0  0  0  0  0  0  0  0  0  0  0  0
    2.5648   -0.1548    3.8244 H   0  0  0  0  0  0  0  0  0  0  0  0
    4.1697    0.1351    0.7195 H   0  0  0  0  0  0  0  0  0  0  0  0
    4.7217    1.7431   -2.1163 H   0  0  0  0  0  0  0  0  0  0  0  0
    7.1132    1.9439   -2.0332 H   0  0  0  0  0  0  0  0  0  0  0  0
    8.5577   -0.0410   -1.5191 H   0  0  0  0  0  0  0  0  0  0  0  0
    5.0367   -2.3797   -1.1914 H   0  0  0  0  0  0  0  0  0  0  0  0
   -1.1981    0.2949    2.4142 H   0  0  0  0  0  0  0  0  0  0  0  0
   -2.4085   -0.9341    1.7814 H   0  0  0  0  0  0  0  0  0  0  0  0
   -3.3761    1.4320    2.0206 H   0  0  0  0  0  0  0  0  0  0  0  0
   -2.2915    1.7984    0.5691 H   0  0  0  0  0  0  0  0  0  0  0  0
   -2.9443    1.0286   -1.6484 H   0  0  0  0  0  0  0  0  0  0  0  0
   -3.6028   -0.6173   -1.7042 H   0  0  0  0  0  0  0  0  0  0  0  0
   -0.9872   -0.2007   -1.6997 H   0  0  0  0  0  0  0  0  0  0  0  0
   -1.6749   -1.6761   -1.0000 H   0  0  0  0  0  0  0  0  0  0  0  0
   -4.5034    1.9691   -0.9612 H   0  0  0  0  0  0  0  0  0  0  0  0
   -5.0662    1.9390    0.7550 H   0  0  0  0  0  0  0  0  0  0  0  0
   -6.0926    0.4424   -1.5807 H   0  0  0  0  0  0  0  0  0  0  0  0
   -6.6655   -0.0376    1.2944 H   0  0  0  0  0  0  0  0  0  0  0  0
   -7.3181   -0.9284   -0.1878 H   0  0  0  0  0  0  0  0  0  0  0  0
   -5.1347   -1.6794   -0.8026 H   0  0  0  0  0  0  0  0  0  0  0  0
   -5.5522   -2.2909    0.8834 H   0  0  0  0  0  0  0  0  0  0  0  0
  1  2  1  0
  2  3  2  0
  3  4  1  0
  4  5  1  0
  5  6  1  0
  6  7  2  0
  7  8  1  0
  8  9  2  0
  9 10  1  0
 10 11  1  0
 10 12  2  0
  4 13  2  0
 13 14  1  0
 14 15  1  0
 15 16  1  0
 16 17  1  0
 17 18  1  0
 18 19  1  0
 19 20  1  0
 18 21  1  0
 21 22  1  0
 22 23  1  0
 23 24  1  0
 24 25  1  0
 14 26  2  0
 26  2  1  0
 12  6  1  0
 20 15  1  0
 25 18  1  0
  1 27  1  0
  1 28  1  0
  1 29  1  0
  3 30  1  0
  7 31  1  0
  8 32  1  0
  9 33  1  0
 12 34  1  0
 16 35  1  0
 16 36  1  0
 17 37  1  0
 17 38  1  0
 19 39  1  0
 19 40  1  0
 20 41  1  0
 20 42  1  0
 21 43  1  0
 21 44  1  0
 22 45  1  0
 23 46  1  0
 23 47  1  0
 24 48  1  0
 24 49  1  0
M  END
$$$$
