@<TRIPOS>MOLECULE
*****
 49 52 0 0 0
SMALL
GASTEIGER

@<TRIPOS>ATOM
      1 C           2.9332    0.5956    3.1007 C.3     1  UNL1       -0.0221
      2 C           2.3344    0.2672    1.7877 C.ar    1  UNL1        0.0469
      3 C           3.1022    0.0569    0.6477 C.ar    1  UNL1        0.0215
      4 C           2.5227   -0.2461   -0.5566 C.ar    1  UNL1        0.2251
      5 O           3.2968   -0.4583   -1.7073 O.3     1  UNL1       -0.4378
      6 C           4.6812   -0.3659   -1.6539 C.ar    1  UNL1        0.1331
      7 C           5.2887    0.8499   -1.8894 C.ar    1  UNL1       -0.0191
      8 C           6.6804    0.9834   -1.8447 C.ar    1  UNL1       -0.0556
      9 C           7.4619   -0.1217   -1.5596 C.ar    1  UNL1       -0.0262
     10 C           6.8678   -1.3591   -1.3187 C.ar    1  UNL1        0.1269
     11 F           7.6724   -2.4138   -1.0435 F       1  UNL1       -0.2054
     12 C           5.5029   -1.4380   -1.3740 C.ar    1  UNL1        0.0160
     13 N           1.1923   -0.3343   -0.6049 N.ar    1  UNL1       -0.1790
     14 C           0.4115   -0.1372    0.4799 C.ar    1  UNL1        0.2211
     15 N          -1.0016   -0.2464    0.3598 N.pl3   1  UNL1       -0.2994
     16 C          -1.8071   -0.0226    1.5692 C.3     1  UNL1        0.0175
     17 C          -2.8274    1.0470    1.1625 C.3     1  UNL1       -0.0066
     18 C          -3.7653    0.3275    0.1818 C.3     1  UNL1        0.0848
     19 C          -2.9847    0.0771   -1.0623 C.3     1  UNL1       -0.0066
     20 C          -1.6608   -0.5593   -0.8666 C.3     1  UNL1        0.0175
     21 C          -4.8683    1.3089   -0.1369 C.3     1  UNL1        0.0252
     22 N          -6.0823    0.6866   -0.5667 N.3     1  UNL1       -0.3111
     23 C          -6.4677   -0.4252    0.2809 C.3     1  UNL1        0.0195
     24 C          -5.2995   -1.4051    0.2605 C.3     1  UNL1        0.0609
     25 O          -4.1983   -0.8061    0.8179 O.3     1  UNL1       -0.3707
     26 N           1.0033    0.1586    1.6489 N.ar    1  UNL1       -0.2194
     27 H           4.0257    0.5667    3.0461 H       1  UNL1        0.0293
     28 H           2.6378    1.6269    3.4429 H       1  UNL1        0.0293
     29 H           2.5648   -0.1548    3.8244 H       1  UNL1        0.0293
     30 H           4.1697    0.1351    0.7195 H       1  UNL1        0.0689
     31 H           4.7217    1.7431   -2.1163 H       1  UNL1        0.0654
     32 H           7.1132    1.9439   -2.0332 H       1  UNL1        0.0620
     33 H           8.5577   -0.0410   -1.5191 H       1  UNL1        0.0646
     34 H           5.0367   -2.3797   -1.1914 H       1  UNL1        0.0683
     35 H          -1.1981    0.2949    2.4142 H       1  UNL1        0.0465
     36 H          -2.4085   -0.9341    1.7814 H       1  UNL1        0.0465
     37 H          -3.3761    1.4320    2.0206 H       1  UNL1        0.0309
     38 H          -2.2915    1.7984    0.5691 H       1  UNL1        0.0309
     39 H          -2.9443    1.0286   -1.6484 H       1  UNL1        0.0309
     40 H          -3.6028   -0.6173   -1.7042 H       1  UNL1        0.0309
     41 H          -0.9872   -0.2007   -1.6997 H       1  UNL1        0.0465
     42 H          -1.6749   -1.6761   -1.0000 H       1  UNL1        0.0465
     43 H          -4.5034    1.9691   -0.9612 H       1  UNL1        0.0452
     44 H          -5.0662    1.9390    0.7550 H       1  UNL1        0.0452
     45 H          -6.0926    0.4424   -1.5807 H       1  UNL1        0.1221
     46 H          -6.6655   -0.0376    1.2944 H       1  UNL1        0.0446
     47 H          -7.3181   -0.9284   -0.1878 H       1  UNL1        0.0446
     48 H          -5.1347   -1.6794   -0.8026 H       1  UNL1        0.0573
     49 H          -5.5522   -2.2909    0.8834 H       1  UNL1        0.0573
@<TRIPOS>BOND
     1     1     2    1
     2     2     3   ar
     3     3     4   ar
     4     4     5    1
     5     5     6    1
     6     6     7   ar
     7     7     8   ar
     8     8     9   ar
     9     9    10   ar
    10    10    11    1
    11    10    12   ar
    12     4    13   ar
    13    13    14   ar
    14    14    15    1
    15    15    16    1
    16    16    17    1
    17    17    18    1
    18    18    19    1
    19    19    20    1
    20    18    21    1
    21    21    22    1
    22    22    23    1
    23    23    24    1
    24    24    25    1
    25    14    26   ar
    26    26     2   ar
    27    12     6   ar
    28    20    15    1
    29    25    18    1
    30     1    27    1
    31     1    28    1
    32     1    29    1
    33     3    30    1
    34     7    31    1
    35     8    32    1
    36     9    33    1
    37    12    34    1
    38    16    35    1
    39    16    36    1
    40    17    37    1
    41    17    38    1
    42    19    39    1
    43    19    40    1
    44    20    41    1
    45    20    42    1
    46    21    43    1
    47    21    44    1
    48    22    45    1
    49    23    46    1
    50    23    47    1
    51    24    48    1
    52    24    49    1
