@<TRIPOS>MOLECULE
*****
 68 72 0 0 0
SMALL
GASTEIGER

@<TRIPOS>ATOM
      1 C          -4.4317    3.3933   -0.2593 C.3     1  UNL1       -0.0396
      2 C          -4.2798    2.0089    0.2602 C.ar    1  UNL1       -0.0467
      3 C          -5.0975    1.6095    1.2937 C.ar    1  UNL1       -0.0557
      4 C          -4.9599    0.3364    1.7739 C.ar    1  UNL1       -0.0467
      5 C          -5.8225   -0.1527    2.8971 C.3     1  UNL1       -0.0396
      6 C          -4.0327   -0.4969    1.2296 C.ar    1  UNL1       -0.0170
      7 C          -3.1802   -0.1363    0.1795 C.ar    1  UNL1        0.1223
      8 O          -2.3102   -1.0865   -0.2490 O.3     1  UNL1       -0.4750
      9 C          -1.3555   -1.0160   -1.2635 C.3     1  UNL1        0.2219
     10 C          -1.6599   -1.9995   -2.3531 C.2     1  UNL1        0.3485
     11 O          -0.8856   -2.2276   -3.2983 O.2     1  UNL1       -0.2467
     12 O          -2.8551   -2.7241   -2.3652 O.3     1  UNL1       -0.4780
     13 C           0.0721   -1.0993   -0.7905 C.3     1  UNL1        0.1201
     14 C           0.3788   -2.4265   -0.1578 C.ar    1  UNL1       -0.0188
     15 C          -0.5099   -3.4034    0.1124 C.ar    1  UNL1       -0.0564
     16 C          -0.1021   -4.5799    0.6996 C.ar    1  UNL1       -0.0614
     17 C           1.2077   -4.8253    1.0396 C.ar    1  UNL1       -0.0617
     18 C           2.1237   -3.8411    0.7717 C.ar    1  UNL1       -0.0614
     19 C           1.7060   -2.6656    0.1832 C.ar    1  UNL1       -0.0564
     20 N           0.9762   -0.9677   -1.8659 N.3     1  UNL1       -0.2916
     21 C           0.8128    0.1206   -2.7876 C.3     1  UNL1        0.0747
     22 C           1.4287    1.3744   -2.2715 C.2     1  UNL1        0.2340
     23 O           1.7134    2.2835   -3.0468 O.2     1  UNL1       -0.2738
     24 N           1.7605    1.6904   -0.8972 N.am    1  UNL1       -0.2655
     25 C           2.8445    2.5332   -0.6303 C.3     1  UNL1        0.0503
     26 C           4.1978    1.9272   -0.4998 C.ar    1  UNL1        0.0407
     27 C           4.6055    1.2874    0.6356 C.ar    1  UNL1        0.1335
     28 F           3.8451    1.1616    1.7548 F       1  UNL1       -0.2050
     29 C           5.8734    0.6982    0.7670 C.ar    1  UNL1        0.0093
     30 C           6.7282    0.7820   -0.3105 C.ar    1  UNL1        0.1289
     31 F           7.9794    0.2224   -0.2352 F       1  UNL1       -0.2053
     32 C           6.3260    1.4235   -1.4536 C.ar    1  UNL1        0.0093
     33 C           5.0944    1.9864   -1.5587 C.ar    1  UNL1        0.1335
     34 F           4.7136    2.6326   -2.7314 F       1  UNL1       -0.2050
     35 C           1.0003    1.1583    0.1765 C.ar    1  UNL1        0.0420
     36 C           1.0236    1.9876    1.2709 C.ar    1  UNL1       -0.0399
     37 C           0.3578    1.6243    2.4247 C.ar    1  UNL1       -0.0600
     38 C          -0.3278    0.4289    2.4726 C.ar    1  UNL1       -0.0613
     39 C          -0.3735   -0.4216    1.4025 C.ar    1  UNL1       -0.0546
     40 C           0.2921   -0.0605    0.2391 C.ar    1  UNL1        0.0025
     41 C          -3.3321    1.1384   -0.2867 C.ar    1  UNL1       -0.0170
     42 H          -4.8861    4.0532    0.5081 H       1  UNL1        0.0278
     43 H          -3.4355    3.8352   -0.4784 H       1  UNL1        0.0278
     44 H          -5.1117    3.4393   -1.1469 H       1  UNL1        0.0278
     45 H          -5.8467    2.2583    1.7450 H       1  UNL1        0.0623
     46 H          -5.1833   -0.5597    3.7275 H       1  UNL1        0.0278
     47 H          -6.4231    0.6652    3.3405 H       1  UNL1        0.0278
     48 H          -6.5361   -0.9093    2.5134 H       1  UNL1        0.0278
     49 H          -3.9622   -1.4994    1.6459 H       1  UNL1        0.0657
     50 H          -1.4566    0.0363   -1.6675 H       1  UNL1        0.0878
     51 H          -3.1150   -3.3298   -3.1228 H       1  UNL1        0.2952
     52 H          -1.5296   -3.2745   -0.1152 H       1  UNL1        0.0621
     53 H          -0.8049   -5.3870    0.9276 H       1  UNL1        0.0618
     54 H           1.5227   -5.7642    1.5069 H       1  UNL1        0.0618
     55 H           3.1678   -4.0093    1.0317 H       1  UNL1        0.0618
     56 H           2.4978   -1.9336    0.0115 H       1  UNL1        0.0621
     57 H           1.9716   -1.0824   -1.6956 H       1  UNL1        0.1236
     58 H          -0.1981    0.2945   -3.1755 H       1  UNL1        0.0520
     59 H           1.4125   -0.1748   -3.7041 H       1  UNL1        0.0520
     60 H           2.7340    3.4465   -0.0220 H       1  UNL1        0.0520
     61 H           2.9180    3.1026   -1.6425 H       1  UNL1        0.0520
     62 H           6.1841    0.1946    1.6699 H       1  UNL1        0.0675
     63 H           7.0085    1.4774   -2.2803 H       1  UNL1        0.0675
     64 H           1.5695    2.9036    1.1799 H       1  UNL1        0.0636
     65 H           0.3928    2.3071    3.2852 H       1  UNL1        0.0618
     66 H          -0.8543    0.1280    3.3687 H       1  UNL1        0.0618
     67 H          -0.8790   -1.3681    1.4125 H       1  UNL1        0.0622
     68 H          -2.7025    1.4717   -1.0960 H       1  UNL1        0.0657
@<TRIPOS>BOND
     1     1     2    1
     2     2     3   ar
     3     3     4   ar
     4     4     5    1
     5     4     6   ar
     6     6     7   ar
     7     7     8    1
     8     8     9    1
     9     9    10    1
    10    10    11    2
    11    10    12    1
    12     9    13    1
    13    13    14    1
    14    14    15   ar
    15    15    16   ar
    16    16    17   ar
    17    17    18   ar
    18    18    19   ar
    19    13    20    1
    20    20    21    1
    21    21    22    1
    22    22    23    2
    23    22    24   am
    24    24    25    1
    25    25    26    1
    26    26    27   ar
    27    27    28    1
    28    27    29   ar
    29    29    30   ar
    30    30    31    1
    31    30    32   ar
    32    32    33   ar
    33    33    34    1
    34    24    35    1
    35    35    36   ar
    36    36    37   ar
    37    37    38   ar
    38    38    39   ar
    39    39    40   ar
    40     7    41   ar
    41    41     2   ar
    42    40    13    1
    43    19    14   ar
    44    33    26   ar
    45    40    35   ar
    46     1    42    1
    47     1    43    1
    48     1    44    1
    49     3    45    1
    50     5    46    1
    51     5    47    1
    52     5    48    1
    53     6    49    1
    54     9    50    1
    55    12    51    1
    56    15    52    1
    57    16    53    1
    58    17    54    1
    59    18    55    1
    60    19    56    1
    61    20    57    1
    62    21    58    1
    63    21    59    1
    64    25    60    1
    65    25    61    1
    66    29    62    1
    67    32    63    1
    68    36    64    1
    69    37    65    1
    70    38    66    1
    71    39    67    1
    72    41    68    1
