
     RDKit          3D

 68 72  0  0  0  0  0  0  0  0999 V2000
   -4.4317    3.3933   -0.2593 C   0  0  0  0  0  0  0  0  0  0  0  0
   -4.2798    2.0089    0.2602 C   0  0  0  0  0  0  0  0  0  0  0  0
   -5.0975    1.6095    1.2937 C   0  0  0  0  0  0  0  0  0  0  0  0
   -4.9599    0.3364    1.7739 C   0  0  0  0  0  0  0  0  0  0  0  0
   -5.8225   -0.1527    2.8971 C   0  0  0  0  0  0  0  0  0  0  0  0
   -4.0327   -0.4969    1.2296 C   0  0  0  0  0  0  0  0  0  0  0  0
   -3.1802   -0.1363    0.1795 C   0  0  0  0  0  0  0  0  0  0  0  0
   -2.3102   -1.0865   -0.2490 O   0  0  0  0  0  0  0  0  0  0  0  0
   -1.3555   -1.0160   -1.2635 C   0  0  2  0  0  0  0  0  0  0  0  0
   -1.6599   -1.9995   -2.3531 C   0  0  0  0  0  0  0  0  0  0  0  0
   -0.8856   -2.2276   -3.2983 O   0  0  0  0  0  0  0  0  0  0  0  0
   -2.8551   -2.7241   -2.3652 O   0  0  0  0  0  0  0  0  0  0  0  0
    0.0721   -1.0993   -0.7905 C   0  0  1  0  0  0  0  0  0  0  0  0
    0.3788   -2.4265   -0.1578 C   0  0  0  0  0  0  0  0  0  0  0  0
   -0.5099   -3.4034    0.1124 C   0  0  0  0  0  0  0  0  0  0  0  0
   -0.1021   -4.5799    0.6996 C   0  0  0  0  0  0  0  0  0  0  0  0
    1.2077   -4.8253    1.0396 C   0  0  0  0  0  0  0  0  0  0  0  0
    2.1237   -3.8411    0.7717 C   0  0  0  0  0  0  0  0  0  0  0  0
    1.7060   -2.6656    0.1832 C   0  0  0  0  0  0  0  0  0  0  0  0
    0.9762   -0.9677   -1.8659 N   0  0  0  0  0  0  0  0  0  0  0  0
    0.8128    0.1206   -2.7876 C   0  0  0  0  0  0  0  0  0  0  0  0
    1.4287    1.3744   -2.2715 C   0  0  0  0  0  0  0  0  0  0  0  0
    1.7134    2.2835   -3.0468 O   0  0  0  0  0  0  0  0  0  0  0  0
    1.7605    1.6904   -0.8972 N   0  0  0  0  0  0  0  0  0  0  0  0
    2.8445    2.5332   -0.6303 C   0  0  0  0  0  0  0  0  0  0  0  0
    4.1978    1.9272   -0.4998 C   0  0  0  0  0  0  0  0  0  0  0  0
    4.6055    1.2874    0.6356 C   0  0  0  0  0  0  0  0  0  0  0  0
    3.8451    1.1616    1.7548 F   0  0  0  0  0  0  0  0  0  0  0  0
    5.8734    0.6982    0.7670 C   0  0  0  0  0  0  0  0  0  0  0  0
    6.7282    0.7820   -0.3105 C   0  0  0  0  0  0  0  0  0  0  0  0
    7.9794    0.2224   -0.2352 F   0  0  0  0  0  0  0  0  0  0  0  0
    6.3260    1.4235   -1.4536 C   0  0  0  0  0  0  0  0  0  0  0  0
    5.0944    1.9864   -1.5587 C   0  0  0  0  0  0  0  0  0  0  0  0
    4.7136    2.6326   -2.7314 F   0  0  0  0  0  0  0  0  0  0  0  0
    1.0003    1.1583    0.1765 C   0  0  0  0  0  0  0  0  0  0  0  0
    1.0236    1.9876    1.2709 C   0  0  0  0  0  0  0  0  0  0  0  0
    0.3578    1.6243    2.4247 C   0  0  0  0  0  0  0  0  0  0  0  0
   -0.3278    0.4289    2.4726 C   0  0  0  0  0  0  0  0  0  0  0  0
   -0.3735   -0.4216    1.4025 C   0  0  0  0  0  0  0  0  0  0  0  0
    0.2921   -0.0605    0.2391 C   0  0  0  0  0  0  0  0  0  0  0  0
   -3.3321    1.1384   -0.2867 C   0  0  0  0  0  0  0  0  0  0  0  0
   -4.8861    4.0532    0.5081 H   0  0  0  0  0  0  0  0  0  0  0  0
   -3.4355    3.8352   -0.4784 H   0  0  0  0  0  0  0  0  0  0  0  0
   -5.1117    3.4393   -1.1469 H   0  0  0  0  0  0  0  0  0  0  0  0
   -5.8467    2.2583    1.7450 H   0  0  0  0  0  0  0  0  0  0  0  0
   -5.1833   -0.5597    3.7275 H   0  0  0  0  0  0  0  0  0  0  0  0
   -6.4231    0.6652    3.3405 H   0  0  0  0  0  0  0  0  0  0  0  0
   -6.5361   -0.9093    2.5134 H   0  0  0  0  0  0  0  0  0  0  0  0
   -3.9622   -1.4994    1.6459 H   0  0  0  0  0  0  0  0  0  0  0  0
   -1.4566    0.0363   -1.6675 H   0  0  0  0  0  0  0  0  0  0  0  0
   -3.1150   -3.3298   -3.1228 H   0  0  0  0  0  0  0  0  0  0  0  0
   -1.5296   -3.2745   -0.1152 H   0  0  0  0  0  0  0  0  0  0  0  0
   -0.8049   -5.3870    0.9276 H   0  0  0  0  0  0  0  0  0  0  0  0
    1.5227   -5.7642    1.5069 H   0  0  0  0  0  0  0  0  0  0  0  0
    3.1678   -4.0093    1.0317 H   0  0  0  0  0  0  0  0  0  0  0  0
    2.4978   -1.9336    0.0115 H   0  0  0  0  0  0  0  0  0  0  0  0
    1.9716   -1.0824   -1.6956 H   0  0  0  0  0  0  0  0  0  0  0  0
   -0.1981    0.2945   -3.1755 H   0  0  0  0  0  0  0  0  0  0  0  0
    1.4125   -0.1748   -3.7041 H   0  0  0  0  0  0  0  0  0  0  0  0
    2.7340    3.4465   -0.0220 H   0  0  0  0  0  0  0  0  0  0  0  0
    2.9180    3.1026   -1.6425 H   0  0  0  0  0  0  0  0  0  0  0  0
    6.1841    0.1946    1.6699 H   0  0  0  0  0  0  0  0  0  0  0  0
    7.0085    1.4774   -2.2803 H   0  0  0  0  0  0  0  0  0  0  0  0
    1.5695    2.9036    1.1799 H   0  0  0  0  0  0  0  0  0  0  0  0
    0.3928    2.3071    3.2852 H   0  0  0  0  0  0  0  0  0  0  0  0
   -0.8543    0.1280    3.3687 H   0  0  0  0  0  0  0  0  0  0  0  0
   -0.8790   -1.3681    1.4125 H   0  0  0  0  0  0  0  0  0  0  0  0
   -2.7025    1.4717   -1.0960 H   0  0  0  0  0  0  0  0  0  0  0  0
  1  2  1  0
  2  3  2  0
  3  4  1  0
  4  5  1  0
  4  6  2  0
  6  7  1  0
  7  8  1  0
  8  9  1  0
  9 10  1  0
 10 11  2  0
 10 12  1  0
  9 13  1  0
 13 14  1  1
 14 15  2  0
 15 16  1  0
 16 17  2  0
 17 18  1  0
 18 19  2  0
 13 20  1  0
 20 21  1  0
 21 22  1  0
 22 23  2  0
 22 24  1  0
 24 25  1  0
 25 26  1  0
 26 27  2  0
 27 28  1  0
 27 29  1  0
 29 30  2  0
 30 31  1  0
 30 32  1  0
 32 33  2  0
 33 34  1  0
 24 35  1  0
 35 36  2  0
 36 37  1  0
 37 38  2  0
 38 39  1  0
 39 40  2  0
  7 41  2  0
 41  2  1  0
 40 13  1  0
 19 14  1  0
 33 26  1  0
 40 35  1  0
  1 42  1  0
  1 43  1  0
  1 44  1  0
  3 45  1  0
  5 46  1  0
  5 47  1  0
  5 48  1  0
  6 49  1  0
  9 50  1  6
 12 51  1  0
 15 52  1  0
 16 53  1  0
 17 54  1  0
 18 55  1  0
 19 56  1  0
 20 57  1  0
 21 58  1  0
 21 59  1  0
 25 60  1  0
 25 61  1  0
 29 62  1  0
 32 63  1  0
 36 64  1  0
 37 65  1  0
 38 66  1  0
 39 67  1  0
 41 68  1  0
M  END
$$$$
