
     RDKit          3D

 93 99  0  0  0  0  0  0  0  0999 V2000
    7.2873   -5.9356   -0.5133 C   0  0  0  0  0  0  0  0  0  0  0  0
    6.8022   -4.8167   -0.5040 C   0  0  0  0  0  0  0  0  0  0  0  0
    6.2161   -3.5058   -0.5094 C   0  0  0  0  0  0  0  0  0  0  0  0
    5.0010   -3.2984    0.0933 C   0  0  0  0  0  0  0  0  0  0  0  0
    4.4133   -2.0209    0.1196 C   0  0  0  0  0  0  0  0  0  0  0  0
    3.1266   -1.8451    0.6968 N   0  0  0  0  0  0  0  0  0  0  0  0
    2.6870   -0.5563    1.1706 C   0  0  0  0  0  0  0  0  0  0  0  0
    3.5400    0.4304    1.4223 N   0  0  0  0  0  0  0  0  0  0  0  0
    3.1303    1.6313    1.8372 C   0  0  0  0  0  0  0  0  0  0  0  0
    1.7957    1.9002    2.0211 C   0  0  0  0  0  0  0  0  0  0  0  0
    0.8747    0.8742    1.7600 C   0  0  0  0  0  0  0  0  0  0  0  0
   -0.4799    1.1332    1.9316 O   0  0  0  0  0  0  0  0  0  0  0  0
   -1.4977    0.2831    1.6332 C   0  0  0  0  0  0  0  0  0  0  0  0
   -2.3505   -0.2407    2.6224 C   0  0  0  0  0  0  0  0  0  0  0  0
   -3.3726   -1.0937    2.2786 C   0  0  0  0  0  0  0  0  0  0  0  0
   -3.6091   -1.4702    0.9757 C   0  0  0  0  0  0  0  0  0  0  0  0
   -4.6826   -2.3389    0.6364 N   0  0  0  0  0  0  0  0  0  0  0  0
   -5.9826   -1.7780    0.3321 C   0  0  0  0  0  0  0  0  0  0  0  0
   -6.0734   -0.5407    0.3929 O   0  0  0  0  0  0  0  0  0  0  0  0
   -7.0972   -2.5591   -0.0135 N   0  0  0  0  0  0  0  0  0  0  0  0
   -8.3944   -2.1199   -0.3202 C   0  0  0  0  0  0  0  0  0  0  0  0
   -9.3494   -3.0793   -0.6524 C   0  0  0  0  0  0  0  0  0  0  0  0
  -10.6262   -2.7159   -0.9564 C   0  0  0  0  0  0  0  0  0  0  0  0
  -11.5487   -3.6666   -1.2788 F   0  0  0  0  0  0  0  0  0  0  0  0
  -11.0205   -1.3748   -0.9451 C   0  0  0  0  0  0  0  0  0  0  0  0
  -10.0977   -0.4016   -0.6198 C   0  0  0  0  0  0  0  0  0  0  0  0
  -10.4993    0.9540   -0.6043 N   0  0  0  0  0  0  0  0  0  0  0  0
  -11.8205    1.3699   -1.0412 C   0  0  0  0  0  0  0  0  0  0  0  0
  -11.7683    2.8112   -1.4353 C   0  0  0  0  0  0  0  0  0  0  0  0
  -11.3102    3.6664   -0.4580 O   0  0  0  0  0  0  0  0  0  0  0  0
  -10.4962    3.0701    0.4774 C   0  0  0  0  0  0  0  0  0  0  0  0
   -9.6132    1.9960   -0.1400 C   0  0  0  0  0  0  0  0  0  0  0  0
   -8.8109   -0.8103   -0.3170 C   0  0  0  0  0  0  0  0  0  0  0  0
   -2.7820   -0.9654   -0.0081 C   0  0  0  0  0  0  0  0  0  0  0  0
   -3.0205   -1.3255   -1.3189 C   0  0  0  0  0  0  0  0  0  0  0  0
   -2.2094   -0.8098   -2.2914 C   0  0  0  0  0  0  0  0  0  0  0  0
   -1.1719    0.0462   -2.0350 C   0  0  0  0  0  0  0  0  0  0  0  0
   -0.9583    0.3899   -0.6991 C   0  0  0  0  0  0  0  0  0  0  0  0
   -1.7448   -0.1001    0.3386 C   0  0  0  0  0  0  0  0  0  0  0  0
    1.3699   -0.3035    1.3489 N   0  0  0  0  0  0  0  0  0  0  0  0
    5.1109   -1.0071   -0.4817 C   0  0  0  0  0  0  0  0  0  0  0  0
    6.3461   -1.1728   -1.1055 C   0  0  0  0  0  0  0  0  0  0  0  0
    7.0407   -0.0297   -1.7049 C   0  0  0  0  0  0  0  0  0  0  0  0
    7.2340    0.0264   -2.9482 O   0  0  0  0  0  0  0  0  0  0  0  0
    7.5212    1.0466   -0.9090 N   0  0  0  0  0  0  0  0  0  0  0  0
    8.1922    2.1934   -1.4418 C   0  0  0  0  0  0  0  0  0  0  0  0
    8.7256    3.1557   -0.4528 C   0  0  0  0  0  0  0  0  0  0  0  0
    9.7305    2.7681    0.4308 N   0  0  0  0  0  0  0  0  0  0  0  0
    9.5326    1.8491    1.4637 C   0  0  0  0  0  0  0  0  0  0  0  0
   10.0256    0.4614    1.2255 C   0  0  0  0  0  0  0  0  0  0  0  0
   10.8702    0.2539    0.1941 O   0  0  0  0  0  0  0  0  0  0  0  0
   11.3811    1.2566   -0.5183 C   0  0  0  0  0  0  0  0  0  0  0  0
   11.0541    2.6438   -0.1374 C   0  0  0  0  0  0  0  0  0  0  0  0
    6.8755   -2.4331   -1.1048 C   0  0  0  0  0  0  0  0  0  0  0  0
    7.7115   -6.9184   -0.5058 H   0  0  0  0  0  0  0  0  0  0  0  0
    4.4515   -4.1120    0.5762 H   0  0  0  0  0  0  0  0  0  0  0  0
    2.4535   -2.6271    0.8043 H   0  0  0  0  0  0  0  0  0  0  0  0
    3.8245    2.4481    2.0431 H   0  0  0  0  0  0  0  0  0  0  0  0
    1.4261    2.8534    2.3550 H   0  0  0  0  0  0  0  0  0  0  0  0
   -2.1773    0.0416    3.6418 H   0  0  0  0  0  0  0  0  0  0  0  0
   -4.0521   -1.5208    3.0276 H   0  0  0  0  0  0  0  0  0  0  0  0
   -4.5508   -3.3509    0.6061 H   0  0  0  0  0  0  0  0  0  0  0  0
   -6.9151   -3.6032   -0.0401 H   0  0  0  0  0  0  0  0  0  0  0  0
   -9.0961   -4.1399   -0.6736 H   0  0  0  0  0  0  0  0  0  0  0  0
  -12.0345   -1.1026   -1.1875 H   0  0  0  0  0  0  0  0  0  0  0  0
  -12.1157    0.8018   -1.9608 H   0  0  0  0  0  0  0  0  0  0  0  0
  -12.5608    1.2672   -0.2306 H   0  0  0  0  0  0  0  0  0  0  0  0
  -11.1708    2.9998   -2.3626 H   0  0  0  0  0  0  0  0  0  0  0  0
  -12.8303    3.1044   -1.6752 H   0  0  0  0  0  0  0  0  0  0  0  0
   -9.8247    3.8483    0.9014 H   0  0  0  0  0  0  0  0  0  0  0  0
  -11.0145    2.6091    1.3293 H   0  0  0  0  0  0  0  0  0  0  0  0
   -9.0138    2.3896   -0.9628 H   0  0  0  0  0  0  0  0  0  0  0  0
   -9.0111    1.5874    0.7010 H   0  0  0  0  0  0  0  0  0  0  0  0
   -8.1298   -0.0186   -0.0769 H   0  0  0  0  0  0  0  0  0  0  0  0
   -3.8443   -2.0030   -1.5085 H   0  0  0  0  0  0  0  0  0  0  0  0
   -2.3895   -1.0904   -3.3348 H   0  0  0  0  0  0  0  0  0  0  0  0
   -0.5074    0.4762   -2.7637 H   0  0  0  0  0  0  0  0  0  0  0  0
   -0.1664    1.0729   -0.4268 H   0  0  0  0  0  0  0  0  0  0  0  0
    4.7018   -0.0170   -0.4972 H   0  0  0  0  0  0  0  0  0  0  0  0
    7.3503    0.9737    0.1052 H   0  0  0  0  0  0  0  0  0  0  0  0
    8.9571    1.8159   -2.1645 H   0  0  0  0  0  0  0  0  0  0  0  0
    7.3912    2.7410   -2.0533 H   0  0  0  0  0  0  0  0  0  0  0  0
    7.8553    3.5399    0.1682 H   0  0  0  0  0  0  0  0  0  0  0  0
    9.0550    4.0713   -1.0011 H   0  0  0  0  0  0  0  0  0  0  0  0
    8.5064    1.9165    1.8664 H   0  0  0  0  0  0  0  0  0  0  0  0
   10.1591    2.2355    2.3476 H   0  0  0  0  0  0  0  0  0  0  0  0
   10.5222    0.0413    2.1507 H   0  0  0  0  0  0  0  0  0  0  0  0
    9.1385   -0.1970    1.1005 H   0  0  0  0  0  0  0  0  0  0  0  0
   11.1199    1.1195   -1.6009 H   0  0  0  0  0  0  0  0  0  0  0  0
   12.4996    1.1706   -0.5150 H   0  0  0  0  0  0  0  0  0  0  0  0
   11.1772    3.3159   -1.0211 H   0  0  0  0  0  0  0  0  0  0  0  0
   11.7766    2.9934    0.6268 H   0  0  0  0  0  0  0  0  0  0  0  0
    7.8313   -2.6287   -1.5726 H   0  0  0  0  0  0  0  0  0  0  0  0
  1  2  3  0
  2  3  1  0
  3  4  2  0
  4  5  1  0
  5  6  1  0
  6  7  1  0
  7  8  2  0
  8  9  1  0
  9 10  2  0
 10 11  1  0
 11 12  1  0
 12 13  1  0
 13 14  2  0
 14 15  1  0
 15 16  2  0
 16 17  1  0
 17 18  1  0
 18 19  2  0
 18 20  1  0
 20 21  1  0
 21 22  2  0
 22 23  1  0
 23 24  1  0
 23 25  2  0
 25 26  1  0
 26 27  1  0
 27 28  1  0
 28 29  1  0
 29 30  1  0
 30 31  1  0
 31 32  1  0
 26 33  2  0
 16 34  1  0
 34 35  2  0
 35 36  1  0
 36 37  2  0
 37 38  1  0
 38 39  2  0
 11 40  2  0
  5 41  2  0
 41 42  1  0
 42 43  1  0
 43 44  2  0
 43 45  1  0
 45 46  1  0
 46 47  1  0
 47 48  1  0
 48 49  1  0
 49 50  1  0
 50 51  1  0
 51 52  1  0
 52 53  1  0
 42 54  2  0
 54  3  1  0
 40  7  1  0
 53 48  1  0
 39 13  1  0
 33 21  1  0
 39 34  1  0
 32 27  1  0
  1 55  1  0
  4 56  1  0
  6 57  1  0
  9 58  1  0
 10 59  1  0
 14 60  1  0
 15 61  1  0
 17 62  1  0
 20 63  1  0
 22 64  1  0
 25 65  1  0
 28 66  1  0
 28 67  1  0
 29 68  1  0
 29 69  1  0
 31 70  1  0
 31 71  1  0
 32 72  1  0
 32 73  1  0
 33 74  1  0
 35 75  1  0
 36 76  1  0
 37 77  1  0
 38 78  1  0
 41 79  1  0
 45 80  1  0
 46 81  1  0
 46 82  1  0
 47 83  1  0
 47 84  1  0
 49 85  1  0
 49 86  1  0
 50 87  1  0
 50 88  1  0
 52 89  1  0
 52 90  1  0
 53 91  1  0
 53 92  1  0
 54 93  1  0
M  END
$$$$
