@<TRIPOS>MOLECULE
*****
 93 99 0 0 0
SMALL
GASTEIGER

@<TRIPOS>ATOM
      1 C           7.2873   -5.9356   -0.5133 C.1     1  UNL1       -0.1139
      2 C           6.8022   -4.8167   -0.5040 C.1     1  UNL1       -0.0696
      3 C           6.2161   -3.5058   -0.5094 C.ar    1  UNL1        0.0271
      4 C           5.0010   -3.2984    0.0933 C.ar    1  UNL1       -0.0250
      5 C           4.4133   -2.0209    0.1196 C.ar    1  UNL1        0.0354
      6 N           3.1266   -1.8451    0.6968 N.pl3   1  UNL1       -0.2835
      7 C           2.6870   -0.5563    1.1706 C.ar    1  UNL1        0.2226
      8 N           3.5400    0.4304    1.4223 N.ar    1  UNL1       -0.2225
      9 C           3.1303    1.6313    1.8372 C.ar    1  UNL1        0.0362
     10 C           1.7957    1.9002    2.0211 C.ar    1  UNL1        0.0186
     11 C           0.8747    0.8742    1.7600 C.ar    1  UNL1        0.2249
     12 O          -0.4799    1.1332    1.9316 O.3     1  UNL1       -0.4373
     13 C          -1.4977    0.2831    1.6332 C.ar    1  UNL1        0.1381
     14 C          -2.3505   -0.2407    2.6224 C.ar    1  UNL1       -0.0169
     15 C          -3.3726   -1.0937    2.2786 C.ar    1  UNL1       -0.0363
     16 C          -3.6091   -1.4702    0.9757 C.ar    1  UNL1        0.0427
     17 N          -4.6826   -2.3389    0.6364 N.am    1  UNL1       -0.2686
     18 C          -5.9826   -1.7780    0.3321 C.2     1  UNL1        0.3081
     19 O          -6.0734   -0.5407    0.3929 O.2     1  UNL1       -0.2522
     20 N          -7.0972   -2.5591   -0.0135 N.am    1  UNL1       -0.2691
     21 C          -8.3944   -2.1199   -0.3202 C.ar    1  UNL1        0.0392
     22 C          -9.3494   -3.0793   -0.6524 C.ar    1  UNL1       -0.0050
     23 C         -10.6262   -2.7159   -0.9564 C.ar    1  UNL1        0.1269
     24 F         -11.5487   -3.6666   -1.2788 F       1  UNL1       -0.2054
     25 C         -11.0205   -1.3748   -0.9451 C.ar    1  UNL1       -0.0053
     26 C         -10.0977   -0.4016   -0.6198 C.ar    1  UNL1        0.0343
     27 N         -10.4993    0.9540   -0.6043 N.pl3   1  UNL1       -0.3254
     28 C         -11.8205    1.3699   -1.0412 C.3     1  UNL1        0.0357
     29 C         -11.7683    2.8112   -1.4353 C.3     1  UNL1        0.0634
     30 O         -11.3102    3.6664   -0.4580 O.3     1  UNL1       -0.3767
     31 C         -10.4962    3.0701    0.4774 C.3     1  UNL1        0.0634
     32 C          -9.6132    1.9960   -0.1400 C.3     1  UNL1        0.0357
     33 C          -8.8109   -0.8103   -0.3170 C.ar    1  UNL1       -0.0192
     34 C          -2.7820   -0.9654   -0.0081 C.ar    1  UNL1        0.0069
     35 C          -3.0205   -1.3255   -1.3189 C.ar    1  UNL1       -0.0521
     36 C          -2.2094   -0.8098   -2.2914 C.ar    1  UNL1       -0.0611
     37 C          -1.1719    0.0462   -2.0350 C.ar    1  UNL1       -0.0611
     38 C          -0.9583    0.3899   -0.6991 C.ar    1  UNL1       -0.0505
     39 C          -1.7448   -0.1001    0.3386 C.ar    1  UNL1        0.0262
     40 N           1.3699   -0.3035    1.3489 N.ar    1  UNL1       -0.1789
     41 C           5.1109   -1.0071   -0.4817 C.ar    1  UNL1       -0.0283
     42 C           6.3461   -1.1728   -1.1055 C.ar    1  UNL1        0.0396
     43 C           7.0407   -0.0297   -1.7049 C.2     1  UNL1        0.2442
     44 O           7.2340    0.0264   -2.9482 O.2     1  UNL1       -0.2702
     45 N           7.5212    1.0466   -0.9090 N.am    1  UNL1       -0.3101
     46 C           8.1922    2.1934   -1.4418 C.3     1  UNL1        0.0247
     47 C           8.7256    3.1557   -0.4528 C.3     1  UNL1        0.0146
     48 N           9.7305    2.7681    0.4308 N.3     1  UNL1       -0.2965
     49 C           9.5326    1.8491    1.4637 C.3     1  UNL1        0.0225
     50 C          10.0256    0.4614    1.2255 C.3     1  UNL1        0.0604
     51 O          10.8702    0.2539    0.1941 O.3     1  UNL1       -0.3772
     52 C          11.3811    1.2566   -0.5183 C.3     1  UNL1        0.0604
     53 C          11.0541    2.6438   -0.1374 C.3     1  UNL1        0.0225
     54 C           6.8755   -2.4331   -1.1048 C.ar    1  UNL1       -0.0341
     55 H           7.7115   -6.9184   -0.5058 H       1  UNL1        0.1232
     56 H           4.4515   -4.1120    0.5762 H       1  UNL1        0.0648
     57 H           2.4535   -2.6271    0.8043 H       1  UNL1        0.1550
     58 H           3.8245    2.4481    2.0431 H       1  UNL1        0.0832
     59 H           1.4261    2.8534    2.3550 H       1  UNL1        0.0686
     60 H          -2.1773    0.0416    3.6418 H       1  UNL1        0.0655
     61 H          -4.0521   -1.5208    3.0276 H       1  UNL1        0.0637
     62 H          -4.5508   -3.3509    0.6061 H       1  UNL1        0.1564
     63 H          -6.9151   -3.6032   -0.0401 H       1  UNL1        0.1564
     64 H          -9.0961   -4.1399   -0.6736 H       1  UNL1        0.0665
     65 H         -12.0345   -1.1026   -1.1875 H       1  UNL1        0.0665
     66 H         -12.1157    0.8018   -1.9608 H       1  UNL1        0.0486
     67 H         -12.5608    1.2672   -0.2306 H       1  UNL1        0.0486
     68 H         -11.1708    2.9998   -2.3626 H       1  UNL1        0.0575
     69 H         -12.8303    3.1044   -1.6752 H       1  UNL1        0.0575
     70 H          -9.8247    3.8483    0.9014 H       1  UNL1        0.0575
     71 H         -11.0145    2.6091    1.3293 H       1  UNL1        0.0575
     72 H          -9.0138    2.3896   -0.9628 H       1  UNL1        0.0486
     73 H          -9.0111    1.5874    0.7010 H       1  UNL1        0.0486
     74 H          -8.1298   -0.0186   -0.0769 H       1  UNL1        0.0655
     75 H          -3.8443   -2.0030   -1.5085 H       1  UNL1        0.0624
     76 H          -2.3895   -1.0904   -3.3348 H       1  UNL1        0.0618
     77 H          -0.5074    0.4762   -2.7637 H       1  UNL1        0.0618
     78 H          -0.1664    1.0729   -0.4268 H       1  UNL1        0.0625
     79 H           4.7018   -0.0170   -0.4972 H       1  UNL1        0.0644
     80 H           7.3503    0.9737    0.1052 H       1  UNL1        0.1490
     81 H           8.9571    1.8159   -2.1645 H       1  UNL1        0.0475
     82 H           7.3912    2.7410   -2.0533 H       1  UNL1        0.0475
     83 H           7.8553    3.5399    0.1682 H       1  UNL1        0.0442
     84 H           9.0550    4.0713   -1.0011 H       1  UNL1        0.0442
     85 H           8.5064    1.9165    1.8664 H       1  UNL1        0.0449
     86 H          10.1591    2.2355    2.3476 H       1  UNL1        0.0449
     87 H          10.5222    0.0413    2.1507 H       1  UNL1        0.0572
     88 H           9.1385   -0.1970    1.1005 H       1  UNL1        0.0572
     89 H          11.1199    1.1195   -1.6009 H       1  UNL1        0.0572
     90 H          12.4996    1.1706   -0.5150 H       1  UNL1        0.0572
     91 H          11.1772    3.3159   -1.0211 H       1  UNL1        0.0449
     92 H          11.7766    2.9934    0.6268 H       1  UNL1        0.0449
     93 H           7.8313   -2.6287   -1.5726 H       1  UNL1        0.0637
@<TRIPOS>BOND
     1     1     2    3
     2     2     3    1
     3     3     4   ar
     4     4     5   ar
     5     5     6    1
     6     6     7    1
     7     7     8   ar
     8     8     9   ar
     9     9    10   ar
    10    10    11   ar
    11    11    12    1
    12    12    13    1
    13    13    14   ar
    14    14    15   ar
    15    15    16   ar
    16    16    17    1
    17    17    18   am
    18    18    19    2
    19    18    20   am
    20    20    21    1
    21    21    22   ar
    22    22    23   ar
    23    23    24    1
    24    23    25   ar
    25    25    26   ar
    26    26    27    1
    27    27    28    1
    28    28    29    1
    29    29    30    1
    30    30    31    1
    31    31    32    1
    32    26    33   ar
    33    16    34   ar
    34    34    35   ar
    35    35    36   ar
    36    36    37   ar
    37    37    38   ar
    38    38    39   ar
    39    11    40   ar
    40     5    41   ar
    41    41    42   ar
    42    42    43    1
    43    43    44    2
    44    43    45   am
    45    45    46    1
    46    46    47    1
    47    47    48    1
    48    48    49    1
    49    49    50    1
    50    50    51    1
    51    51    52    1
    52    52    53    1
    53    42    54   ar
    54    54     3   ar
    55    40     7   ar
    56    53    48    1
    57    39    13   ar
    58    33    21   ar
    59    39    34   ar
    60    32    27    1
    61     1    55    1
    62     4    56    1
    63     6    57    1
    64     9    58    1
    65    10    59    1
    66    14    60    1
    67    15    61    1
    68    17    62    1
    69    20    63    1
    70    22    64    1
    71    25    65    1
    72    28    66    1
    73    28    67    1
    74    29    68    1
    75    29    69    1
    76    31    70    1
    77    31    71    1
    78    32    72    1
    79    32    73    1
    80    33    74    1
    81    35    75    1
    82    36    76    1
    83    37    77    1
    84    38    78    1
    85    41    79    1
    86    45    80    1
    87    46    81    1
    88    46    82    1
    89    47    83    1
    90    47    84    1
    91    49    85    1
    92    49    86    1
    93    50    87    1
    94    50    88    1
    95    52    89    1
    96    52    90    1
    97    53    91    1
    98    53    92    1
    99    54    93    1
