@<TRIPOS>MOLECULE
*****
 82 85 0 0 0
SMALL
GASTEIGER

@<TRIPOS>ATOM
      1 C           0.0778    6.8432   -2.3687 C.3     1  UNL1       -0.0524
      2 C           0.1848    5.3717   -2.6419 C.3     1  UNL1       -0.0039
      3 N           0.8315    4.5947   -1.6405 N.3     1  UNL1       -0.3014
      4 C           2.2235    4.7869   -1.4668 C.3     1  UNL1       -0.0039
      5 C           2.5436    6.1474   -0.8947 C.3     1  UNL1       -0.0524
      6 C           0.3280    3.2717   -1.5536 C.3     1  UNL1        0.0147
      7 C           0.9064    2.3773   -0.5243 C.3     1  UNL1        0.0278
      8 N           0.2599    1.0406   -0.5609 N.am    1  UNL1       -0.2945
      9 C           0.7748   -0.0012   -1.3920 C.3     1  UNL1        0.0398
     10 C           1.8426   -0.8364   -0.8443 C.ar    1  UNL1       -0.0301
     11 C           3.1876   -0.4410   -0.9489 C.ar    1  UNL1       -0.0565
     12 C           4.1729   -1.2566   -0.4516 C.ar    1  UNL1       -0.0537
     13 C           3.9341   -2.4625    0.1561 C.ar    1  UNL1       -0.0179
     14 C           5.0352   -3.2880    0.6520 C.ar    1  UNL1       -0.0179
     15 C           4.9631   -4.6682    0.6788 C.ar    1  UNL1       -0.0535
     16 C           6.0194   -5.4049    1.1416 C.ar    1  UNL1       -0.0495
     17 C           7.1669   -4.7859    1.5865 C.ar    1  UNL1        0.0548
     18 C           8.3125   -5.5914    2.0856 C.3     1  UNL1        0.4174
     19 F           9.4968   -4.9778    1.6717 F       1  UNL1       -0.1659
     20 F           8.2525   -6.8927    1.6213 F       1  UNL1       -0.1659
     21 F           8.3056   -5.5771    3.4641 F       1  UNL1       -0.1659
     22 C           7.2417   -3.3967    1.5607 C.ar    1  UNL1       -0.0495
     23 C           6.1769   -2.6477    1.0940 C.ar    1  UNL1       -0.0535
     24 C           2.6111   -2.8440    0.2548 C.ar    1  UNL1       -0.0537
     25 C           1.5797   -2.0401   -0.2398 C.ar    1  UNL1       -0.0565
     26 C          -0.8834    0.8727    0.2457 C.2     1  UNL1        0.2357
     27 O          -1.2829    1.8821    0.9249 O.2     1  UNL1       -0.2736
     28 C          -1.6527   -0.3883    0.3565 C.3     1  UNL1        0.1015
     29 N          -2.8757   -0.1384    1.1265 N.ar    1  UNL1       -0.3169
     30 C          -2.9046   -0.2450    2.4573 C.ar    1  UNL1        0.0261
     31 C          -4.0417   -0.0025    3.1970 C.ar    1  UNL1        0.0902
     32 S          -4.0568   -0.1469    4.9535 S.3     1  UNL1       -0.1219
     33 C          -2.4419   -0.6281    5.6206 C.3     1  UNL1       -0.0133
     34 C          -5.1745    0.3610    2.5168 C.ar    1  UNL1        0.2873
     35 O          -6.2308    0.5916    3.1470 O.2     1  UNL1       -0.2646
     36 N          -5.1102    0.4603    1.1593 N.ar    1  UNL1       -0.1841
     37 C          -4.0005    0.2220    0.4560 C.ar    1  UNL1        0.1733
     38 S          -3.9368    0.3488   -1.3274 S.3     1  UNL1       -0.0829
     39 C          -4.3791   -1.2862   -2.0041 C.3     1  UNL1        0.0262
     40 C          -5.7990   -1.5410   -1.6997 C.ar    1  UNL1       -0.0370
     41 C          -6.7328   -1.1327   -2.6292 C.ar    1  UNL1       -0.0551
     42 C          -8.0689   -1.3579   -2.3673 C.ar    1  UNL1       -0.0262
     43 C          -8.4333   -1.9759   -1.2016 C.ar    1  UNL1        0.1234
     44 F          -9.7595   -2.1895   -0.9592 F       1  UNL1       -0.2055
     45 C          -7.5027   -2.3784   -0.2835 C.ar    1  UNL1       -0.0262
     46 C          -6.1595   -2.1621   -0.5272 C.ar    1  UNL1       -0.0551
     47 H           0.7535    7.3923   -3.0891 H       1  UNL1        0.0242
     48 H          -0.9469    7.2381   -2.6585 H       1  UNL1        0.0242
     49 H           0.2139    7.1486   -1.3342 H       1  UNL1        0.0242
     50 H           0.5975    5.1802   -3.6749 H       1  UNL1        0.0424
     51 H          -0.8714    4.9752   -2.7158 H       1  UNL1        0.0424
     52 H           2.5919    4.0583   -0.6965 H       1  UNL1        0.0424
     53 H           2.8131    4.7091   -2.4057 H       1  UNL1        0.0424
     54 H           1.9869    6.3739    0.0454 H       1  UNL1        0.0242
     55 H           2.5758    6.9598   -1.6214 H       1  UNL1        0.0242
     56 H           3.6179    6.0538   -0.5338 H       1  UNL1        0.0242
     57 H           0.4339    2.8275   -2.5884 H       1  UNL1        0.0442
     58 H          -0.7869    3.3403   -1.4097 H       1  UNL1        0.0442
     59 H           0.7165    2.8079    0.4822 H       1  UNL1        0.0477
     60 H           1.9681    2.1678   -0.5918 H       1  UNL1        0.0477
     61 H           1.1148    0.4701   -2.3465 H       1  UNL1        0.0514
     62 H          -0.0902   -0.6925   -1.6274 H       1  UNL1        0.0514
     63 H           3.4234    0.5154   -1.4336 H       1  UNL1        0.0621
     64 H           5.1965   -0.8947   -0.5626 H       1  UNL1        0.0624
     65 H           4.0334   -5.1061    0.3156 H       1  UNL1        0.0624
     66 H           5.9730   -6.4748    1.1654 H       1  UNL1        0.0623
     67 H           8.1680   -2.9437    1.9220 H       1  UNL1        0.0623
     68 H           6.2660   -1.5683    1.0864 H       1  UNL1        0.0624
     69 H           2.3728   -3.7953    0.7305 H       1  UNL1        0.0624
     70 H           0.6004   -2.4315   -0.1253 H       1  UNL1        0.0621
     71 H          -1.8763   -0.7612   -0.6541 H       1  UNL1        0.0588
     72 H          -1.0286   -1.1478    0.8689 H       1  UNL1        0.0588
     73 H          -2.0143   -0.5281    2.9622 H       1  UNL1        0.0823
     74 H          -1.7888    0.2891    5.5265 H       1  UNL1        0.0344
     75 H          -2.0069   -1.4811    5.0907 H       1  UNL1        0.0344
     76 H          -2.5483   -0.7755    6.7141 H       1  UNL1        0.0344
     77 H          -4.2342   -1.2887   -3.1033 H       1  UNL1        0.0429
     78 H          -3.7454   -2.0813   -1.5173 H       1  UNL1        0.0429
     79 H          -6.4586   -0.6363   -3.5698 H       1  UNL1        0.0621
     80 H          -8.7969   -1.0355   -3.0980 H       1  UNL1        0.0646
     81 H          -7.7784   -2.8653    0.6387 H       1  UNL1        0.0646
     82 H          -5.4467   -2.4869    0.2084 H       1  UNL1        0.0621
@<TRIPOS>BOND
     1     1     2    1
     2     2     3    1
     3     3     4    1
     4     4     5    1
     5     3     6    1
     6     6     7    1
     7     7     8    1
     8     8     9    1
     9     9    10    1
    10    10    11   ar
    11    11    12   ar
    12    12    13   ar
    13    13    14    1
    14    14    15   ar
    15    15    16   ar
    16    16    17   ar
    17    17    18    1
    18    18    19    1
    19    18    20    1
    20    18    21    1
    21    17    22   ar
    22    22    23   ar
    23    13    24   ar
    24    24    25   ar
    25     8    26   am
    26    26    27    2
    27    26    28    1
    28    28    29    1
    29    29    30   ar
    30    30    31   ar
    31    31    32    1
    32    32    33    1
    33    31    34   ar
    34    34    35    2
    35    34    36   ar
    36    36    37   ar
    37    37    38    1
    38    38    39    1
    39    39    40    1
    40    40    41   ar
    41    41    42   ar
    42    42    43   ar
    43    43    44    1
    44    43    45   ar
    45    45    46   ar
    46    25    10   ar
    47    37    29   ar
    48    46    40   ar
    49    23    14   ar
    50     1    47    1
    51     1    48    1
    52     1    49    1
    53     2    50    1
    54     2    51    1
    55     4    52    1
    56     4    53    1
    57     5    54    1
    58     5    55    1
    59     5    56    1
    60     6    57    1
    61     6    58    1
    62     7    59    1
    63     7    60    1
    64     9    61    1
    65     9    62    1
    66    11    63    1
    67    12    64    1
    68    15    65    1
    69    16    66    1
    70    22    67    1
    71    23    68    1
    72    24    69    1
    73    25    70    1
    74    28    71    1
    75    28    72    1
    76    30    73    1
    77    33    74    1
    78    33    75    1
    79    33    76    1
    80    39    77    1
    81    39    78    1
    82    41    79    1
    83    42    80    1
    84    45    81    1
    85    46    82    1
