
     RDKit          3D

 82 85  0  0  0  0  0  0  0  0999 V2000
    0.0778    6.8432   -2.3687 C   0  0  0  0  0  0  0  0  0  0  0  0
    0.1848    5.3717   -2.6419 C   0  0  0  0  0  0  0  0  0  0  0  0
    0.8315    4.5947   -1.6405 N   0  0  0  0  0  0  0  0  0  0  0  0
    2.2235    4.7869   -1.4668 C   0  0  0  0  0  0  0  0  0  0  0  0
    2.5436    6.1474   -0.8947 C   0  0  0  0  0  0  0  0  0  0  0  0
    0.3280    3.2717   -1.5536 C   0  0  0  0  0  0  0  0  0  0  0  0
    0.9064    2.3773   -0.5243 C   0  0  0  0  0  0  0  0  0  0  0  0
    0.2599    1.0406   -0.5609 N   0  0  0  0  0  0  0  0  0  0  0  0
    0.7748   -0.0012   -1.3920 C   0  0  0  0  0  0  0  0  0  0  0  0
    1.8426   -0.8364   -0.8443 C   0  0  0  0  0  0  0  0  0  0  0  0
    3.1876   -0.4410   -0.9489 C   0  0  0  0  0  0  0  0  0  0  0  0
    4.1729   -1.2566   -0.4516 C   0  0  0  0  0  0  0  0  0  0  0  0
    3.9341   -2.4625    0.1561 C   0  0  0  0  0  0  0  0  0  0  0  0
    5.0352   -3.2880    0.6520 C   0  0  0  0  0  0  0  0  0  0  0  0
    4.9631   -4.6682    0.6788 C   0  0  0  0  0  0  0  0  0  0  0  0
    6.0194   -5.4049    1.1416 C   0  0  0  0  0  0  0  0  0  0  0  0
    7.1669   -4.7859    1.5865 C   0  0  0  0  0  0  0  0  0  0  0  0
    8.3125   -5.5914    2.0856 C   0  0  0  0  0  0  0  0  0  0  0  0
    9.4968   -4.9778    1.6717 F   0  0  0  0  0  0  0  0  0  0  0  0
    8.2525   -6.8927    1.6213 F   0  0  0  0  0  0  0  0  0  0  0  0
    8.3056   -5.5771    3.4641 F   0  0  0  0  0  0  0  0  0  0  0  0
    7.2417   -3.3967    1.5607 C   0  0  0  0  0  0  0  0  0  0  0  0
    6.1769   -2.6477    1.0940 C   0  0  0  0  0  0  0  0  0  0  0  0
    2.6111   -2.8440    0.2548 C   0  0  0  0  0  0  0  0  0  0  0  0
    1.5797   -2.0401   -0.2398 C   0  0  0  0  0  0  0  0  0  0  0  0
   -0.8834    0.8727    0.2457 C   0  0  0  0  0  0  0  0  0  0  0  0
   -1.2829    1.8821    0.9249 O   0  0  0  0  0  0  0  0  0  0  0  0
   -1.6527   -0.3883    0.3565 C   0  0  0  0  0  0  0  0  0  0  0  0
   -2.8757   -0.1384    1.1265 N   0  0  0  0  0  0  0  0  0  0  0  0
   -2.9046   -0.2450    2.4573 C   0  0  0  0  0  0  0  0  0  0  0  0
   -4.0417   -0.0025    3.1970 C   0  0  0  0  0  0  0  0  0  0  0  0
   -4.0568   -0.1469    4.9535 S   0  0  0  0  0  0  0  0  0  0  0  0
   -2.4419   -0.6281    5.6206 C   0  0  0  0  0  0  0  0  0  0  0  0
   -5.1745    0.3610    2.5168 C   0  0  0  0  0  0  0  0  0  0  0  0
   -6.2308    0.5916    3.1470 O   0  0  0  0  0  0  0  0  0  0  0  0
   -5.1102    0.4603    1.1593 N   0  0  0  0  0  0  0  0  0  0  0  0
   -4.0005    0.2220    0.4560 C   0  0  0  0  0  0  0  0  0  0  0  0
   -3.9368    0.3488   -1.3274 S   0  0  0  0  0  0  0  0  0  0  0  0
   -4.3791   -1.2862   -2.0041 C   0  0  0  0  0  0  0  0  0  0  0  0
   -5.7990   -1.5410   -1.6997 C   0  0  0  0  0  0  0  0  0  0  0  0
   -6.7328   -1.1327   -2.6292 C   0  0  0  0  0  0  0  0  0  0  0  0
   -8.0689   -1.3579   -2.3673 C   0  0  0  0  0  0  0  0  0  0  0  0
   -8.4333   -1.9759   -1.2016 C   0  0  0  0  0  0  0  0  0  0  0  0
   -9.7595   -2.1895   -0.9592 F   0  0  0  0  0  0  0  0  0  0  0  0
   -7.5027   -2.3784   -0.2835 C   0  0  0  0  0  0  0  0  0  0  0  0
   -6.1595   -2.1621   -0.5272 C   0  0  0  0  0  0  0  0  0  0  0  0
    0.7535    7.3923   -3.0891 H   0  0  0  0  0  0  0  0  0  0  0  0
   -0.9469    7.2381   -2.6585 H   0  0  0  0  0  0  0  0  0  0  0  0
    0.2139    7.1486   -1.3342 H   0  0  0  0  0  0  0  0  0  0  0  0
    0.5975    5.1802   -3.6749 H   0  0  0  0  0  0  0  0  0  0  0  0
   -0.8714    4.9752   -2.7158 H   0  0  0  0  0  0  0  0  0  0  0  0
    2.5919    4.0583   -0.6965 H   0  0  0  0  0  0  0  0  0  0  0  0
    2.8131    4.7091   -2.4057 H   0  0  0  0  0  0  0  0  0  0  0  0
    1.9869    6.3739    0.0454 H   0  0  0  0  0  0  0  0  0  0  0  0
    2.5758    6.9598   -1.6214 H   0  0  0  0  0  0  0  0  0  0  0  0
    3.6179    6.0538   -0.5338 H   0  0  0  0  0  0  0  0  0  0  0  0
    0.4339    2.8275   -2.5884 H   0  0  0  0  0  0  0  0  0  0  0  0
   -0.7869    3.3403   -1.4097 H   0  0  0  0  0  0  0  0  0  0  0  0
    0.7165    2.8079    0.4822 H   0  0  0  0  0  0  0  0  0  0  0  0
    1.9681    2.1678   -0.5918 H   0  0  0  0  0  0  0  0  0  0  0  0
    1.1148    0.4701   -2.3465 H   0  0  0  0  0  0  0  0  0  0  0  0
   -0.0902   -0.6925   -1.6274 H   0  0  0  0  0  0  0  0  0  0  0  0
    3.4234    0.5154   -1.4336 H   0  0  0  0  0  0  0  0  0  0  0  0
    5.1965   -0.8947   -0.5626 H   0  0  0  0  0  0  0  0  0  0  0  0
    4.0334   -5.1061    0.3156 H   0  0  0  0  0  0  0  0  0  0  0  0
    5.9730   -6.4748    1.1654 H   0  0  0  0  0  0  0  0  0  0  0  0
    8.1680   -2.9437    1.9220 H   0  0  0  0  0  0  0  0  0  0  0  0
    6.2660   -1.5683    1.0864 H   0  0  0  0  0  0  0  0  0  0  0  0
    2.3728   -3.7953    0.7305 H   0  0  0  0  0  0  0  0  0  0  0  0
    0.6004   -2.4315   -0.1253 H   0  0  0  0  0  0  0  0  0  0  0  0
   -1.8763   -0.7612   -0.6541 H   0  0  0  0  0  0  0  0  0  0  0  0
   -1.0286   -1.1478    0.8689 H   0  0  0  0  0  0  0  0  0  0  0  0
   -2.0143   -0.5281    2.9622 H   0  0  0  0  0  0  0  0  0  0  0  0
   -1.7888    0.2891    5.5265 H   0  0  0  0  0  0  0  0  0  0  0  0
   -2.0069   -1.4811    5.0907 H   0  0  0  0  0  0  0  0  0  0  0  0
   -2.5483   -0.7755    6.7141 H   0  0  0  0  0  0  0  0  0  0  0  0
   -4.2342   -1.2887   -3.1033 H   0  0  0  0  0  0  0  0  0  0  0  0
   -3.7454   -2.0813   -1.5173 H   0  0  0  0  0  0  0  0  0  0  0  0
   -6.4586   -0.6363   -3.5698 H   0  0  0  0  0  0  0  0  0  0  0  0
   -8.7969   -1.0355   -3.0980 H   0  0  0  0  0  0  0  0  0  0  0  0
   -7.7784   -2.8653    0.6387 H   0  0  0  0  0  0  0  0  0  0  0  0
   -5.4467   -2.4869    0.2084 H   0  0  0  0  0  0  0  0  0  0  0  0
  1  2  1  0
  2  3  1  0
  3  4  1  0
  4  5  1  0
  3  6  1  0
  6  7  1  0
  7  8  1  0
  8  9  1  0
  9 10  1  0
 10 11  2  0
 11 12  1  0
 12 13  2  0
 13 14  1  0
 14 15  2  0
 15 16  1  0
 16 17  2  0
 17 18  1  0
 18 19  1  0
 18 20  1  0
 18 21  1  0
 17 22  1  0
 22 23  2  0
 13 24  1  0
 24 25  2  0
  8 26  1  0
 26 27  2  0
 26 28  1  0
 28 29  1  0
 29 30  1  0
 30 31  2  0
 31 32  1  0
 32 33  1  0
 31 34  1  0
 34 35  2  0
 34 36  1  0
 36 37  2  0
 37 38  1  0
 38 39  1  0
 39 40  1  0
 40 41  2  0
 41 42  1  0
 42 43  2  0
 43 44  1  0
 43 45  1  0
 45 46  2  0
 25 10  1  0
 37 29  1  0
 46 40  1  0
 23 14  1  0
  1 47  1  0
  1 48  1  0
  1 49  1  0
  2 50  1  0
  2 51  1  0
  4 52  1  0
  4 53  1  0
  5 54  1  0
  5 55  1  0
  5 56  1  0
  6 57  1  0
  6 58  1  0
  7 59  1  0
  7 60  1  0
  9 61  1  0
  9 62  1  0
 11 63  1  0
 12 64  1  0
 15 65  1  0
 16 66  1  0
 22 67  1  0
 23 68  1  0
 24 69  1  0
 25 70  1  0
 28 71  1  0
 28 72  1  0
 30 73  1  0
 33 74  1  0
 33 75  1  0
 33 76  1  0
 39 77  1  0
 39 78  1  0
 41 79  1  0
 42 80  1  0
 45 81  1  0
 46 82  1  0
M  END
$$$$
