@<TRIPOS>MOLECULE
*****
 51 54 0 0 0
SMALL
GASTEIGER

@<TRIPOS>ATOM
      1 C          -3.1693   -1.3538   -1.6784 C.3     1  UNL1        0.0365
      2 O          -2.5237   -1.8516   -0.6332 O.3     1  UNL1       -0.3814
      3 C          -3.0463   -2.3444    0.4608 C.3     1  UNL1        0.0645
      4 C          -3.9076   -1.5874    1.3881 C.3     1  UNL1        0.0552
      5 C          -5.2691   -1.2502    0.7869 C.3     1  UNL1       -0.0323
      6 C          -5.3234    0.2379    0.8267 C.3     1  UNL1       -0.0370
      7 C          -4.0398    0.7163    1.4959 C.3     1  UNL1        0.0209
      8 N          -3.4391   -0.4543    2.0324 N.3     1  UNL1       -0.1713
      9 S          -1.8946   -0.2921    2.5436 S.O2    1  UNL1        0.0612
     10 O          -1.4255   -1.6149    3.1672 O.2     1  UNL1       -0.1528
     11 O          -1.7830    0.6964    3.6948 O.2     1  UNL1       -0.1528
     12 C          -0.6798    0.1625    1.3829 C.ar    1  UNL1        0.1063
     13 C           0.1046   -0.8227    0.8354 C.ar    1  UNL1       -0.0335
     14 C           1.0934   -0.5837   -0.0924 C.ar    1  UNL1       -0.0377
     15 C           1.3243    0.7326   -0.5109 C.ar    1  UNL1        0.0481
     16 C           0.5336    1.7139    0.0428 C.ar    1  UNL1        0.0502
     17 C          -0.4580    1.4462    0.9775 C.ar    1  UNL1       -0.0226
     18 C           0.9644    2.9760   -0.5511 C.2     1  UNL1        0.2496
     19 O           0.4507    4.0895   -0.2690 O.2     1  UNL1       -0.2817
     20 C           2.0436    2.6716   -1.4749 C.2     1  UNL1        0.2915
     21 O           2.6733    3.5011   -2.1779 O.2     1  UNL1       -0.2661
     22 N           2.2574    1.2695   -1.4393 N.am    1  UNL1       -0.2598
     23 C           3.2290    0.4894   -2.1956 C.3     1  UNL1        0.0452
     24 C           4.5273    0.4109   -1.4981 C.ar    1  UNL1       -0.0296
     25 C           5.5025    1.3697   -1.7043 C.ar    1  UNL1       -0.0561
     26 C           6.7252    1.3285   -1.0749 C.ar    1  UNL1       -0.0483
     27 C           6.9581    0.2786   -0.2107 C.ar    1  UNL1        0.0134
     28 I           8.8208    0.1631    0.7860 I       1  UNL1       -0.0438
     29 C           6.0157   -0.6857    0.0155 C.ar    1  UNL1       -0.0483
     30 C           4.7801   -0.6153   -0.6413 C.ar    1  UNL1       -0.0561
     31 H          -3.8242   -0.4973   -1.5573 H       1  UNL1        0.0523
     32 H          -2.3906   -1.0214   -2.4360 H       1  UNL1        0.0523
     33 H          -3.7725   -2.1037   -2.2769 H       1  UNL1        0.0523
     34 H          -2.2273   -2.8163    1.0869 H       1  UNL1        0.0576
     35 H          -3.6550   -3.2639    0.1754 H       1  UNL1        0.0576
     36 H          -4.1604   -2.3394    2.2068 H       1  UNL1        0.0502
     37 H          -6.0953   -1.6354    1.4162 H       1  UNL1        0.0282
     38 H          -5.4068   -1.6954   -0.2125 H       1  UNL1        0.0282
     39 H          -6.2296    0.6109    1.3836 H       1  UNL1        0.0279
     40 H          -5.4214    0.6293   -0.2005 H       1  UNL1        0.0279
     41 H          -4.3385    1.4770    2.2437 H       1  UNL1        0.0444
     42 H          -3.3870    1.2381    0.7457 H       1  UNL1        0.0444
     43 H          -0.0425   -1.8681    1.1390 H       1  UNL1        0.0638
     44 H           1.7042   -1.3638   -0.5216 H       1  UNL1        0.0637
     45 H          -1.0710    2.2226    1.4044 H       1  UNL1        0.0645
     46 H           3.3286    0.8775   -3.2369 H       1  UNL1        0.0518
     47 H           2.8552   -0.5684   -2.3243 H       1  UNL1        0.0518
     48 H           5.2695    2.1690   -2.3896 H       1  UNL1        0.0621
     49 H           7.5025    2.0552   -1.2124 H       1  UNL1        0.0628
     50 H           6.2420   -1.4941    0.7039 H       1  UNL1        0.0628
     51 H           4.0754   -1.4098   -0.4221 H       1  UNL1        0.0621
@<TRIPOS>BOND
     1     1     2    1
     2     2     3    1
     3     3     4    1
     4     4     5    1
     5     5     6    1
     6     6     7    1
     7     7     8    1
     8     8     9    1
     9     9    10    2
    10     9    11    2
    11     9    12    1
    12    12    13   ar
    13    13    14   ar
    14    14    15   ar
    15    15    16   ar
    16    16    17   ar
    17    16    18    1
    18    18    19    2
    19    18    20    1
    20    20    21    2
    21    20    22   am
    22    22    23    1
    23    23    24    1
    24    24    25   ar
    25    25    26   ar
    26    26    27   ar
    27    27    28    1
    28    27    29   ar
    29    29    30   ar
    30     8     4    1
    31    17    12   ar
    32    30    24   ar
    33    22    15    1
    34     1    31    1
    35     1    32    1
    36     1    33    1
    37     3    34    1
    38     3    35    1
    39     4    36    1
    40     5    37    1
    41     5    38    1
    42     6    39    1
    43     6    40    1
    44     7    41    1
    45     7    42    1
    46    13    43    1
    47    14    44    1
    48    17    45    1
    49    23    46    1
    50    23    47    1
    51    25    48    1
    52    26    49    1
    53    29    50    1
    54    30    51    1
