
     RDKit          3D

 51 54  0  0  0  0  0  0  0  0999 V2000
   -3.1693   -1.3538   -1.6784 C   0  0  0  0  0  0  0  0  0  0  0  0
   -2.5237   -1.8516   -0.6332 O   0  0  0  0  0  0  0  0  0  0  0  0
   -3.0463   -2.3444    0.4608 C   0  0  0  0  0  0  0  0  0  0  0  0
   -3.9076   -1.5874    1.3881 C   0  0  2  0  0  0  0  0  0  0  0  0
   -5.2691   -1.2502    0.7869 C   0  0  0  0  0  0  0  0  0  0  0  0
   -5.3234    0.2379    0.8267 C   0  0  0  0  0  0  0  0  0  0  0  0
   -4.0398    0.7163    1.4959 C   0  0  0  0  0  0  0  0  0  0  0  0
   -3.4391   -0.4543    2.0324 N   0  0  0  0  0  0  0  0  0  0  0  0
   -1.8946   -0.2921    2.5436 S   0  0  0  0  0  6  0  0  0  0  0  0
   -1.4255   -1.6149    3.1672 O   0  0  0  0  0  0  0  0  0  0  0  0
   -1.7830    0.6964    3.6948 O   0  0  0  0  0  0  0  0  0  0  0  0
   -0.6798    0.1625    1.3829 C   0  0  0  0  0  0  0  0  0  0  0  0
    0.1046   -0.8227    0.8354 C   0  0  0  0  0  0  0  0  0  0  0  0
    1.0934   -0.5837   -0.0924 C   0  0  0  0  0  0  0  0  0  0  0  0
    1.3243    0.7326   -0.5109 C   0  0  0  0  0  0  0  0  0  0  0  0
    0.5336    1.7139    0.0428 C   0  0  0  0  0  0  0  0  0  0  0  0
   -0.4580    1.4462    0.9775 C   0  0  0  0  0  0  0  0  0  0  0  0
    0.9644    2.9760   -0.5511 C   0  0  0  0  0  0  0  0  0  0  0  0
    0.4507    4.0895   -0.2690 O   0  0  0  0  0  0  0  0  0  0  0  0
    2.0436    2.6716   -1.4749 C   0  0  0  0  0  0  0  0  0  0  0  0
    2.6733    3.5011   -2.1779 O   0  0  0  0  0  0  0  0  0  0  0  0
    2.2574    1.2695   -1.4393 N   0  0  0  0  0  0  0  0  0  0  0  0
    3.2290    0.4894   -2.1956 C   0  0  0  0  0  0  0  0  0  0  0  0
    4.5273    0.4109   -1.4981 C   0  0  0  0  0  0  0  0  0  0  0  0
    5.5025    1.3697   -1.7043 C   0  0  0  0  0  0  0  0  0  0  0  0
    6.7252    1.3285   -1.0749 C   0  0  0  0  0  0  0  0  0  0  0  0
    6.9581    0.2786   -0.2107 C   0  0  0  0  0  0  0  0  0  0  0  0
    8.8208    0.1631    0.7860 I   0  0  0  0  0  0  0  0  0  0  0  0
    6.0157   -0.6857    0.0155 C   0  0  0  0  0  0  0  0  0  0  0  0
    4.7801   -0.6153   -0.6413 C   0  0  0  0  0  0  0  0  0  0  0  0
   -3.8242   -0.4973   -1.5573 H   0  0  0  0  0  0  0  0  0  0  0  0
   -2.3906   -1.0214   -2.4360 H   0  0  0  0  0  0  0  0  0  0  0  0
   -3.7725   -2.1037   -2.2769 H   0  0  0  0  0  0  0  0  0  0  0  0
   -2.2273   -2.8163    1.0869 H   0  0  0  0  0  0  0  0  0  0  0  0
   -3.6550   -3.2639    0.1754 H   0  0  0  0  0  0  0  0  0  0  0  0
   -4.1604   -2.3394    2.2068 H   0  0  0  0  0  0  0  0  0  0  0  0
   -6.0953   -1.6354    1.4162 H   0  0  0  0  0  0  0  0  0  0  0  0
   -5.4068   -1.6954   -0.2125 H   0  0  0  0  0  0  0  0  0  0  0  0
   -6.2296    0.6109    1.3836 H   0  0  0  0  0  0  0  0  0  0  0  0
   -5.4214    0.6293   -0.2005 H   0  0  0  0  0  0  0  0  0  0  0  0
   -4.3385    1.4770    2.2437 H   0  0  0  0  0  0  0  0  0  0  0  0
   -3.3870    1.2381    0.7457 H   0  0  0  0  0  0  0  0  0  0  0  0
   -0.0425   -1.8681    1.1390 H   0  0  0  0  0  0  0  0  0  0  0  0
    1.7042   -1.3638   -0.5216 H   0  0  0  0  0  0  0  0  0  0  0  0
   -1.0710    2.2226    1.4044 H   0  0  0  0  0  0  0  0  0  0  0  0
    3.3286    0.8775   -3.2369 H   0  0  0  0  0  0  0  0  0  0  0  0
    2.8552   -0.5684   -2.3243 H   0  0  0  0  0  0  0  0  0  0  0  0
    5.2695    2.1690   -2.3896 H   0  0  0  0  0  0  0  0  0  0  0  0
    7.5025    2.0552   -1.2124 H   0  0  0  0  0  0  0  0  0  0  0  0
    6.2420   -1.4941    0.7039 H   0  0  0  0  0  0  0  0  0  0  0  0
    4.0754   -1.4098   -0.4221 H   0  0  0  0  0  0  0  0  0  0  0  0
  1  2  1  0
  2  3  1  0
  3  4  1  0
  4  5  1  0
  5  6  1  0
  6  7  1  0
  7  8  1  0
  8  9  1  0
  9 10  2  0
  9 11  2  0
  9 12  1  0
 12 13  2  0
 13 14  1  0
 14 15  2  0
 15 16  1  0
 16 17  2  0
 16 18  1  0
 18 19  2  0
 18 20  1  0
 20 21  2  0
 20 22  1  0
 22 23  1  0
 23 24  1  0
 24 25  2  0
 25 26  1  0
 26 27  2  0
 27 28  1  0
 27 29  1  0
 29 30  2  0
  8  4  1  0
 17 12  1  0
 30 24  1  0
 22 15  1  0
  1 31  1  0
  1 32  1  0
  1 33  1  0
  3 34  1  0
  3 35  1  0
  4 36  1  1
  5 37  1  0
  5 38  1  0
  6 39  1  0
  6 40  1  0
  7 41  1  0
  7 42  1  0
 13 43  1  0
 14 44  1  0
 17 45  1  0
 23 46  1  0
 23 47  1  0
 25 48  1  0
 26 49  1  0
 29 50  1  0
 30 51  1  0
M  END
$$$$
