@<TRIPOS>MOLECULE
*****
 46 48 0 0 0
SMALL
GASTEIGER

@<TRIPOS>ATOM
      1 C           0.1859   -0.8269    0.9774 C.3     1  UNL1        0.0876
      2 C           1.5736   -1.0275    0.4387 C.3     1  UNL1        0.0854
      3 O           1.6198   -1.5049   -0.8475 O.3     1  UNL1       -0.2838
      4 P           3.2480   -1.6743   -1.2749 P.3     1  UNL1        0.4835
      5 O           3.4838   -1.4247   -2.9266 O.3     1  UNL1       -0.3022
      6 O           3.7601   -3.0625   -0.8890 O.2     1  UNL1       -0.2269
      7 O           4.1499   -0.5794   -0.3545 O.3     1  UNL1       -0.1858
      8 P           4.7963    0.6508   -1.2917 P.3     1  UNL1        0.4918
      9 O           4.2319    2.1605   -0.7599 O.3     1  UNL1       -0.3019
     10 O           4.4135    0.5284   -2.7406 O.2     1  UNL1       -0.2265
     11 O           6.4785    0.5952   -1.2075 O.3     1  UNL1       -0.1859
     12 P           6.9470    1.0041    0.3544 P.3     1  UNL1        0.4808
     13 O           5.9960    2.2906    0.9007 O.3     1  UNL1       -0.3023
     14 O           6.7460   -0.3344    1.3948 O.3     1  UNL1       -0.3023
     15 O           8.4043    1.4172    0.3508 O.2     1  UNL1       -0.2271
     16 C          -0.6724   -2.0630    0.8599 C.3     1  UNL1        0.0060
     17 C          -2.0298   -1.4556    1.2416 C.3     1  UNL1        0.1028
     18 O          -2.1968   -1.4879    2.6252 O.3     1  UNL1       -0.3872
     19 C          -1.8096   -0.0133    0.8430 C.3     1  UNL1        0.1641
     20 O          -0.5703    0.0731    0.2456 O.3     1  UNL1       -0.3483
     21 N          -2.8789    0.4203   -0.0543 N.ar    1  UNL1       -0.2856
     22 C          -2.7735    0.6329   -1.3783 C.ar    1  UNL1        0.1004
     23 N          -4.0090    1.0246   -1.8101 N.ar    1  UNL1       -0.2306
     24 C          -4.8460    1.0479   -0.7625 C.ar    1  UNL1        0.1473
     25 C          -6.1672    1.3407   -0.5273 C.ar    1  UNL1        0.1472
     26 N          -6.9941    1.7460   -1.5976 N.pl3   1  UNL1       -0.3413
     27 N          -6.7347    1.2669    0.6768 N.ar    1  UNL1       -0.2188
     28 C          -6.0365    0.8906    1.7762 C.ar    1  UNL1        0.1205
     29 N          -4.7521    0.6070    1.5425 N.ar    1  UNL1       -0.2159
     30 C          -4.1390    0.6663    0.3549 C.ar    1  UNL1        0.1674
     31 H           0.2724   -0.5770    2.0461 H       1  UNL1        0.0621
     32 H           2.1634   -1.5677    1.1765 H       1  UNL1        0.0591
     33 H           2.0181    0.0076    0.3927 H       1  UNL1        0.0591
     34 H           2.6834   -1.7857   -3.3950 H       1  UNL1        0.2220
     35 H           3.4458    2.4324   -1.2995 H       1  UNL1        0.2220
     36 H           6.2596    3.0935    0.3647 H       1  UNL1        0.2220
     37 H           6.0843   -0.9884    1.0341 H       1  UNL1        0.2220
     38 H          -0.8059   -2.3868   -0.1928 H       1  UNL1        0.0317
     39 H          -0.3814   -2.8835    1.5319 H       1  UNL1        0.0317
     40 H          -2.8698   -1.9368    0.7385 H       1  UNL1        0.0639
     41 H          -3.1186   -1.7225    2.9021 H       1  UNL1        0.2100
     42 H          -1.8042    0.6657    1.7142 H       1  UNL1        0.0865
     43 H          -1.8927    0.5208   -1.9974 H       1  UNL1        0.1030
     44 H          -7.5392    1.2821   -2.3836 H       1  UNL1        0.1438
     45 H          -7.5813    2.1510   -2.3445 H       1  UNL1        0.1438
     46 H          -6.3585    0.7868    2.7996 H       1  UNL1        0.1048
@<TRIPOS>BOND
     1     1     2    1
     2     2     3    1
     3     3     4    1
     4     4     5    1
     5     4     6    2
     6     4     7    1
     7     7     8    1
     8     8     9    1
     9     8    10    2
    10     8    11    1
    11    11    12    1
    12    12    13    1
    13    12    14    1
    14    12    15    2
    15     1    16    1
    16    16    17    1
    17    17    18    1
    18    17    19    1
    19    19    20    1
    20    19    21    1
    21    21    22   ar
    22    22    23   ar
    23    23    24   ar
    24    24    25   ar
    25    25    26    1
    26    25    27   ar
    27    27    28   ar
    28    28    29   ar
    29    29    30   ar
    30    20     1    1
    31    30    21   ar
    32    30    24   ar
    33     1    31    1
    34     2    32    1
    35     2    33    1
    36     5    34    1
    37     9    35    1
    38    13    36    1
    39    14    37    1
    40    16    38    1
    41    16    39    1
    42    17    40    1
    43    18    41    1
    44    19    42    1
    45    22    43    1
    46    26    44    1
    47    26    45    1
    48    28    46    1
