@<TRIPOS>MOLECULE
*****
 34 36 0 0 0
SMALL
GASTEIGER

@<TRIPOS>ATOM
      1 C          -3.1336    0.6895    0.5843 C.3     1  UNL1        0.0511
      2 C          -4.4838    1.2294    0.1766 C.3     1  UNL1        0.0130
      3 N          -5.0237    0.5344   -0.9510 N.3     1  UNL1       -0.3282
      4 C          -2.2080    0.8645   -0.6113 C.3     1  UNL1        0.0288
      5 N          -0.8049    0.8000   -0.1746 N.pl3   1  UNL1       -0.3406
      6 C          -0.0656   -0.3328    0.2531 C.ar    1  UNL1        0.0546
      7 C          -0.7808   -1.4543    0.8241 C.ar    1  UNL1        0.0958
      8 S           0.4996   -2.6708    1.2293 S.2     1  UNL1       -0.0818
      9 C           1.8801   -1.6402    0.6293 C.ar    1  UNL1        0.0221
     10 C           1.2901   -0.4774    0.1762 C.ar    1  UNL1        0.0142
     11 C           2.1774    0.4478   -0.3257 C.ar    1  UNL1       -0.0099
     12 C           3.5093    0.1517   -0.3334 C.ar    1  UNL1        0.1208
     13 O           4.3580    1.1342   -0.8568 O.3     1  UNL1       -0.4951
     14 C           5.7440    0.9725   -0.9319 C.3     1  UNL1        0.0788
     15 C           4.1002   -0.9898    0.1103 C.ar    1  UNL1       -0.0189
     16 C           3.2369   -1.9309    0.6167 C.ar    1  UNL1       -0.0439
     17 C          -2.2089   -1.6786    1.0712 C.2     1  UNL1        0.2528
     18 O          -2.4359   -2.8706    1.4004 O.2     1  UNL1       -0.2696
     19 N          -3.2445   -0.7129    0.9676 N.am    1  UNL1       -0.3053
     20 H          -2.7213    1.2686    1.4130 H       1  UNL1        0.0526
     21 H          -4.3379    2.3182    0.0249 H       1  UNL1        0.0440
     22 H          -5.2059    1.1560    1.0248 H       1  UNL1        0.0440
     23 H          -5.2460    1.1386   -1.7665 H       1  UNL1        0.1183
     24 H          -4.6161   -0.3825   -1.1634 H       1  UNL1        0.1183
     25 H          -2.3921    1.7923   -1.1481 H       1  UNL1        0.0480
     26 H          -2.4028   -0.0220   -1.2576 H       1  UNL1        0.0480
     27 H          -0.2270    1.6944   -0.1616 H       1  UNL1        0.1462
     28 H           1.8444    1.4203   -0.7213 H       1  UNL1        0.0661
     29 H           6.1778    1.6819   -1.6980 H       1  UNL1        0.0660
     30 H           6.0489   -0.0578   -1.2238 H       1  UNL1        0.0660
     31 H           6.1862    1.2260    0.0542 H       1  UNL1        0.0660
     32 H           5.1247   -1.2588    0.1234 H       1  UNL1        0.0654
     33 H           3.5224   -2.8768    1.0056 H       1  UNL1        0.0630
     34 H          -4.1613   -1.1641    1.2178 H       1  UNL1        0.1494
@<TRIPOS>BOND
     1     1     2    1
     2     2     3    1
     3     1     4    1
     4     4     5    1
     5     5     6    1
     6     6     7   ar
     7     7     8   ar
     8     8     9   ar
     9     9    10   ar
    10    10    11   ar
    11    11    12   ar
    12    12    13    1
    13    13    14    1
    14    12    15   ar
    15    15    16   ar
    16     7    17    1
    17    17    18    2
    18    17    19   am
    19    19     1    1
    20    10     6   ar
    21    16     9   ar
    22     1    20    1
    23     2    21    1
    24     2    22    1
    25     3    23    1
    26     3    24    1
    27     4    25    1
    28     4    26    1
    29     5    27    1
    30    11    28    1
    31    14    29    1
    32    14    30    1
    33    14    31    1
    34    15    32    1
    35    16    33    1
    36    19    34    1
