@<TRIPOS>MOLECULE
*****
 56 59 0 0 0
SMALL
GASTEIGER

@<TRIPOS>ATOM
      1 C         -10.5150   -1.5324    0.4393 C.3     1  UNL1        0.0332
      2 C          -9.5627   -0.4707    0.0561 C.2     1  UNL1        0.3044
      3 O         -10.0366    0.6335   -0.3104 O.2     1  UNL1       -0.2512
      4 O          -8.1908   -0.6280    0.0798 O.3     1  UNL1       -0.4554
      5 C          -7.2931    0.3889   -0.2869 C.3     1  UNL1        0.1680
      6 C          -5.8807   -0.0550   -0.1663 C.2     1  UNL1        0.2510
      7 O          -5.6710   -1.2284    0.2297 O.2     1  UNL1       -0.2721
      8 N          -4.8134    0.8251   -0.4899 N.am    1  UNL1       -0.3096
      9 C          -3.4659    0.3687   -0.3636 C.3     1  UNL1        0.0255
     10 C          -2.6924    0.4224   -1.6529 C.3     1  UNL1       -0.0216
     11 C          -1.2372    0.1094   -1.3746 C.3     1  UNL1        0.0009
     12 N          -1.1247   -0.4418   -0.0665 N.3     1  UNL1       -0.2980
     13 C           0.0598   -1.2011    0.1881 C.3     1  UNL1        0.0240
     14 C           1.3188   -0.4336    0.0339 C.ar    1  UNL1       -0.0331
     15 C           1.8303    0.2324    1.1344 C.ar    1  UNL1       -0.0539
     16 C           2.9962    0.9381    0.9789 C.ar    1  UNL1       -0.0190
     17 C           3.6705    1.0095   -0.2148 C.ar    1  UNL1        0.1309
     18 O           4.8457    1.7106   -0.4049 O.3     1  UNL1       -0.4326
     19 C           6.0498    1.1044   -0.2081 C.ar    1  UNL1        0.2627
     20 N           7.2643    1.3183   -0.2536 N.ar    1  UNL1       -0.2057
     21 C           8.2401    0.5081    0.0000 C.ar    1  UNL1        0.0820
     22 C           9.6144    0.7674   -0.0566 C.ar    1  UNL1       -0.0351
     23 C          10.5234   -0.2053    0.2442 C.ar    1  UNL1       -0.0597
     24 C          10.1836   -1.4740    0.6142 C.ar    1  UNL1       -0.0606
     25 C           8.8197   -1.7618    0.6794 C.ar    1  UNL1       -0.0458
     26 C           7.8963   -0.7917    0.3792 C.ar    1  UNL1        0.0425
     27 S           6.1221   -0.7101    0.3292 S.2     1  UNL1       -0.0290
     28 C           3.1352    0.3357   -1.2904 C.ar    1  UNL1       -0.0190
     29 C           1.9504   -0.3985   -1.1885 C.ar    1  UNL1       -0.0539
     30 C          -1.3339    0.6217    0.8954 C.3     1  UNL1        0.0009
     31 C          -2.7148    1.1888    0.6750 C.3     1  UNL1       -0.0216
     32 H         -10.0082   -2.3962    0.9273 H       1  UNL1        0.0342
     33 H         -11.1806   -1.8423   -0.3919 H       1  UNL1        0.0342
     34 H         -11.2005   -1.0749    1.2107 H       1  UNL1        0.0342
     35 H          -7.4665    1.2686    0.3927 H       1  UNL1        0.0796
     36 H          -7.5082    0.7698   -1.3116 H       1  UNL1        0.0796
     37 H          -5.0710    1.7996   -0.8169 H       1  UNL1        0.1491
     38 H          -3.4427   -0.6721   -0.0095 H       1  UNL1        0.0499
     39 H          -2.8158    1.4139   -2.1533 H       1  UNL1        0.0295
     40 H          -3.0591   -0.3766   -2.3540 H       1  UNL1        0.0295
     41 H          -0.7919   -0.5213   -2.1709 H       1  UNL1        0.0427
     42 H          -0.7044    1.1024   -1.3907 H       1  UNL1        0.0427
     43 H           0.0749   -2.0497   -0.5297 H       1  UNL1        0.0476
     44 H          -0.0278   -1.6319    1.2060 H       1  UNL1        0.0476
     45 H           1.3045    0.1854    2.0937 H       1  UNL1        0.0622
     46 H           3.4231    1.4758    1.8383 H       1  UNL1        0.0654
     47 H           9.9798    1.7612   -0.3450 H       1  UNL1        0.0639
     48 H          11.6080    0.0455    0.1859 H       1  UNL1        0.0618
     49 H          10.9178   -2.2179    0.8448 H       1  UNL1        0.0618
     50 H           8.4485   -2.7245    0.9586 H       1  UNL1        0.0629
     51 H           3.6436    0.3737   -2.2423 H       1  UNL1        0.0654
     52 H           1.5684   -0.9096   -2.0527 H       1  UNL1        0.0622
     53 H          -0.5970    1.4438    0.7054 H       1  UNL1        0.0427
     54 H          -1.1767    0.2465    1.9136 H       1  UNL1        0.0427
     55 H          -2.6662    2.2236    0.2629 H       1  UNL1        0.0295
     56 H          -3.2403    1.1565    1.6518 H       1  UNL1        0.0295
@<TRIPOS>BOND
     1     1     2    1
     2     2     3    2
     3     2     4    1
     4     4     5    1
     5     5     6    1
     6     6     7    2
     7     6     8   am
     8     8     9    1
     9     9    10    1
    10    10    11    1
    11    11    12    1
    12    12    13    1
    13    13    14    1
    14    14    15   ar
    15    15    16   ar
    16    16    17   ar
    17    17    18    1
    18    18    19    1
    19    19    20   ar
    20    20    21   ar
    21    21    22   ar
    22    22    23   ar
    23    23    24   ar
    24    24    25   ar
    25    25    26   ar
    26    26    27   ar
    27    17    28   ar
    28    28    29   ar
    29    12    30    1
    30    30    31    1
    31    31     9    1
    32    29    14   ar
    33    27    19   ar
    34    26    21   ar
    35     1    32    1
    36     1    33    1
    37     1    34    1
    38     5    35    1
    39     5    36    1
    40     8    37    1
    41     9    38    1
    42    10    39    1
    43    10    40    1
    44    11    41    1
    45    11    42    1
    46    13    43    1
    47    13    44    1
    48    15    45    1
    49    16    46    1
    50    22    47    1
    51    23    48    1
    52    24    49    1
    53    25    50    1
    54    28    51    1
    55    29    52    1
    56    30    53    1
    57    30    54    1
    58    31    55    1
    59    31    56    1
