
     RDKit          3D

 57 60  0  0  0  0  0  0  0  0999 V2000
    8.7463   -0.8342   -1.2091 C   0  0  0  0  0  0  0  0  0  0  0  0
    8.3461    0.3048    0.1148 S   0  0  0  0  0  6  0  0  0  0  0  0
    8.9306   -0.1860    1.3899 O   0  0  0  0  0  0  0  0  0  0  0  0
    8.9354    1.6480   -0.2432 O   0  0  0  0  0  0  0  0  0  0  0  0
    6.6068    0.3990    0.2094 C   0  0  0  0  0  0  0  0  0  0  0  0
    5.9103    1.3248   -0.5144 C   0  0  0  0  0  0  0  0  0  0  0  0
    4.5147    1.3824   -0.4231 C   0  0  0  0  0  0  0  0  0  0  0  0
    3.8705    0.4959    0.4021 C   0  0  0  0  0  0  0  0  0  0  0  0
    2.4532    0.5647    0.4861 N   0  0  0  0  0  0  0  0  0  0  0  0
    1.5851   -0.1580   -0.3544 C   0  0  0  0  0  0  0  0  0  0  0  0
    2.1185   -0.9031   -1.2247 O   0  0  0  0  0  0  0  0  0  0  0  0
    0.1691   -0.0508   -0.2257 N   0  0  0  0  0  0  0  0  0  0  0  0
   -0.8223   -0.7391   -1.0253 C   0  0  0  0  0  0  0  0  0  0  0  0
   -1.8697    0.3294   -1.2649 C   0  0  1  0  0  0  0  0  0  0  0  0
   -3.2555   -0.2709   -1.3583 C   0  0  0  0  0  0  0  0  0  0  0  0
   -4.0085    0.5820   -0.3099 C   0  0  1  0  0  0  0  0  0  0  0  0
   -5.4006    0.3546   -0.2638 C   0  0  0  0  0  0  0  0  0  0  0  0
   -6.1904    1.0838   -1.1798 C   0  0  0  0  0  0  0  0  0  0  0  0
   -7.5491    0.9599   -1.2951 C   0  0  0  0  0  0  0  0  0  0  0  0
   -8.2135    0.0936   -0.4980 C   0  0  0  0  0  0  0  0  0  0  0  0
   -7.4802   -0.6345    0.4072 C   0  0  0  0  0  0  0  0  0  0  0  0
   -6.0811   -0.5139    0.5344 C   0  0  0  0  0  0  0  0  0  0  0  0
   -5.3623   -1.2905    1.5381 C   0  0  0  0  0  0  0  0  0  0  0  0
   -4.7589   -0.5834    2.5375 F   0  0  0  0  0  0  0  0  0  0  0  0
   -4.5565   -2.2805    1.0070 F   0  0  0  0  0  0  0  0  0  0  0  0
   -6.3207   -2.0420    2.2388 F   0  0  0  0  0  0  0  0  0  0  0  0
   -3.0554    0.5521    0.7776 C   0  0  0  0  0  0  0  0  0  0  0  0
   -1.8150    1.1273    0.0176 C   0  0  1  0  0  0  0  0  0  0  0  0
   -0.5529    0.7606    0.7218 C   0  0  0  0  0  0  0  0  0  0  0  0
    4.5509   -0.4316    1.1291 C   0  0  0  0  0  0  0  0  0  0  0  0
    3.8254   -1.3471    1.9874 C   0  0  0  0  0  0  0  0  0  0  0  0
    4.4514   -2.1996    2.6554 O   0  0  0  0  0  0  0  0  0  0  0  0
    2.4476   -1.2755    2.0649 O   0  0  0  0  0  0  0  0  0  0  0  0
    5.9456   -0.4814    1.0311 C   0  0  0  0  0  0  0  0  0  0  0  0
    9.8100   -0.7639   -1.4994 H   0  0  0  0  0  0  0  0  0  0  0  0
    8.1266   -0.5577   -2.0819 H   0  0  0  0  0  0  0  0  0  0  0  0
    8.4724   -1.8435   -0.8579 H   0  0  0  0  0  0  0  0  0  0  0  0
    6.4522    2.0129   -1.1593 H   0  0  0  0  0  0  0  0  0  0  0  0
    4.0181    2.1294   -1.0137 H   0  0  0  0  0  0  0  0  0  0  0  0
    2.0367    1.1866    1.2126 H   0  0  0  0  0  0  0  0  0  0  0  0
   -0.4212   -1.1137   -1.9779 H   0  0  0  0  0  0  0  0  0  0  0  0
   -1.2305   -1.5875   -0.4313 H   0  0  0  0  0  0  0  0  0  0  0  0
   -1.5997    0.9296   -2.1510 H   0  0  0  0  0  0  0  0  0  0  0  0
   -3.1805   -1.3152   -1.0825 H   0  0  0  0  0  0  0  0  0  0  0  0
   -3.7378   -0.0781   -2.3258 H   0  0  0  0  0  0  0  0  0  0  0  0
   -3.8404    1.6234   -0.7709 H   0  0  0  0  0  0  0  0  0  0  0  0
   -5.6936    1.8022   -1.8533 H   0  0  0  0  0  0  0  0  0  0  0  0
   -8.1033    1.5451   -2.0157 H   0  0  0  0  0  0  0  0  0  0  0  0
   -9.2809   -0.0796   -0.5088 H   0  0  0  0  0  0  0  0  0  0  0  0
   -7.9515   -1.3457    1.0744 H   0  0  0  0  0  0  0  0  0  0  0  0
   -3.1611    1.2747    1.6082 H   0  0  0  0  0  0  0  0  0  0  0  0
   -2.6047   -0.4269    1.0707 H   0  0  0  0  0  0  0  0  0  0  0  0
   -1.9561    2.2054   -0.1485 H   0  0  0  0  0  0  0  0  0  0  0  0
   -0.7601    0.1097    1.6079 H   0  0  0  0  0  0  0  0  0  0  0  0
    0.0532    1.6216    1.0369 H   0  0  0  0  0  0  0  0  0  0  0  0
    1.9701   -1.8485    2.7587 H   0  0  0  0  0  0  0  0  0  0  0  0
    6.4673   -1.2212    1.6130 H   0  0  0  0  0  0  0  0  0  0  0  0
  1  2  1  0
  2  3  2  0
  2  4  2  0
  2  5  1  0
  5  6  2  0
  6  7  1  0
  7  8  2  0
  8  9  1  0
  9 10  1  0
 10 11  2  0
 10 12  1  0
 12 13  1  0
 13 14  1  0
 14 15  1  0
 15 16  1  0
 16 17  1  0
 17 18  2  0
 18 19  1  0
 19 20  2  0
 20 21  1  0
 21 22  2  0
 22 23  1  0
 23 24  1  0
 23 25  1  0
 23 26  1  0
 16 27  1  0
 27 28  1  0
 28 29  1  0
  8 30  1  0
 30 31  1  0
 31 32  2  0
 31 33  1  0
 30 34  2  0
 34  5  1  0
 29 12  1  0
 28 14  1  0
 22 17  1  0
  1 35  1  0
  1 36  1  0
  1 37  1  0
  6 38  1  0
  7 39  1  0
  9 40  1  0
 13 41  1  0
 13 42  1  0
 14 43  1  6
 15 44  1  0
 15 45  1  0
 16 46  1  6
 18 47  1  0
 19 48  1  0
 20 49  1  0
 21 50  1  0
 27 51  1  0
 27 52  1  0
 28 53  1  6
 29 54  1  0
 29 55  1  0
 33 56  1  0
 34 57  1  0
M  END
$$$$
