@<TRIPOS>MOLECULE
*****
 57 60 0 0 0
SMALL
GASTEIGER

@<TRIPOS>ATOM
      1 C           8.7463   -0.8342   -1.2091 C.3     1  UNL1        0.0596
      2 S           8.3461    0.3048    0.1148 S.O2    1  UNL1       -0.0059
      3 O           8.9306   -0.1860    1.3899 O.2     1  UNL1       -0.1696
      4 O           8.9354    1.6480   -0.2432 O.2     1  UNL1       -0.1696
      5 C           6.6068    0.3990    0.2094 C.ar    1  UNL1        0.0888
      6 C           5.9103    1.3248   -0.5144 C.ar    1  UNL1       -0.0351
      7 C           4.5147    1.3824   -0.4231 C.ar    1  UNL1       -0.0378
      8 C           3.8705    0.4959    0.4021 C.ar    1  UNL1        0.0489
      9 N           2.4532    0.5647    0.4861 N.am    1  UNL1       -0.2685
     10 C           1.5851   -0.1580   -0.3544 C.2     1  UNL1        0.3065
     11 O           2.1185   -0.9031   -1.2247 O.2     1  UNL1       -0.2523
     12 N           0.1691   -0.0508   -0.2257 N.am    1  UNL1       -0.2848
     13 C          -0.8223   -0.7391   -1.0253 C.3     1  UNL1        0.0193
     14 C          -1.8697    0.3294   -1.2649 C.3     1  UNL1       -0.0203
     15 C          -3.2555   -0.2709   -1.3583 C.3     1  UNL1       -0.0416
     16 C          -4.0085    0.5820   -0.3099 C.3     1  UNL1       -0.0147
     17 C          -5.4006    0.3546   -0.2638 C.ar    1  UNL1       -0.0326
     18 C          -6.1904    1.0838   -1.1798 C.ar    1  UNL1       -0.0578
     19 C          -7.5491    0.9599   -1.2951 C.ar    1  UNL1       -0.0615
     20 C          -8.2135    0.0936   -0.4980 C.ar    1  UNL1       -0.0612
     21 C          -7.4802   -0.6345    0.4072 C.ar    1  UNL1       -0.0498
     22 C          -6.0811   -0.5139    0.5344 C.ar    1  UNL1        0.0582
     23 C          -5.3623   -1.2905    1.5381 C.3     1  UNL1        0.4177
     24 F          -4.7589   -0.5834    2.5375 F       1  UNL1       -0.1659
     25 F          -4.5565   -2.2805    1.0070 F       1  UNL1       -0.1659
     26 F          -6.3207   -2.0420    2.2388 F       1  UNL1       -0.1659
     27 C          -3.0554    0.5521    0.7776 C.3     1  UNL1       -0.0416
     28 C          -1.8150    1.1273    0.0176 C.3     1  UNL1       -0.0203
     29 C          -0.5529    0.7606    0.7218 C.3     1  UNL1        0.0193
     30 C           4.5509   -0.4316    1.1291 C.ar    1  UNL1        0.0818
     31 C           3.8254   -1.3471    1.9874 C.2     1  UNL1        0.3387
     32 O           4.4514   -2.1996    2.6554 O.2     1  UNL1       -0.2451
     33 O           2.4476   -1.2755    2.0649 O.3     1  UNL1       -0.4771
     34 C           5.9456   -0.4814    1.0311 C.ar    1  UNL1       -0.0211
     35 H           9.8100   -0.7639   -1.4994 H       1  UNL1        0.0468
     36 H           8.1266   -0.5577   -2.0819 H       1  UNL1        0.0468
     37 H           8.4724   -1.8435   -0.8579 H       1  UNL1        0.0468
     38 H           6.4522    2.0129   -1.1593 H       1  UNL1        0.0637
     39 H           4.0181    2.1294   -1.0137 H       1  UNL1        0.0637
     40 H           2.0367    1.1866    1.2126 H       1  UNL1        0.1564
     41 H          -0.4212   -1.1137   -1.9779 H       1  UNL1        0.0468
     42 H          -1.2305   -1.5875   -0.4313 H       1  UNL1        0.0468
     43 H          -1.5997    0.9296   -2.1510 H       1  UNL1        0.0319
     44 H          -3.1805   -1.3152   -1.0825 H       1  UNL1        0.0274
     45 H          -3.7378   -0.0781   -2.3258 H       1  UNL1        0.0274
     46 H          -3.8404    1.6234   -0.7709 H       1  UNL1        0.0349
     47 H          -5.6936    1.8022   -1.8533 H       1  UNL1        0.0620
     48 H          -8.1033    1.5451   -2.0157 H       1  UNL1        0.0618
     49 H          -9.2809   -0.0796   -0.5088 H       1  UNL1        0.0618
     50 H          -7.9515   -1.3457    1.0744 H       1  UNL1        0.0623
     51 H          -3.1611    1.2747    1.6082 H       1  UNL1        0.0274
     52 H          -2.6047   -0.4269    1.0707 H       1  UNL1        0.0274
     53 H          -1.9561    2.2054   -0.1485 H       1  UNL1        0.0319
     54 H          -0.7601    0.1097    1.6079 H       1  UNL1        0.0468
     55 H           0.0532    1.6216    1.0369 H       1  UNL1        0.0468
     56 H           1.9701   -1.8485    2.7587 H       1  UNL1        0.2954
     57 H           6.4673   -1.2212    1.6130 H       1  UNL1        0.0645
@<TRIPOS>BOND
     1     1     2    1
     2     2     3    2
     3     2     4    2
     4     2     5    1
     5     5     6   ar
     6     6     7   ar
     7     7     8   ar
     8     8     9    1
     9     9    10   am
    10    10    11    2
    11    10    12   am
    12    12    13    1
    13    13    14    1
    14    14    15    1
    15    15    16    1
    16    16    17    1
    17    17    18   ar
    18    18    19   ar
    19    19    20   ar
    20    20    21   ar
    21    21    22   ar
    22    22    23    1
    23    23    24    1
    24    23    25    1
    25    23    26    1
    26    16    27    1
    27    27    28    1
    28    28    29    1
    29     8    30   ar
    30    30    31    1
    31    31    32    2
    32    31    33    1
    33    30    34   ar
    34    34     5   ar
    35    29    12    1
    36    28    14    1
    37    22    17   ar
    38     1    35    1
    39     1    36    1
    40     1    37    1
    41     6    38    1
    42     7    39    1
    43     9    40    1
    44    13    41    1
    45    13    42    1
    46    14    43    1
    47    15    44    1
    48    15    45    1
    49    16    46    1
    50    18    47    1
    51    19    48    1
    52    20    49    1
    53    21    50    1
    54    27    51    1
    55    27    52    1
    56    28    53    1
    57    29    54    1
    58    29    55    1
    59    33    56    1
    60    34    57    1
