
     RDKit          3D

 32 34  0  0  0  0  0  0  0  0999 V2000
    2.0074   -0.6564    1.4960 O   0  0  0  0  0  0  0  0  0  0  0  0
    2.4373   -0.3674    0.3692 C   0  0  0  0  0  0  0  0  0  0  0  0
    1.5245   -0.2810   -0.7093 N   0  0  0  0  0  0  0  0  0  0  0  0
    0.1253   -0.5051   -0.5947 C   0  0  0  0  0  0  0  0  0  0  0  0
   -0.3824   -1.7755   -0.7739 C   0  0  0  0  0  0  0  0  0  0  0  0
   -1.7133   -2.0283   -0.6723 N   0  0  0  0  0  0  0  0  0  0  0  0
   -2.5930   -1.0549   -0.3935 C   0  0  0  0  0  0  0  0  0  0  0  0
   -2.1046    0.2186   -0.2116 C   0  0  0  0  0  0  0  0  0  0  0  0
   -2.9678    1.2915    0.0838 O   0  0  0  0  0  0  0  0  0  0  0  0
   -4.3065    1.0180    0.1824 C   0  0  0  0  0  0  0  0  0  0  0  0
   -5.1158    1.0930   -0.9203 C   0  0  0  0  0  0  0  0  0  0  0  0
   -6.4224    0.8250   -0.8191 N   0  0  0  0  0  0  0  0  0  0  0  0
   -6.9774    0.4772    0.3553 C   0  0  0  0  0  0  0  0  0  0  0  0
   -6.1767    0.4079    1.4226 N   0  0  0  0  0  0  0  0  0  0  0  0
   -4.8572    0.6628    1.3968 C   0  0  0  0  0  0  0  0  0  0  0  0
   -0.7663    0.4608   -0.3160 N   0  0  0  0  0  0  0  0  0  0  0  0
    3.8823   -0.1224    0.1837 C   0  0  0  0  0  0  0  0  0  0  0  0
    4.7544   -0.2116    1.2474 C   0  0  0  0  0  0  0  0  0  0  0  0
    6.1000    0.0123    1.0956 C   0  0  0  0  0  0  0  0  0  0  0  0
    7.2506   -0.0842    2.3938 Cl  0  0  0  0  0  0  0  0  0  0  0  0
    6.5671    0.3326   -0.1597 C   0  0  0  0  0  0  0  0  0  0  0  0
    5.6866    0.4186   -1.2132 C   0  0  0  0  0  0  0  0  0  0  0  0
    4.3572    0.1912   -1.0327 N   0  0  0  0  0  0  0  0  0  0  0  0
    1.8975   -0.0374   -1.6514 H   0  0  0  0  0  0  0  0  0  0  0  0
    0.2701   -2.6065   -1.0009 H   0  0  0  0  0  0  0  0  0  0  0  0
   -3.6448   -1.2666   -0.3154 H   0  0  0  0  0  0  0  0  0  0  0  0
   -4.6555    1.3770   -1.8732 H   0  0  0  0  0  0  0  0  0  0  0  0
   -8.0522    0.2632    0.4078 H   0  0  0  0  0  0  0  0  0  0  0  0
   -4.2315    0.5969    2.2876 H   0  0  0  0  0  0  0  0  0  0  0  0
    4.3798   -0.4622    2.2232 H   0  0  0  0  0  0  0  0  0  0  0  0
    7.6400    0.5177   -0.3134 H   0  0  0  0  0  0  0  0  0  0  0  0
    6.0872    0.6700   -2.1745 H   0  0  0  0  0  0  0  0  0  0  0  0
  1  2  2  0
  2  3  1  0
  3  4  1  0
  4  5  2  0
  5  6  1  0
  6  7  2  0
  7  8  1  0
  8  9  1  0
  9 10  1  0
 10 11  2  0
 11 12  1  0
 12 13  2  0
 13 14  1  0
 14 15  2  0
  8 16  2  0
  2 17  1  0
 17 18  2  0
 18 19  1  0
 19 20  1  0
 19 21  2  0
 21 22  1  0
 22 23  2  0
 16  4  1  0
 23 17  1  0
 15 10  1  0
  3 24  1  0
  5 25  1  0
  7 26  1  0
 11 27  1  0
 13 28  1  0
 15 29  1  0
 18 30  1  0
 21 31  1  0
 22 32  1  0
M  END
$$$$
