@<TRIPOS>MOLECULE
*****
 32 34 0 0 0
SMALL
GASTEIGER

@<TRIPOS>ATOM
      1 O           2.0074   -0.6564    1.4960 O.2     1  UNL1       -0.2681
      2 C           2.4373   -0.3674    0.3692 C.2     1  UNL1        0.2677
      3 N           1.5245   -0.2810   -0.7093 N.am    1  UNL1       -0.2638
      4 C           0.1253   -0.5051   -0.5947 C.ar    1  UNL1        0.1473
      5 C          -0.3824   -1.7755   -0.7739 C.ar    1  UNL1        0.0679
      6 N          -1.7133   -2.0283   -0.6723 N.ar    1  UNL1       -0.2546
      7 C          -2.5930   -1.0549   -0.3935 C.ar    1  UNL1        0.0896
      8 C          -2.1046    0.2186   -0.2116 C.ar    1  UNL1        0.2407
      9 O          -2.9678    1.2915    0.0838 O.3     1  UNL1       -0.4335
     10 C          -4.3065    1.0180    0.1824 C.ar    1  UNL1        0.1664
     11 C          -5.1158    1.0930   -0.9203 C.ar    1  UNL1        0.0731
     12 N          -6.4224    0.8250   -0.8191 N.ar    1  UNL1       -0.2401
     13 C          -6.9774    0.4772    0.3553 C.ar    1  UNL1        0.1161
     14 N          -6.1767    0.4079    1.4226 N.ar    1  UNL1       -0.2401
     15 C          -4.8572    0.6628    1.3968 C.ar    1  UNL1        0.0731
     16 N          -0.7663    0.4608   -0.3160 N.ar    1  UNL1       -0.1946
     17 C           3.8823   -0.1224    0.1837 C.ar    1  UNL1        0.1271
     18 C           4.7544   -0.2116    1.2474 C.ar    1  UNL1       -0.0128
     19 C           6.1000    0.0123    1.0956 C.ar    1  UNL1        0.0446
     20 CL          7.2506   -0.0842    2.3938 Cl      1  UNL1       -0.0834
     21 C           6.5671    0.3326   -0.1597 C.ar    1  UNL1       -0.0252
     22 C           5.6866    0.4186   -1.2132 C.ar    1  UNL1        0.0298
     23 N           4.3572    0.1912   -1.0327 N.ar    1  UNL1       -0.2503
     24 H           1.8975   -0.0374   -1.6514 H       1  UNL1        0.1566
     25 H           0.2701   -2.6065   -1.0009 H       1  UNL1        0.0865
     26 H          -3.6448   -1.2666   -0.3154 H       1  UNL1        0.0884
     27 H          -4.6555    1.3770   -1.8732 H       1  UNL1        0.0868
     28 H          -8.0522    0.2632    0.4078 H       1  UNL1        0.1047
     29 H          -4.2315    0.5969    2.2876 H       1  UNL1        0.0868
     30 H           4.3798   -0.4622    2.2232 H       1  UNL1        0.0655
     31 H           7.6400    0.5177   -0.3134 H       1  UNL1        0.0647
     32 H           6.0872    0.6700   -2.1745 H       1  UNL1        0.0830
@<TRIPOS>BOND
     1     1     2    2
     2     2     3   am
     3     3     4    1
     4     4     5   ar
     5     5     6   ar
     6     6     7   ar
     7     7     8   ar
     8     8     9    1
     9     9    10    1
    10    10    11   ar
    11    11    12   ar
    12    12    13   ar
    13    13    14   ar
    14    14    15   ar
    15     8    16   ar
    16     2    17    1
    17    17    18   ar
    18    18    19   ar
    19    19    20    1
    20    19    21   ar
    21    21    22   ar
    22    22    23   ar
    23    16     4   ar
    24    23    17   ar
    25    15    10   ar
    26     3    24    1
    27     5    25    1
    28     7    26    1
    29    11    27    1
    30    13    28    1
    31    15    29    1
    32    18    30    1
    33    21    31    1
    34    22    32    1
