@<TRIPOS>MOLECULE
*****
 101 101 0 0 0
SMALL
GASTEIGER

@<TRIPOS>ATOM
      1 C           8.0019    1.1262    2.6876 C.3     1  UNL1       -0.0652
      2 C           8.6167    1.3673    1.3378 C.3     1  UNL1       -0.0538
      3 C           7.7481    0.9928    0.1868 C.3     1  UNL1       -0.0275
      4 C           6.3987    1.7283    0.1448 C.3     1  UNL1        0.0904
      5 N           5.6802    1.3044   -1.0407 N.am    1  UNL1       -0.3038
      6 C           5.1670   -0.0033   -1.2171 C.2     1  UNL1        0.2341
      7 O           5.3608   -0.8165   -0.2426 O.2     1  UNL1       -0.2738
      8 C           4.4505   -0.4534   -2.4463 C.3     1  UNL1        0.1023
      9 C           5.2006   -0.0179   -3.6887 C.3     1  UNL1       -0.0243
     10 C           4.4969    1.1665   -4.2266 C.3     1  UNL1       -0.0350
     11 C           3.1699    1.1905   -3.5646 C.3     1  UNL1        0.0156
     12 N           3.1350    0.0838   -2.5953 N.am    1  UNL1       -0.2884
     13 C           1.9255   -0.2984   -1.9578 C.2     1  UNL1        0.2368
     14 O           0.8871    0.4109   -2.2345 O.2     1  UNL1       -0.2735
     15 C           1.7649   -1.4260   -1.0182 C.3     1  UNL1        0.1019
     16 N           0.4334   -1.4236   -0.4271 N.am    1  UNL1       -0.3022
     17 C           0.1711   -1.4580    0.9780 C.2     1  UNL1        0.2342
     18 O           1.1990   -1.4752    1.7019 O.2     1  UNL1       -0.2738
     19 C          -1.2225   -1.4736    1.4962 C.3     1  UNL1        0.1020
     20 N          -2.1874   -1.4726    0.4438 N.am    1  UNL1       -0.3022
     21 C          -3.3399   -0.6500    0.5323 C.2     1  UNL1        0.2345
     22 O          -3.5207    0.0498    1.5308 O.2     1  UNL1       -0.2737
     23 C          -4.3602   -0.6098   -0.5835 C.3     1  UNL1        0.1094
     24 C          -4.7142   -1.9820   -1.0093 C.3     1  UNL1        0.0716
     25 C          -5.3085   -2.8563    0.0020 C.2     1  UNL1        0.3070
     26 O          -5.6478   -2.4004    1.1150 O.2     1  UNL1       -0.2509
     27 O          -5.5067   -4.2139   -0.2505 O.3     1  UNL1       -0.4806
     28 N          -5.4421    0.2108   -0.1047 N.am    1  UNL1       -0.3019
     29 C          -5.6484    1.5403   -0.5649 C.2     1  UNL1        0.2345
     30 O          -4.8972    2.0555   -1.4206 O.2     1  UNL1       -0.2737
     31 C          -6.7976    2.2663    0.0403 C.3     1  UNL1        0.1094
     32 C          -8.1058    1.5238   -0.1723 C.3     1  UNL1        0.0716
     33 C          -9.1624    2.3439    0.4789 C.2     1  UNL1        0.3070
     34 O          -9.3238    2.2770    1.7446 O.2     1  UNL1       -0.2509
     35 O         -10.0042    3.1998   -0.2319 O.3     1  UNL1       -0.4806
     36 N          -6.8974    3.6457   -0.3616 N.am    1  UNL1       -0.3037
     37 C          -6.6192    4.7074    0.5714 C.2     1  UNL1        0.2105
     38 C          -6.7139    6.1265    0.1918 C.3     1  UNL1        0.0122
     39 O          -6.2914    4.3911    1.7241 O.2     1  UNL1       -0.2761
     40 C          -1.4472   -2.5966    2.5068 C.3     1  UNL1       -0.0171
     41 C          -1.1879   -3.9584    1.9776 C.3     1  UNL1       -0.0603
     42 C          -0.7265   -2.2565    3.7859 C.3     1  UNL1       -0.0512
     43 C          -0.9078   -3.3386    4.8367 C.3     1  UNL1       -0.0650
     44 C           1.7842   -2.7654   -1.7838 C.3     1  UNL1       -0.0197
     45 C           0.6752   -2.8498   -2.7929 C.3     1  UNL1       -0.0605
     46 C           1.5545   -3.9081   -0.7896 C.3     1  UNL1       -0.0605
     47 C           6.4754    3.1458    0.4053 C.2     1  UNL1        0.2553
     48 O           7.1425    3.5197    1.3584 O.2     1  UNL1       -0.2860
     49 C           5.8030    4.1770   -0.4027 C.3     1  UNL1        0.4525
     50 F           6.1433    4.1198   -1.7479 F       1  UNL1       -0.1633
     51 F           4.4391    4.0924   -0.1930 F       1  UNL1       -0.1633
     52 F           6.1815    5.4520    0.0404 F       1  UNL1       -0.1633
     53 H           8.4741    1.8461    3.4111 H       1  UNL1        0.0230
     54 H           6.9110    1.1672    2.7237 H       1  UNL1        0.0230
     55 H           8.2635    0.1020    3.0979 H       1  UNL1        0.0230
     56 H           9.1328    2.3432    1.2315 H       1  UNL1        0.0263
     57 H           9.4886    0.6218    1.2931 H       1  UNL1        0.0263
     58 H           7.5250   -0.1176    0.3334 H       1  UNL1        0.0287
     59 H           8.3048    1.0489   -0.7530 H       1  UNL1        0.0287
     60 H           5.8482    1.1974    1.0005 H       1  UNL1        0.0580
     61 H           5.4893    1.9639   -1.8573 H       1  UNL1        0.1494
     62 H           4.5219   -1.5581   -2.4433 H       1  UNL1        0.0597
     63 H           5.2528   -0.8489   -4.4240 H       1  UNL1        0.0288
     64 H           6.2385    0.2402   -3.3312 H       1  UNL1        0.0288
     65 H           5.0675    2.1198   -4.1920 H       1  UNL1        0.0281
     66 H           4.3567    0.9962   -5.3475 H       1  UNL1        0.0281
     67 H           2.9439    2.1185   -3.0446 H       1  UNL1        0.0465
     68 H           2.3450    1.0291   -4.3198 H       1  UNL1        0.0465
     69 H           2.5914   -1.4538   -0.3244 H       1  UNL1        0.0597
     70 H          -0.3838   -1.3854   -1.0667 H       1  UNL1        0.1495
     71 H          -1.3544   -0.5442    2.1327 H       1  UNL1        0.0597
     72 H          -2.0811   -2.0625   -0.3981 H       1  UNL1        0.1495
     73 H          -3.9093   -0.0919   -1.4624 H       1  UNL1        0.0600
     74 H          -3.8163   -2.4848   -1.4376 H       1  UNL1        0.0401
     75 H          -5.4356   -1.9189   -1.8792 H       1  UNL1        0.0401
     76 H          -5.5040   -4.8643    0.5473 H       1  UNL1        0.2951
     77 H          -6.1246   -0.1704    0.6224 H       1  UNL1        0.1495
     78 H          -6.6304    2.2686    1.1616 H       1  UNL1        0.0600
     79 H          -8.0925    0.5481    0.3663 H       1  UNL1        0.0401
     80 H          -8.3517    1.3774   -1.2465 H       1  UNL1        0.0401
     81 H         -10.9574    3.3570    0.0349 H       1  UNL1        0.2951
     82 H          -7.1708    3.9210   -1.3194 H       1  UNL1        0.1495
     83 H          -7.1560    6.2275   -0.8362 H       1  UNL1        0.0322
     84 H          -5.7073    6.5959    0.1367 H       1  UNL1        0.0322
     85 H          -7.2995    6.7206    0.9506 H       1  UNL1        0.0322
     86 H          -2.5494   -2.5728    2.8083 H       1  UNL1        0.0321
     87 H          -1.5034   -4.0914    0.9167 H       1  UNL1        0.0233
     88 H          -1.7615   -4.7148    2.5874 H       1  UNL1        0.0233
     89 H          -0.1249   -4.2661    2.0337 H       1  UNL1        0.0233
     90 H           0.3299   -2.0274    3.6950 H       1  UNL1        0.0266
     91 H          -1.1831   -1.3311    4.2634 H       1  UNL1        0.0266
     92 H          -0.7101   -2.8350    5.8297 H       1  UNL1        0.0230
     93 H          -0.1862   -4.1546    4.7580 H       1  UNL1        0.0230
     94 H          -1.9524   -3.6464    4.8730 H       1  UNL1        0.0230
     95 H           2.7663   -2.9146   -2.1856 H       1  UNL1        0.0318
     96 H           1.1853   -3.1939   -3.7512 H       1  UNL1        0.0233
     97 H          -0.0757   -3.6476   -2.5717 H       1  UNL1        0.0233
     98 H           0.2290   -1.8786   -3.0681 H       1  UNL1        0.0233
     99 H           2.4226   -3.8470   -0.0712 H       1  UNL1        0.0233
    100 H           1.7229   -4.8501   -1.3520 H       1  UNL1        0.0233
    101 H           0.5848   -3.8491   -0.2908 H       1  UNL1        0.0233
@<TRIPOS>BOND
     1     1     2    1
     2     2     3    1
     3     3     4    1
     4     4     5    1
     5     5     6   am
     6     6     7    2
     7     6     8    1
     8     8     9    1
     9     9    10    1
    10    10    11    1
    11    11    12    1
    12    12    13   am
    13    13    14    2
    14    13    15    1
    15    15    16    1
    16    16    17   am
    17    17    18    2
    18    17    19    1
    19    19    20    1
    20    20    21   am
    21    21    22    2
    22    21    23    1
    23    23    24    1
    24    24    25    1
    25    25    26    2
    26    25    27    1
    27    23    28    1
    28    28    29   am
    29    29    30    2
    30    29    31    1
    31    31    32    1
    32    32    33    1
    33    33    34    2
    34    33    35    1
    35    31    36    1
    36    36    37   am
    37    37    38    1
    38    37    39    2
    39    19    40    1
    40    40    41    1
    41    40    42    1
    42    42    43    1
    43    15    44    1
    44    44    45    1
    45    44    46    1
    46     4    47    1
    47    47    48    2
    48    47    49    1
    49    49    50    1
    50    49    51    1
    51    49    52    1
    52    12     8    1
    53     1    53    1
    54     1    54    1
    55     1    55    1
    56     2    56    1
    57     2    57    1
    58     3    58    1
    59     3    59    1
    60     4    60    1
    61     5    61    1
    62     8    62    1
    63     9    63    1
    64     9    64    1
    65    10    65    1
    66    10    66    1
    67    11    67    1
    68    11    68    1
    69    15    69    1
    70    16    70    1
    71    19    71    1
    72    20    72    1
    73    23    73    1
    74    24    74    1
    75    24    75    1
    76    27    76    1
    77    28    77    1
    78    31    78    1
    79    32    79    1
    80    32    80    1
    81    35    81    1
    82    36    82    1
    83    38    83    1
    84    38    84    1
    85    38    85    1
    86    40    86    1
    87    41    87    1
    88    41    88    1
    89    41    89    1
    90    42    90    1
    91    42    91    1
    92    43    92    1
    93    43    93    1
    94    43    94    1
    95    44    95    1
    96    45    96    1
    97    45    97    1
    98    45    98    1
    99    46    99    1
   100    46   100    1
   101    46   101    1
