
     RDKit          3D

101101  0  0  0  0  0  0  0  0999 V2000
    8.0019    1.1262    2.6876 C   0  0  0  0  0  0  0  0  0  0  0  0
    8.6167    1.3673    1.3378 C   0  0  0  0  0  0  0  0  0  0  0  0
    7.7481    0.9928    0.1868 C   0  0  0  0  0  0  0  0  0  0  0  0
    6.3987    1.7283    0.1448 C   0  0  2  0  0  0  0  0  0  0  0  0
    5.6802    1.3044   -1.0407 N   0  0  0  0  0  0  0  0  0  0  0  0
    5.1670   -0.0033   -1.2171 C   0  0  0  0  0  0  0  0  0  0  0  0
    5.3608   -0.8165   -0.2426 O   0  0  0  0  0  0  0  0  0  0  0  0
    4.4505   -0.4534   -2.4463 C   0  0  2  0  0  0  0  0  0  0  0  0
    5.2006   -0.0179   -3.6887 C   0  0  0  0  0  0  0  0  0  0  0  0
    4.4969    1.1665   -4.2266 C   0  0  0  0  0  0  0  0  0  0  0  0
    3.1699    1.1905   -3.5646 C   0  0  0  0  0  0  0  0  0  0  0  0
    3.1350    0.0838   -2.5953 N   0  0  0  0  0  0  0  0  0  0  0  0
    1.9255   -0.2984   -1.9578 C   0  0  0  0  0  0  0  0  0  0  0  0
    0.8871    0.4109   -2.2345 O   0  0  0  0  0  0  0  0  0  0  0  0
    1.7649   -1.4260   -1.0182 C   0  0  1  0  0  0  0  0  0  0  0  0
    0.4334   -1.4236   -0.4271 N   0  0  0  0  0  0  0  0  0  0  0  0
    0.1711   -1.4580    0.9780 C   0  0  0  0  0  0  0  0  0  0  0  0
    1.1990   -1.4752    1.7019 O   0  0  0  0  0  0  0  0  0  0  0  0
   -1.2225   -1.4736    1.4962 C   0  0  1  0  0  0  0  0  0  0  0  0
   -2.1874   -1.4726    0.4438 N   0  0  0  0  0  0  0  0  0  0  0  0
   -3.3399   -0.6500    0.5323 C   0  0  0  0  0  0  0  0  0  0  0  0
   -3.5207    0.0498    1.5308 O   0  0  0  0  0  0  0  0  0  0  0  0
   -4.3602   -0.6098   -0.5835 C   0  0  1  0  0  0  0  0  0  0  0  0
   -4.7142   -1.9820   -1.0093 C   0  0  0  0  0  0  0  0  0  0  0  0
   -5.3085   -2.8563    0.0020 C   0  0  0  0  0  0  0  0  0  0  0  0
   -5.6478   -2.4004    1.1150 O   0  0  0  0  0  0  0  0  0  0  0  0
   -5.5067   -4.2139   -0.2505 O   0  0  0  0  0  0  0  0  0  0  0  0
   -5.4421    0.2108   -0.1047 N   0  0  0  0  0  0  0  0  0  0  0  0
   -5.6484    1.5403   -0.5649 C   0  0  0  0  0  0  0  0  0  0  0  0
   -4.8972    2.0555   -1.4206 O   0  0  0  0  0  0  0  0  0  0  0  0
   -6.7976    2.2663    0.0403 C   0  0  2  0  0  0  0  0  0  0  0  0
   -8.1058    1.5238   -0.1723 C   0  0  0  0  0  0  0  0  0  0  0  0
   -9.1624    2.3439    0.4789 C   0  0  0  0  0  0  0  0  0  0  0  0
   -9.3238    2.2770    1.7446 O   0  0  0  0  0  0  0  0  0  0  0  0
  -10.0042    3.1998   -0.2319 O   0  0  0  0  0  0  0  0  0  0  0  0
   -6.8974    3.6457   -0.3616 N   0  0  0  0  0  0  0  0  0  0  0  0
   -6.6192    4.7074    0.5714 C   0  0  0  0  0  0  0  0  0  0  0  0
   -6.7139    6.1265    0.1918 C   0  0  0  0  0  0  0  0  0  0  0  0
   -6.2914    4.3911    1.7241 O   0  0  0  0  0  0  0  0  0  0  0  0
   -1.4472   -2.5966    2.5068 C   0  0  1  0  0  0  0  0  0  0  0  0
   -1.1879   -3.9584    1.9776 C   0  0  0  0  0  0  0  0  0  0  0  0
   -0.7265   -2.2565    3.7859 C   0  0  0  0  0  0  0  0  0  0  0  0
   -0.9078   -3.3386    4.8367 C   0  0  0  0  0  0  0  0  0  0  0  0
    1.7842   -2.7654   -1.7838 C   0  0  0  0  0  0  0  0  0  0  0  0
    0.6752   -2.8498   -2.7929 C   0  0  0  0  0  0  0  0  0  0  0  0
    1.5545   -3.9081   -0.7896 C   0  0  0  0  0  0  0  0  0  0  0  0
    6.4754    3.1458    0.4053 C   0  0  0  0  0  0  0  0  0  0  0  0
    7.1425    3.5197    1.3584 O   0  0  0  0  0  0  0  0  0  0  0  0
    5.8030    4.1770   -0.4027 C   0  0  0  0  0  0  0  0  0  0  0  0
    6.1433    4.1198   -1.7479 F   0  0  0  0  0  0  0  0  0  0  0  0
    4.4391    4.0924   -0.1930 F   0  0  0  0  0  0  0  0  0  0  0  0
    6.1815    5.4520    0.0404 F   0  0  0  0  0  0  0  0  0  0  0  0
    8.4741    1.8461    3.4111 H   0  0  0  0  0  0  0  0  0  0  0  0
    6.9110    1.1672    2.7237 H   0  0  0  0  0  0  0  0  0  0  0  0
    8.2635    0.1020    3.0979 H   0  0  0  0  0  0  0  0  0  0  0  0
    9.1328    2.3432    1.2315 H   0  0  0  0  0  0  0  0  0  0  0  0
    9.4886    0.6218    1.2931 H   0  0  0  0  0  0  0  0  0  0  0  0
    7.5250   -0.1176    0.3334 H   0  0  0  0  0  0  0  0  0  0  0  0
    8.3048    1.0489   -0.7530 H   0  0  0  0  0  0  0  0  0  0  0  0
    5.8482    1.1974    1.0005 H   0  0  0  0  0  0  0  0  0  0  0  0
    5.4893    1.9639   -1.8573 H   0  0  0  0  0  0  0  0  0  0  0  0
    4.5219   -1.5581   -2.4433 H   0  0  0  0  0  0  0  0  0  0  0  0
    5.2528   -0.8489   -4.4240 H   0  0  0  0  0  0  0  0  0  0  0  0
    6.2385    0.2402   -3.3312 H   0  0  0  0  0  0  0  0  0  0  0  0
    5.0675    2.1198   -4.1920 H   0  0  0  0  0  0  0  0  0  0  0  0
    4.3567    0.9962   -5.3475 H   0  0  0  0  0  0  0  0  0  0  0  0
    2.9439    2.1185   -3.0446 H   0  0  0  0  0  0  0  0  0  0  0  0
    2.3450    1.0291   -4.3198 H   0  0  0  0  0  0  0  0  0  0  0  0
    2.5914   -1.4538   -0.3244 H   0  0  0  0  0  0  0  0  0  0  0  0
   -0.3838   -1.3854   -1.0667 H   0  0  0  0  0  0  0  0  0  0  0  0
   -1.3544   -0.5442    2.1327 H   0  0  0  0  0  0  0  0  0  0  0  0
   -2.0811   -2.0625   -0.3981 H   0  0  0  0  0  0  0  0  0  0  0  0
   -3.9093   -0.0919   -1.4624 H   0  0  0  0  0  0  0  0  0  0  0  0
   -3.8163   -2.4848   -1.4376 H   0  0  0  0  0  0  0  0  0  0  0  0
   -5.4356   -1.9189   -1.8792 H   0  0  0  0  0  0  0  0  0  0  0  0
   -5.5040   -4.8643    0.5473 H   0  0  0  0  0  0  0  0  0  0  0  0
   -6.1246   -0.1704    0.6224 H   0  0  0  0  0  0  0  0  0  0  0  0
   -6.6304    2.2686    1.1616 H   0  0  0  0  0  0  0  0  0  0  0  0
   -8.0925    0.5481    0.3663 H   0  0  0  0  0  0  0  0  0  0  0  0
   -8.3517    1.3774   -1.2465 H   0  0  0  0  0  0  0  0  0  0  0  0
  -10.9574    3.3570    0.0349 H   0  0  0  0  0  0  0  0  0  0  0  0
   -7.1708    3.9210   -1.3194 H   0  0  0  0  0  0  0  0  0  0  0  0
   -7.1560    6.2275   -0.8362 H   0  0  0  0  0  0  0  0  0  0  0  0
   -5.7073    6.5959    0.1367 H   0  0  0  0  0  0  0  0  0  0  0  0
   -7.2995    6.7206    0.9506 H   0  0  0  0  0  0  0  0  0  0  0  0
   -2.5494   -2.5728    2.8083 H   0  0  0  0  0  0  0  0  0  0  0  0
   -1.5034   -4.0914    0.9167 H   0  0  0  0  0  0  0  0  0  0  0  0
   -1.7615   -4.7148    2.5874 H   0  0  0  0  0  0  0  0  0  0  0  0
   -0.1249   -4.2661    2.0337 H   0  0  0  0  0  0  0  0  0  0  0  0
    0.3299   -2.0274    3.6950 H   0  0  0  0  0  0  0  0  0  0  0  0
   -1.1831   -1.3311    4.2634 H   0  0  0  0  0  0  0  0  0  0  0  0
   -0.7101   -2.8350    5.8297 H   0  0  0  0  0  0  0  0  0  0  0  0
   -0.1862   -4.1546    4.7580 H   0  0  0  0  0  0  0  0  0  0  0  0
   -1.9524   -3.6464    4.8730 H   0  0  0  0  0  0  0  0  0  0  0  0
    2.7663   -2.9146   -2.1856 H   0  0  0  0  0  0  0  0  0  0  0  0
    1.1853   -3.1939   -3.7512 H   0  0  0  0  0  0  0  0  0  0  0  0
   -0.0757   -3.6476   -2.5717 H   0  0  0  0  0  0  0  0  0  0  0  0
    0.2290   -1.8786   -3.0681 H   0  0  0  0  0  0  0  0  0  0  0  0
    2.4226   -3.8470   -0.0712 H   0  0  0  0  0  0  0  0  0  0  0  0
    1.7229   -4.8501   -1.3520 H   0  0  0  0  0  0  0  0  0  0  0  0
    0.5848   -3.8491   -0.2908 H   0  0  0  0  0  0  0  0  0  0  0  0
  1  2  1  0
  2  3  1  0
  3  4  1  0
  4  5  1  0
  5  6  1  0
  6  7  2  0
  6  8  1  0
  8  9  1  0
  9 10  1  0
 10 11  1  0
 11 12  1  0
 12 13  1  0
 13 14  2  0
 13 15  1  0
 15 16  1  0
 16 17  1  0
 17 18  2  0
 17 19  1  0
 19 20  1  0
 20 21  1  0
 21 22  2  0
 21 23  1  0
 23 24  1  0
 24 25  1  0
 25 26  2  0
 25 27  1  0
 23 28  1  0
 28 29  1  0
 29 30  2  0
 29 31  1  0
 31 32  1  0
 32 33  1  0
 33 34  2  0
 33 35  1  0
 31 36  1  0
 36 37  1  0
 37 38  1  0
 37 39  2  0
 19 40  1  0
 40 41  1  0
 40 42  1  0
 42 43  1  0
 15 44  1  0
 44 45  1  0
 44 46  1  0
  4 47  1  0
 47 48  2  0
 47 49  1  0
 49 50  1  0
 49 51  1  0
 49 52  1  0
 12  8  1  0
  1 53  1  0
  1 54  1  0
  1 55  1  0
  2 56  1  0
  2 57  1  0
  3 58  1  0
  3 59  1  0
  4 60  1  1
  5 61  1  0
  8 62  1  1
  9 63  1  0
  9 64  1  0
 10 65  1  0
 10 66  1  0
 11 67  1  0
 11 68  1  0
 15 69  1  1
 16 70  1  0
 19 71  1  1
 20 72  1  0
 23 73  1  6
 24 74  1  0
 24 75  1  0
 27 76  1  0
 28 77  1  0
 31 78  1  1
 32 79  1  0
 32 80  1  0
 35 81  1  0
 36 82  1  0
 38 83  1  0
 38 84  1  0
 38 85  1  0
 40 86  1  1
 41 87  1  0
 41 88  1  0
 41 89  1  0
 42 90  1  0
 42 91  1  0
 43 92  1  0
 43 93  1  0
 43 94  1  0
 44 95  1  0
 45 96  1  0
 45 97  1  0
 45 98  1  0
 46 99  1  0
 46100  1  0
 46101  1  0
M  END
$$$$
