@<TRIPOS>MOLECULE
*****
 32 34 0 0 0
SMALL
GASTEIGER

@<TRIPOS>ATOM
      1 C           0.5616    1.4797    0.7391 C.3     1  UNL1       -0.0358
      2 C           0.1656    0.3328   -0.1984 C.3     1  UNL1        0.1351
      3 C           1.2197    0.0517   -1.2049 C.3     1  UNL1        0.0703
      4 N           2.4976   -0.3202   -0.6648 N.ar    1  UNL1       -0.2495
      5 C           2.9606   -1.5354   -0.3813 C.ar    1  UNL1        0.0455
      6 C           4.2324   -1.3785    0.1187 C.ar    1  UNL1        0.0693
      7 N           4.4983   -0.0641    0.1208 N.ar    1  UNL1       -0.1380
      8 N           3.4398    0.5491   -0.3547 N.ar    1  UNL1       -0.0657
      9 C          -1.1582    0.7235   -0.8125 C.3     1  UNL1        0.1508
     10 C          -1.5189    2.1450   -0.5634 C.2     1  UNL1        0.3278
     11 O          -2.6147    2.4126   -0.0178 O.2     1  UNL1       -0.2488
     12 O          -0.6927    3.2017   -0.9095 O.3     1  UNL1       -0.4793
     13 N          -2.1753   -0.1764   -0.3874 N.am    1  UNL1       -0.2632
     14 C          -3.3290   -1.0093   -0.3992 C.2     1  UNL1        0.2212
     15 O          -4.3343   -1.1735   -1.1384 O.2     1  UNL1       -0.2754
     16 C          -2.9514   -1.7076    0.8648 C.3     1  UNL1        0.0629
     17 C          -1.9909   -0.5844    1.0191 C.3     1  UNL1        0.1536
     18 S          -0.2470   -1.0409    0.8491 S.O2    1  UNL1       -0.0022
     19 O           0.4514   -1.0250    2.1502 O.2     1  UNL1       -0.1719
     20 O          -0.1600   -2.3518    0.1210 O.2     1  UNL1       -0.1719
     21 H           1.0917    1.0744    1.6296 H       1  UNL1        0.0252
     22 H           1.1111    2.2699    0.2312 H       1  UNL1        0.0252
     23 H          -0.3878    1.8965    1.1287 H       1  UNL1        0.0252
     24 H           1.3417    0.9912   -1.8141 H       1  UNL1        0.0532
     25 H           0.8569   -0.7000   -1.9491 H       1  UNL1        0.0532
     26 H           2.4811   -2.5059   -0.5003 H       1  UNL1        0.0842
     27 H           4.8867   -2.1809    0.4464 H       1  UNL1        0.0864
     28 H          -1.0127    0.6436   -1.9204 H       1  UNL1        0.0640
     29 H          -0.8256    4.1173   -0.4942 H       1  UNL1        0.2951
     30 H          -3.7588   -1.6488    1.6271 H       1  UNL1        0.0393
     31 H          -2.4633   -2.6758    0.7470 H       1  UNL1        0.0393
     32 H          -2.1755    0.1893    1.7574 H       1  UNL1        0.0750
@<TRIPOS>BOND
     1     2     1    1
     2     2     3    1
     3     3     4    1
     4     4     5   ar
     5     5     6   ar
     6     6     7   ar
     7     7     8   ar
     8     2     9    1
     9     9    10    1
    10    10    11    2
    11    10    12    1
    12     9    13    1
    13    13    14   am
    14    14    15    2
    15    14    16    1
    16    16    17    1
    17    17    18    1
    18    18    19    2
    19    18    20    2
    20    18     2    1
    21     8     4   ar
    22    17    13    1
    23     1    21    1
    24     1    22    1
    25     1    23    1
    26     3    24    1
    27     3    25    1
    28     5    26    1
    29     6    27    1
    30     9    28    1
    31    12    29    1
    32    16    30    1
    33    16    31    1
    34    17    32    1
