@<TRIPOS>MOLECULE
*****
 59 64 0 0 0
SMALL
GASTEIGER

@<TRIPOS>ATOM
      1 C           1.0307    0.1527    1.2929 C.3     1  UNL1       -0.0351
      2 C          -0.4399    0.0935    0.7652 C.3     1  UNL1        0.0935
      3 C          -0.4190    0.9140   -0.4778 C.ar    1  UNL1        0.0158
      4 C           0.7488    1.3075   -1.0883 C.ar    1  UNL1       -0.0463
      5 C           0.8323    2.1027   -2.2016 C.ar    1  UNL1       -0.0217
      6 C           1.9351    2.6542   -2.8791 C.2     1  UNL1       -0.0172
      7 C           3.0267    2.2996   -3.4530 C.2     1  UNL1        0.1492
      8 F           3.3120    0.9719   -3.4671 F       1  UNL1       -0.2032
      9 C           3.9161    3.2282   -4.1449 C.ar    1  UNL1        0.0990
     10 C           3.4393    4.5494   -4.4511 C.ar    1  UNL1       -0.0322
     11 C           4.3540    5.3831   -5.0292 C.ar    1  UNL1       -0.0408
     12 C           5.6325    5.1026   -5.3352 C.ar    1  UNL1        0.0699
     13 C           6.5026    6.1629   -5.9194 C.1     1  UNL1        0.1007
     14 N           7.1504    6.9779   -6.3750 N.1     1  UNL1       -0.1908
     15 C           6.0801    3.8057   -5.0302 C.ar    1  UNL1        0.0457
     16 N           5.1579    3.0022   -4.4607 N.ar    1  UNL1       -0.2514
     17 C          -0.4214    2.5285   -2.7415 C.ar    1  UNL1       -0.0518
     18 C          -1.5903    2.1604   -2.1718 C.ar    1  UNL1       -0.0255
     19 C          -1.6090    1.3592   -1.0438 C.ar    1  UNL1        0.1289
     20 F          -2.7913    1.1062   -0.4707 F       1  UNL1       -0.2051
     21 N          -1.1380    0.8625    1.7565 N.2     1  UNL1       -0.2521
     22 C          -2.0784    0.6032    2.5480 C.2     1  UNL1        0.1485
     23 N          -2.4679    1.7148    3.3752 N.pl3   1  UNL1       -0.3380
     24 S          -2.7582   -1.0075    2.5330 S.3     1  UNL1       -0.0746
     25 C          -1.7403   -2.0054    1.3811 C.3     1  UNL1        0.1054
     26 C          -1.8093   -3.4269    1.6725 C.2     1  UNL1        0.2328
     27 O          -1.9903   -4.2663    0.7137 O.2     1  UNL1       -0.2740
     28 N          -1.7145   -4.0497    2.9354 N.am    1  UNL1       -0.2925
     29 C          -1.3530   -3.4159    4.1704 C.3     1  UNL1        0.0385
     30 C          -2.4982   -3.6897    5.1717 C.3     1  UNL1        0.0638
     31 O          -3.6162   -4.2258    4.5465 O.3     1  UNL1       -0.3731
     32 C          -3.3450   -5.4727    4.0065 C.3     1  UNL1        0.0791
     33 C          -3.5620   -5.6930    2.5482 C.3     1  UNL1       -0.0037
     34 C          -2.1481   -5.4674    3.1128 C.3     1  UNL1        0.0547
     35 C          -1.9919   -1.7501   -0.1306 C.3     1  UNL1       -0.0220
     36 C          -0.7439   -1.3150    0.6153 C.3     1  UNL1        0.0134
     37 H           1.6941   -0.4912    0.7308 H       1  UNL1        0.0256
     38 H           1.4100    1.1882    1.2756 H       1  UNL1        0.0256
     39 H           1.0405   -0.2117    2.3644 H       1  UNL1        0.0256
     40 H           1.7250    0.9820   -0.6956 H       1  UNL1        0.0628
     41 H           1.8727    3.8352   -2.8790 H       1  UNL1        0.0653
     42 H           2.4422    4.8094   -4.2476 H       1  UNL1        0.0640
     43 H           4.0100    6.4250   -5.3023 H       1  UNL1        0.0631
     44 H           7.0866    3.5548   -5.2621 H       1  UNL1        0.0843
     45 H          -0.4328    3.1666   -3.6107 H       1  UNL1        0.0624
     46 H          -2.5356    2.4926   -2.6040 H       1  UNL1        0.0646
     47 H          -2.6472    2.6306    2.8364 H       1  UNL1        0.1442
     48 H          -2.5652    1.6446    4.3617 H       1  UNL1        0.1442
     49 H          -1.2102   -2.3424    4.0062 H       1  UNL1        0.0487
     50 H          -0.4255   -3.8936    4.6072 H       1  UNL1        0.0487
     51 H          -2.7974   -2.6685    5.5379 H       1  UNL1        0.0575
     52 H          -2.1376   -4.3148    5.9984 H       1  UNL1        0.0575
     53 H          -3.4773   -6.3413    4.6473 H       1  UNL1        0.0615
     54 H          -3.8504   -6.6933    2.2081 H       1  UNL1        0.0310
     55 H          -3.9990   -4.8724    1.9563 H       1  UNL1        0.0310
     56 H          -1.4636   -6.2768    3.0976 H       1  UNL1        0.0527
     57 H          -1.8692   -2.6602   -0.8008 H       1  UNL1        0.0287
     58 H          -2.9180   -1.2149   -0.2357 H       1  UNL1        0.0287
     59 H           0.1556   -2.0055    0.3439 H       1  UNL1        0.0346
@<TRIPOS>BOND
     1     2     1    1
     2     2     3    1
     3     3     4   ar
     4     4     5   ar
     5     5     6    1
     6     6     7    2
     7     7     8    1
     8     7     9    1
     9     9    10   ar
    10    10    11   ar
    11    11    12   ar
    12    12    13    1
    13    13    14    3
    14    12    15   ar
    15    15    16   ar
    16     5    17   ar
    17    17    18   ar
    18    18    19   ar
    19    19    20    1
    20     2    21    1
    21    21    22    2
    22    22    23    1
    23    22    24    1
    24    24    25    1
    25    25    26    1
    26    26    27    2
    27    26    28   am
    28    28    29    1
    29    29    30    1
    30    30    31    1
    31    31    32    1
    32    32    33    1
    33    33    34    1
    34    25    35    1
    35    35    36    1
    36    36     2    1
    37    19     3   ar
    38    36    25    1
    39    16     9   ar
    40    34    28    1
    41    34    32    1
    42     1    37    1
    43     1    38    1
    44     1    39    1
    45     4    40    1
    46     6    41    1
    47    10    42    1
    48    11    43    1
    49    15    44    1
    50    17    45    1
    51    18    46    1
    52    23    47    1
    53    23    48    1
    54    29    49    1
    55    29    50    1
    56    30    51    1
    57    30    52    1
    58    32    53    1
    59    33    54    1
    60    33    55    1
    61    34    56    1
    62    35    57    1
    63    35    58    1
    64    36    59    1
