@<TRIPOS>MOLECULE
*****
 56 61 0 0 0
SMALL
GASTEIGER

@<TRIPOS>ATOM
      1 N          10.2380    2.7904   -0.6827 N.1     1  UNL1       -0.1908
      2 C           9.2441    2.3185   -0.9986 C.1     1  UNL1        0.1007
      3 C           7.9771    1.7230   -1.3748 C.ar    1  UNL1        0.0699
      4 C           7.7456    0.4281   -1.5972 C.ar    1  UNL1       -0.0407
      5 C           6.5137   -0.0831   -1.8835 C.ar    1  UNL1       -0.0300
      6 C           5.4038    0.7411   -1.9580 C.ar    1  UNL1        0.1257
      7 C           4.0715    0.2540   -2.1887 C.2     1  UNL1        0.2666
      8 O           3.7997   -0.9606   -2.3031 O.2     1  UNL1       -0.2682
      9 N           2.9356    1.1433   -2.2981 N.am    1  UNL1       -0.2802
     10 C           1.6109    0.6454   -2.4585 C.ar    1  UNL1        0.0343
     11 C           1.0313    0.2883   -3.6096 C.ar    1  UNL1       -0.0370
     12 C          -0.2576   -0.1947   -3.6106 C.ar    1  UNL1       -0.0172
     13 C          -0.9408   -0.2994   -2.3789 C.ar    1  UNL1        0.1346
     14 C          -0.3856    0.0556   -1.2488 C.ar    1  UNL1        0.0287
     15 C           0.9183    0.5430   -1.2362 C.ar    1  UNL1       -0.0312
     16 C          -1.1386    0.1157    0.0630 C.3     1  UNL1        0.1265
     17 C          -1.5971    1.6358    0.0375 C.3     1  UNL1        0.0155
     18 C          -1.4940    2.2284    1.4124 C.3     1  UNL1        0.0953
     19 O          -0.1785    2.0411    1.8806 O.2     1  UNL1       -0.4658
     20 C           0.2002    0.5616    2.0364 C.2     1  UNL1        0.2763
     21 N           1.0318    0.5603    3.2010 N.pl3   1  UNL1       -0.3134
     22 N          -0.2890   -0.0613    1.1964 N.2     1  UNL1       -0.2205
     23 C          -2.3784   -0.6111   -0.0215 C.ar    1  UNL1        0.0334
     24 C          -3.1864   -0.8564    1.0984 C.ar    1  UNL1       -0.0262
     25 C          -4.4196   -1.3980    1.0533 C.ar    1  UNL1        0.0748
     26 C          -5.2074   -1.7912    2.2076 C.ar    1  UNL1        0.0061
     27 C          -6.4216   -2.4816    2.0313 C.ar    1  UNL1       -0.0342
     28 C          -7.1067   -2.9592    3.1106 C.ar    1  UNL1        0.0313
     29 N          -6.6919   -2.8168    4.3822 N.ar    1  UNL1       -0.2276
     30 C          -5.5289   -2.1488    4.5970 C.ar    1  UNL1        0.2138
     31 F          -5.0691   -1.9453    5.8217 F       1  UNL1       -0.1839
     32 C          -4.8032   -1.6469    3.4883 C.ar    1  UNL1        0.0019
     33 N          -4.9408   -1.7420   -0.2150 N.ar    1  UNL1       -0.2161
     34 C          -4.1875   -1.5147   -1.2516 C.ar    1  UNL1        0.2567
     35 F          -4.7193   -1.8723   -2.4759 F       1  UNL1       -0.1799
     36 C          -2.9355   -0.9756   -1.2269 C.ar    1  UNL1        0.1883
     37 O          -2.2467   -0.8328   -2.4403 O.3     1  UNL1       -0.4508
     38 N           5.6408    2.0419   -1.7374 N.ar    1  UNL1       -0.2491
     39 C           6.8247    2.6016   -1.4545 C.ar    1  UNL1        0.0458
     40 H           8.6406   -0.2501   -1.5573 H       1  UNL1        0.0631
     41 H           6.3918   -1.1321   -2.0488 H       1  UNL1        0.0641
     42 H           3.1535    2.1663   -2.2570 H       1  UNL1        0.1552
     43 H           1.5444    0.3637   -4.5865 H       1  UNL1        0.0637
     44 H          -0.7612   -0.4982   -4.4859 H       1  UNL1        0.0655
     45 H           1.3675    0.8253   -0.2991 H       1  UNL1        0.0641
     46 H          -2.6336    1.6358   -0.2866 H       1  UNL1        0.0328
     47 H          -0.9389    2.1258   -0.6734 H       1  UNL1        0.0328
     48 H          -1.7806    3.3071    1.4187 H       1  UNL1        0.0698
     49 H          -2.2117    1.7276    2.0740 H       1  UNL1        0.0698
     50 H           1.9768    0.9886    3.1294 H       1  UNL1        0.1466
     51 H           0.6961    0.1474    4.0836 H       1  UNL1        0.1466
     52 H          -2.7582   -0.5913    2.0666 H       1  UNL1        0.0644
     53 H          -6.8239   -2.6393    1.0232 H       1  UNL1        0.0639
     54 H          -8.0577   -3.5099    2.9940 H       1  UNL1        0.0831
     55 H          -3.8850   -1.1315    3.7221 H       1  UNL1        0.0669
     56 H           7.0169    3.6266   -1.2846 H       1  UNL1        0.0843
@<TRIPOS>BOND
     1     1     2    3
     2     2     3    1
     3     3     4   ar
     4     4     5   ar
     5     5     6   ar
     6     6     7    1
     7     7     8    2
     8     7     9   am
     9     9    10    1
    10    10    11   ar
    11    11    12   ar
    12    12    13   ar
    13    13    14   ar
    14    14    15   ar
    15    14    16    1
    16    16    17    1
    17    17    18    1
    18    18    19    1
    19    19    20    1
    20    20    21    1
    21    20    22    2
    22    16    23    1
    23    23    24   ar
    24    24    25   ar
    25    25    26    1
    26    26    27   ar
    27    27    28   ar
    28    28    29   ar
    29    29    30   ar
    30    30    31    1
    31    30    32   ar
    32    25    33   ar
    33    33    34   ar
    34    34    35    1
    35    34    36   ar
    36    36    37    1
    37     6    38   ar
    38    38    39   ar
    39    39     3   ar
    40    15    10   ar
    41    22    16    1
    42    36    23   ar
    43    37    13    1
    44    32    26   ar
    45     4    40    1
    46     5    41    1
    47     9    42    1
    48    11    43    1
    49    12    44    1
    50    15    45    1
    51    17    46    1
    52    17    47    1
    53    18    48    1
    54    18    49    1
    55    21    50    1
    56    21    51    1
    57    24    52    1
    58    27    53    1
    59    28    54    1
    60    32    55    1
    61    39    56    1
