@<TRIPOS>MOLECULE
*****
 49 51 0 0 0
SMALL
GASTEIGER

@<TRIPOS>ATOM
      1 C          -1.1157   -1.4153    3.3142 C.3     1  UNL1        0.0788
      2 O          -1.9213   -1.2281    2.1685 O.3     1  UNL1       -0.4947
      3 C          -1.4040   -0.7765    0.9606 C.ar    1  UNL1        0.1285
      4 C          -0.0493   -0.5118    0.9156 C.ar    1  UNL1       -0.0116
      5 C           0.5612   -0.0646   -0.2224 C.ar    1  UNL1       -0.0090
      6 C           1.9750    0.2066   -0.3026 C.ar    1  UNL1        0.0065
      7 C           2.4070    1.4782   -0.6981 C.ar    1  UNL1        0.0159
      8 N           3.7085    1.7981   -0.7567 N.ar    1  UNL1       -0.3171
      9 C           4.1590    3.1182   -1.1657 C.3     1  UNL1        0.0147
     10 C           4.6022    0.8512   -0.4209 C.ar    1  UNL1        0.2603
     11 O           5.8138    1.1515   -0.4758 O.2     1  UNL1       -0.2670
     12 C           4.2283   -0.4161   -0.0257 C.ar    1  UNL1        0.0653
     13 C           5.1397   -1.3931    0.3111 C.ar    1  UNL1        0.0405
     14 N           4.7753   -2.6431    0.6916 N.ar    1  UNL1       -0.2625
     15 C           3.4822   -3.0063    0.7627 C.ar    1  UNL1        0.0282
     16 C           2.5286   -2.0458    0.4300 C.ar    1  UNL1       -0.0351
     17 C           2.8829   -0.7699    0.0421 C.ar    1  UNL1       -0.0007
     18 C          -0.2471    0.1157   -1.3457 C.ar    1  UNL1       -0.0116
     19 C          -1.5975   -0.1479   -1.3003 C.ar    1  UNL1        0.1285
     20 O          -2.3341    0.0577   -2.4643 O.3     1  UNL1       -0.4947
     21 C          -1.7283    0.5198   -3.6542 C.3     1  UNL1        0.0788
     22 C          -2.2025   -0.5996   -0.1449 C.ar    1  UNL1        0.0497
     23 C          -3.6613   -0.8717   -0.1192 C.3     1  UNL1        0.0304
     24 N          -4.4541    0.1217    0.5044 N.3     1  UNL1       -0.3039
     25 C          -4.3967    1.4335   -0.0394 C.3     1  UNL1       -0.0127
     26 C          -4.6374    0.0152    1.9092 C.3     1  UNL1       -0.0127
     27 H          -0.5025   -0.5181    3.5598 H       1  UNL1        0.0660
     28 H          -1.7782   -1.6339    4.1849 H       1  UNL1        0.0660
     29 H          -0.4691   -2.2995    3.1347 H       1  UNL1        0.0660
     30 H           0.5541   -0.6553    1.8230 H       1  UNL1        0.0660
     31 H           1.6914    2.2418   -0.9697 H       1  UNL1        0.0816
     32 H           4.9948    3.4797   -0.5057 H       1  UNL1        0.0457
     33 H           4.5378    3.1598   -2.1863 H       1  UNL1        0.0457
     34 H           3.3482    3.8740   -1.0335 H       1  UNL1        0.0457
     35 H           6.1882   -1.1027    0.2551 H       1  UNL1        0.0837
     36 H           3.2135   -4.0088    1.0687 H       1  UNL1        0.0830
     37 H           1.4862   -2.3239    0.4691 H       1  UNL1        0.0639
     38 H           0.2551    0.4742   -2.2467 H       1  UNL1        0.0660
     39 H          -0.9968   -0.2669   -3.9949 H       1  UNL1        0.0660
     40 H          -2.5472    0.6079   -4.4051 H       1  UNL1        0.0660
     41 H          -1.2483    1.5045   -3.5464 H       1  UNL1        0.0660
     42 H          -3.8245   -1.8278    0.4608 H       1  UNL1        0.0478
     43 H          -4.0450   -1.0555   -1.1637 H       1  UNL1        0.0478
     44 H          -4.9274    1.4228   -1.0230 H       1  UNL1        0.0391
     45 H          -4.8624    2.1833    0.6296 H       1  UNL1        0.0391
     46 H          -3.3532    1.8003   -0.2244 H       1  UNL1        0.0391
     47 H          -5.6647    0.4056    2.1434 H       1  UNL1        0.0391
     48 H          -3.9140    0.6133    2.5082 H       1  UNL1        0.0391
     49 H          -4.6508   -1.0527    2.1879 H       1  UNL1        0.0391
@<TRIPOS>BOND
     1     1     2    1
     2     2     3    1
     3     3     4   ar
     4     4     5   ar
     5     5     6    1
     6     6     7   ar
     7     7     8   ar
     8     8     9    1
     9     8    10   ar
    10    10    11    2
    11    10    12   ar
    12    12    13   ar
    13    13    14   ar
    14    14    15   ar
    15    15    16   ar
    16    16    17   ar
    17     5    18   ar
    18    18    19   ar
    19    19    20    1
    20    20    21    1
    21    19    22   ar
    22    22    23    1
    23    23    24    1
    24    24    25    1
    25    24    26    1
    26    22     3   ar
    27    17     6   ar
    28    17    12   ar
    29     1    27    1
    30     1    28    1
    31     1    29    1
    32     4    30    1
    33     7    31    1
    34     9    32    1
    35     9    33    1
    36     9    34    1
    37    13    35    1
    38    15    36    1
    39    16    37    1
    40    18    38    1
    41    21    39    1
    42    21    40    1
    43    21    41    1
    44    23    42    1
    45    23    43    1
    46    25    44    1
    47    25    45    1
    48    25    46    1
    49    26    47    1
    50    26    48    1
    51    26    49    1
