
     RDKit          3D

 49 51  0  0  0  0  0  0  0  0999 V2000
   -1.1157   -1.4153    3.3142 C   0  0  0  0  0  0  0  0  0  0  0  0
   -1.9213   -1.2281    2.1685 O   0  0  0  0  0  0  0  0  0  0  0  0
   -1.4040   -0.7765    0.9606 C   0  0  0  0  0  0  0  0  0  0  0  0
   -0.0493   -0.5118    0.9156 C   0  0  0  0  0  0  0  0  0  0  0  0
    0.5612   -0.0646   -0.2224 C   0  0  0  0  0  0  0  0  0  0  0  0
    1.9750    0.2066   -0.3026 C   0  0  0  0  0  0  0  0  0  0  0  0
    2.4070    1.4782   -0.6981 C   0  0  0  0  0  0  0  0  0  0  0  0
    3.7085    1.7981   -0.7567 N   0  0  0  0  0  0  0  0  0  0  0  0
    4.1590    3.1182   -1.1657 C   0  0  0  0  0  0  0  0  0  0  0  0
    4.6022    0.8512   -0.4209 C   0  0  0  0  0  0  0  0  0  0  0  0
    5.8138    1.1515   -0.4758 O   0  0  0  0  0  0  0  0  0  0  0  0
    4.2283   -0.4161   -0.0257 C   0  0  0  0  0  0  0  0  0  0  0  0
    5.1397   -1.3931    0.3111 C   0  0  0  0  0  0  0  0  0  0  0  0
    4.7753   -2.6431    0.6916 N   0  0  0  0  0  0  0  0  0  0  0  0
    3.4822   -3.0063    0.7627 C   0  0  0  0  0  0  0  0  0  0  0  0
    2.5286   -2.0458    0.4300 C   0  0  0  0  0  0  0  0  0  0  0  0
    2.8829   -0.7699    0.0421 C   0  0  0  0  0  0  0  0  0  0  0  0
   -0.2471    0.1157   -1.3457 C   0  0  0  0  0  0  0  0  0  0  0  0
   -1.5975   -0.1479   -1.3003 C   0  0  0  0  0  0  0  0  0  0  0  0
   -2.3341    0.0577   -2.4643 O   0  0  0  0  0  0  0  0  0  0  0  0
   -1.7283    0.5198   -3.6542 C   0  0  0  0  0  0  0  0  0  0  0  0
   -2.2025   -0.5996   -0.1449 C   0  0  0  0  0  0  0  0  0  0  0  0
   -3.6613   -0.8717   -0.1192 C   0  0  0  0  0  0  0  0  0  0  0  0
   -4.4541    0.1217    0.5044 N   0  0  0  0  0  0  0  0  0  0  0  0
   -4.3967    1.4335   -0.0394 C   0  0  0  0  0  0  0  0  0  0  0  0
   -4.6374    0.0152    1.9092 C   0  0  0  0  0  0  0  0  0  0  0  0
   -0.5025   -0.5181    3.5598 H   0  0  0  0  0  0  0  0  0  0  0  0
   -1.7782   -1.6339    4.1849 H   0  0  0  0  0  0  0  0  0  0  0  0
   -0.4691   -2.2995    3.1347 H   0  0  0  0  0  0  0  0  0  0  0  0
    0.5541   -0.6553    1.8230 H   0  0  0  0  0  0  0  0  0  0  0  0
    1.6914    2.2418   -0.9697 H   0  0  0  0  0  0  0  0  0  0  0  0
    4.9948    3.4797   -0.5057 H   0  0  0  0  0  0  0  0  0  0  0  0
    4.5378    3.1598   -2.1863 H   0  0  0  0  0  0  0  0  0  0  0  0
    3.3482    3.8740   -1.0335 H   0  0  0  0  0  0  0  0  0  0  0  0
    6.1882   -1.1027    0.2551 H   0  0  0  0  0  0  0  0  0  0  0  0
    3.2135   -4.0088    1.0687 H   0  0  0  0  0  0  0  0  0  0  0  0
    1.4862   -2.3239    0.4691 H   0  0  0  0  0  0  0  0  0  0  0  0
    0.2551    0.4742   -2.2467 H   0  0  0  0  0  0  0  0  0  0  0  0
   -0.9968   -0.2669   -3.9949 H   0  0  0  0  0  0  0  0  0  0  0  0
   -2.5472    0.6079   -4.4051 H   0  0  0  0  0  0  0  0  0  0  0  0
   -1.2483    1.5045   -3.5464 H   0  0  0  0  0  0  0  0  0  0  0  0
   -3.8245   -1.8278    0.4608 H   0  0  0  0  0  0  0  0  0  0  0  0
   -4.0450   -1.0555   -1.1637 H   0  0  0  0  0  0  0  0  0  0  0  0
   -4.9274    1.4228   -1.0230 H   0  0  0  0  0  0  0  0  0  0  0  0
   -4.8624    2.1833    0.6296 H   0  0  0  0  0  0  0  0  0  0  0  0
   -3.3532    1.8003   -0.2244 H   0  0  0  0  0  0  0  0  0  0  0  0
   -5.6647    0.4056    2.1434 H   0  0  0  0  0  0  0  0  0  0  0  0
   -3.9140    0.6133    2.5082 H   0  0  0  0  0  0  0  0  0  0  0  0
   -4.6508   -1.0527    2.1879 H   0  0  0  0  0  0  0  0  0  0  0  0
  1  2  1  0
  2  3  1  0
  3  4  2  0
  4  5  1  0
  5  6  1  0
  6  7  2  0
  7  8  1  0
  8  9  1  0
  8 10  1  0
 10 11  2  0
 10 12  1  0
 12 13  2  0
 13 14  1  0
 14 15  2  0
 15 16  1  0
 16 17  2  0
  5 18  2  0
 18 19  1  0
 19 20  1  0
 20 21  1  0
 19 22  2  0
 22 23  1  0
 23 24  1  0
 24 25  1  0
 24 26  1  0
 22  3  1  0
 17  6  1  0
 17 12  1  0
  1 27  1  0
  1 28  1  0
  1 29  1  0
  4 30  1  0
  7 31  1  0
  9 32  1  0
  9 33  1  0
  9 34  1  0
 13 35  1  0
 15 36  1  0
 16 37  1  0
 18 38  1  0
 21 39  1  0
 21 40  1  0
 21 41  1  0
 23 42  1  0
 23 43  1  0
 25 44  1  0
 25 45  1  0
 25 46  1  0
 26 47  1  0
 26 48  1  0
 26 49  1  0
M  END
$$$$
