@<TRIPOS>MOLECULE
*****
 58 62 0 0 0
SMALL
GASTEIGER

@<TRIPOS>ATOM
      1 C           8.6242   -1.1886    2.3802 C.3     1  UNL1        0.0788
      2 O           7.2794   -1.4946    2.7565 O.3     1  UNL1       -0.4951
      3 C           6.2609   -0.7110    2.2161 C.ar    1  UNL1        0.1201
      4 C           6.5366    0.3266    1.3464 C.ar    1  UNL1       -0.0196
      5 C           5.5356    1.1056    0.8086 C.ar    1  UNL1       -0.0536
      6 C           4.1975    0.8894    1.1115 C.ar    1  UNL1       -0.0295
      7 C           3.1497    1.7568    0.5130 C.3     1  UNL1        0.0452
      8 N           2.6561    1.2568   -0.7456 N.am    1  UNL1       -0.2598
      9 C           3.1673    1.5178   -2.0408 C.2     1  UNL1        0.2915
     10 O           4.1559    2.2304   -2.3732 O.2     1  UNL1       -0.2661
     11 C           2.3480    0.8071   -3.0136 C.2     1  UNL1        0.2496
     12 O           2.4501    0.7634   -4.2636 O.2     1  UNL1       -0.2817
     13 C           1.3246    0.1135   -2.2100 C.ar    1  UNL1        0.0502
     14 C           0.2873   -0.7015   -2.5787 C.ar    1  UNL1       -0.0226
     15 C          -0.5549   -1.2440   -1.6434 C.ar    1  UNL1        0.1063
     16 S          -1.8731   -2.2840   -2.1990 S.O2    1  UNL1        0.0612
     17 O          -1.4201   -2.9395   -3.4587 O.2     1  UNL1       -0.1528
     18 O          -2.1508   -3.2776   -1.1113 O.2     1  UNL1       -0.1528
     19 N          -3.2360   -1.2572   -2.4649 N.3     1  UNL1       -0.1702
     20 C          -3.0432   -0.2481   -3.4672 C.3     1  UNL1        0.0225
     21 C          -3.8229    0.7166   -2.5994 C.3     1  UNL1       -0.0180
     22 C          -3.3946   -0.2059   -1.4793 C.3     1  UNL1        0.0671
     23 C          -4.5535   -0.4173   -0.5289 C.3     1  UNL1        0.1068
     24 O          -4.6008    0.6721    0.3774 O.3     1  UNL1       -0.4888
     25 C          -5.5834    0.6971    1.3458 C.ar    1  UNL1        0.1386
     26 C          -6.5269   -0.2967    1.4719 C.ar    1  UNL1       -0.0170
     27 C          -7.5086   -0.2334    2.4694 C.ar    1  UNL1       -0.0401
     28 C          -7.5397    0.8327    3.3409 C.ar    1  UNL1        0.0278
     29 N          -6.6092    1.7898    3.1984 N.ar    1  UNL1       -0.2596
     30 C          -5.6449    1.7450    2.2324 C.ar    1  UNL1        0.0692
     31 C          -0.3549   -0.9669   -0.3247 C.ar    1  UNL1       -0.0335
     32 C           0.6672   -0.1614    0.0644 C.ar    1  UNL1       -0.0377
     33 C           1.5330    0.3978   -0.8825 C.ar    1  UNL1        0.0481
     34 C           3.9284   -0.1476    1.9800 C.ar    1  UNL1       -0.0536
     35 C           4.9346   -0.9301    2.5205 C.ar    1  UNL1       -0.0196
     36 H           8.8168   -0.1122    2.6646 H       1  UNL1        0.0660
     37 H           9.3496   -1.7857    2.9487 H       1  UNL1        0.0660
     38 H           8.7533   -1.2363    1.2936 H       1  UNL1        0.0660
     39 H           7.5812    0.5166    1.0924 H       1  UNL1        0.0654
     40 H           5.7586    1.9257    0.1212 H       1  UNL1        0.0622
     41 H           2.2856    1.8907    1.1987 H       1  UNL1        0.0518
     42 H           3.5341    2.7866    0.3191 H       1  UNL1        0.0518
     43 H           0.1644   -0.8966   -3.6369 H       1  UNL1        0.0645
     44 H          -2.0144    0.1121   -3.6131 H       1  UNL1        0.0444
     45 H          -3.6183   -0.4884   -4.3844 H       1  UNL1        0.0444
     46 H          -3.3596    1.7361   -2.5423 H       1  UNL1        0.0295
     47 H          -4.9229    0.7153   -2.7708 H       1  UNL1        0.0295
     48 H          -2.4712    0.1127   -0.9893 H       1  UNL1        0.0514
     49 H          -5.5148   -0.5025   -1.0953 H       1  UNL1        0.0713
     50 H          -4.4605   -1.3715    0.0326 H       1  UNL1        0.0713
     51 H          -6.4787   -1.1181    0.7766 H       1  UNL1        0.0655
     52 H          -8.2444   -1.0147    2.5618 H       1  UNL1        0.0634
     53 H          -8.3012    0.9040    4.1336 H       1  UNL1        0.0829
     54 H          -4.9078    2.5330    2.1412 H       1  UNL1        0.0867
     55 H          -1.0243   -1.3981    0.4211 H       1  UNL1        0.0638
     56 H           0.8296    0.0653    1.1264 H       1  UNL1        0.0637
     57 H           2.9010   -0.3508    2.2431 H       1  UNL1        0.0622
     58 H           4.7251   -1.7526    3.2086 H       1  UNL1        0.0654
@<TRIPOS>BOND
     1     1     2    1
     2     2     3    1
     3     3     4   ar
     4     4     5   ar
     5     5     6   ar
     6     6     7    1
     7     7     8    1
     8     8     9   am
     9     9    10    2
    10     9    11    1
    11    11    12    2
    12    11    13    1
    13    13    14   ar
    14    14    15   ar
    15    15    16    1
    16    16    17    2
    17    16    18    2
    18    16    19    1
    19    19    20    1
    20    20    21    1
    21    21    22    1
    22    22    23    1
    23    23    24    1
    24    24    25    1
    25    25    26   ar
    26    26    27   ar
    27    27    28   ar
    28    28    29   ar
    29    29    30   ar
    30    15    31   ar
    31    31    32   ar
    32    32    33   ar
    33     6    34   ar
    34    34    35   ar
    35    35     3   ar
    36    33     8    1
    37    33    13   ar
    38    22    19    1
    39    30    25   ar
    40     1    36    1
    41     1    37    1
    42     1    38    1
    43     4    39    1
    44     5    40    1
    45     7    41    1
    46     7    42    1
    47    14    43    1
    48    20    44    1
    49    20    45    1
    50    21    46    1
    51    21    47    1
    52    22    48    1
    53    23    49    1
    54    23    50    1
    55    26    51    1
    56    27    52    1
    57    28    53    1
    58    30    54    1
    59    31    55    1
    60    32    56    1
    61    34    57    1
    62    35    58    1
