
     RDKit          3D

 29 29  0  0  0  0  0  0  0  0999 V2000
    4.2861   -1.5447    0.8504 Cl  0  0  0  0  0  0  0  0  0  0  0  0
    3.8248    0.1346    0.5664 C   0  0  0  0  0  0  0  0  0  0  0  0
    2.6927    0.2074   -0.4305 C   0  0  0  0  0  0  0  0  0  0  0  0
    1.5637   -0.5171    0.0960 N   0  0  0  0  0  0  0  0  0  0  0  0
    0.2198   -0.4749   -0.9941 P   0  0  0  0  0  0  0  0  0  0  0  0
    0.6819    0.1346   -2.2960 O   0  0  0  0  0  0  0  0  0  0  0  0
   -0.2591   -2.0611   -1.2976 O   0  0  0  0  0  0  0  0  0  0  0  0
   -1.4259   -2.4126   -0.6519 C   0  0  0  0  0  0  0  0  0  0  0  0
   -1.5769   -1.7648    0.7004 C   0  0  0  0  0  0  0  0  0  0  0  0
   -1.8753   -0.3031    0.6285 C   0  0  0  0  0  0  0  0  0  0  0  0
   -1.1392    0.4047   -0.3864 N   0  0  0  0  0  0  0  0  0  0  0  0
   -0.8493    1.7648   -0.0233 C   0  0  0  0  0  0  0  0  0  0  0  0
   -2.1821    2.5115   -0.0010 C   0  0  0  0  0  0  0  0  0  0  0  0
   -1.8383    4.2063    0.4518 Cl  0  0  0  0  0  0  0  0  0  0  0  0
    4.7040    0.6849    0.2184 H   0  0  0  0  0  0  0  0  0  0  0  0
    3.4744    0.5947    1.5192 H   0  0  0  0  0  0  0  0  0  0  0  0
    2.4047    1.2677   -0.5874 H   0  0  0  0  0  0  0  0  0  0  0  0
    3.0362   -0.1789   -1.4273 H   0  0  0  0  0  0  0  0  0  0  0  0
    1.8919   -1.4921    0.2991 H   0  0  0  0  0  0  0  0  0  0  0  0
   -2.3423   -2.2219   -1.2588 H   0  0  0  0  0  0  0  0  0  0  0  0
   -1.3886   -3.5074   -0.4746 H   0  0  0  0  0  0  0  0  0  0  0  0
   -2.4767   -2.2543    1.1652 H   0  0  0  0  0  0  0  0  0  0  0  0
   -0.7278   -2.0310    1.3533 H   0  0  0  0  0  0  0  0  0  0  0  0
   -2.9540   -0.0966    0.4883 H   0  0  0  0  0  0  0  0  0  0  0  0
   -1.5983    0.1765    1.6016 H   0  0  0  0  0  0  0  0  0  0  0  0
   -0.2532    2.2051   -0.8411 H   0  0  0  0  0  0  0  0  0  0  0  0
   -0.3734    1.8936    0.9613 H   0  0  0  0  0  0  0  0  0  0  0  0
   -2.6483    2.5451   -1.0069 H   0  0  0  0  0  0  0  0  0  0  0  0
   -2.8716    2.1291    0.7771 H   0  0  0  0  0  0  0  0  0  0  0  0
  1  2  1  0
  2  3  1  0
  3  4  1  0
  4  5  1  0
  5  6  2  0
  5  7  1  0
  7  8  1  0
  8  9  1  0
  9 10  1  0
 10 11  1  0
 11 12  1  0
 12 13  1  0
 13 14  1  0
 11  5  1  0
  2 15  1  0
  2 16  1  0
  3 17  1  0
  3 18  1  0
  4 19  1  0
  8 20  1  0
  8 21  1  0
  9 22  1  0
  9 23  1  0
 10 24  1  0
 10 25  1  0
 12 26  1  0
 12 27  1  0
 13 28  1  0
 13 29  1  0
M  END
$$$$
