
     RDKit          3D

 53 56  0  0  0  0  0  0  0  0999 V2000
    4.1353   -0.0070   -0.1895 C   0  0  0  0  0  0  0  0  0  0  0  0
    3.2377    1.1718   -0.1573 C   0  0  0  0  0  0  0  0  0  0  0  0
    3.7927    2.1148    0.9330 C   0  0  0  0  0  0  0  0  0  0  0  0
    1.7862    0.9730    0.0628 C   0  0  0  0  0  0  0  0  0  0  0  0
    1.0308    0.1562   -0.9485 C   0  0  1  0  0  0  0  0  0  0  0  0
    1.6087   -1.2164   -1.0258 C   0  0  0  0  0  0  0  0  0  0  0  0
    0.4720   -1.9458   -1.7812 C   0  0  1  0  0  0  0  0  0  0  0  0
    0.7086   -3.4036   -1.6099 C   0  0  0  0  0  0  0  0  0  0  0  0
   -0.7114   -1.3831   -1.1022 C   0  0  1  0  0  0  0  0  0  0  0  0
   -1.7620   -1.1300   -2.1124 C   0  0  0  0  0  0  0  0  0  0  0  0
   -1.5584   -0.3904   -3.1341 O   0  0  0  0  0  0  0  0  0  0  0  0
   -2.9140   -1.8183   -1.7254 N   0  0  0  0  0  0  0  0  0  0  0  0
   -2.6532   -2.4903   -0.4933 C   0  0  0  0  0  0  0  0  0  0  0  0
   -3.5282   -3.2856    0.2606 C   0  0  0  0  0  0  0  0  0  0  0  0
   -3.1040   -3.8455    1.4457 C   0  0  0  0  0  0  0  0  0  0  0  0
   -1.8091   -3.6064    1.8659 C   0  0  0  0  0  0  0  0  0  0  0  0
   -1.4311   -4.1815    3.0418 F   0  0  0  0  0  0  0  0  0  0  0  0
   -0.9608   -2.8201    1.1081 C   0  0  0  0  0  0  0  0  0  0  0  0
   -1.3602   -2.2362   -0.1009 C   0  0  0  0  0  0  0  0  0  0  0  0
   -0.3415   -0.0612   -0.5720 N   0  0  0  0  0  0  0  0  0  0  0  0
   -1.2646    0.7102    0.1233 C   0  0  0  0  0  0  0  0  0  0  0  0
   -2.4513    0.1417    0.2387 O   0  0  0  0  0  0  0  0  0  0  0  0
   -1.2062    1.9931    0.7372 C   0  0  0  0  0  0  0  0  0  0  0  0
   -1.9379    3.1395    0.3479 C   0  0  0  0  0  0  0  0  0  0  0  0
   -1.6581    4.1501    1.1796 N   0  0  0  0  0  0  0  0  0  0  0  0
   -2.2109    5.4852    1.1339 C   0  0  0  0  0  0  0  0  0  0  0  0
   -0.7634    3.6822    2.0940 C   0  0  0  0  0  0  0  0  0  0  0  0
   -0.5100    2.3826    1.8040 N   0  0  0  0  0  0  0  0  0  0  0  0
    4.5006   -0.1548   -1.2471 H   0  0  0  0  0  0  0  0  0  0  0  0
    5.1300    0.2225    0.3435 H   0  0  0  0  0  0  0  0  0  0  0  0
    3.8014   -0.9149    0.2972 H   0  0  0  0  0  0  0  0  0  0  0  0
    3.3309    1.7856   -1.1105 H   0  0  0  0  0  0  0  0  0  0  0  0
    4.3511    2.9542    0.5165 H   0  0  0  0  0  0  0  0  0  0  0  0
    2.9464    2.4276    1.5959 H   0  0  0  0  0  0  0  0  0  0  0  0
    4.4808    1.5581    1.6155 H   0  0  0  0  0  0  0  0  0  0  0  0
    1.3444    2.0249   -0.0579 H   0  0  0  0  0  0  0  0  0  0  0  0
    1.5245    0.6706    1.0984 H   0  0  0  0  0  0  0  0  0  0  0  0
    1.0385    0.6660   -1.9564 H   0  0  0  0  0  0  0  0  0  0  0  0
    1.6088   -1.6780   -0.0366 H   0  0  0  0  0  0  0  0  0  0  0  0
    2.5388   -1.3130   -1.6128 H   0  0  0  0  0  0  0  0  0  0  0  0
    0.5527   -1.6461   -2.8575 H   0  0  0  0  0  0  0  0  0  0  0  0
    1.4399   -3.6251   -0.7875 H   0  0  0  0  0  0  0  0  0  0  0  0
    1.2398   -3.7635   -2.5406 H   0  0  0  0  0  0  0  0  0  0  0  0
   -0.2050   -4.0281   -1.5492 H   0  0  0  0  0  0  0  0  0  0  0  0
   -3.8170   -1.8407   -2.2503 H   0  0  0  0  0  0  0  0  0  0  0  0
   -4.5496   -3.4773   -0.0710 H   0  0  0  0  0  0  0  0  0  0  0  0
   -3.7743   -4.4628    2.0447 H   0  0  0  0  0  0  0  0  0  0  0  0
    0.0409   -2.6442    1.4497 H   0  0  0  0  0  0  0  0  0  0  0  0
   -2.6269    3.1956   -0.4965 H   0  0  0  0  0  0  0  0  0  0  0  0
   -3.2141    5.4915    1.6445 H   0  0  0  0  0  0  0  0  0  0  0  0
   -1.5282    6.2142    1.5773 H   0  0  0  0  0  0  0  0  0  0  0  0
   -2.4230    5.7579    0.0825 H   0  0  0  0  0  0  0  0  0  0  0  0
   -0.3671    4.3008    2.8843 H   0  0  0  0  0  0  0  0  0  0  0  0
  1  2  1  0
  2  3  1  0
  2  4  1  0
  4  5  1  0
  5  6  1  0
  6  7  1  0
  7  8  1  0
  7  9  1  0
  9 10  1  0
 10 11  2  0
 10 12  1  0
 12 13  1  0
 13 14  2  0
 14 15  1  0
 15 16  2  0
 16 17  1  0
 16 18  1  0
 18 19  2  0
  9 20  1  1
 20 21  1  0
 21 22  2  0
 21 23  1  0
 23 24  2  0
 24 25  1  0
 25 26  1  0
 25 27  1  0
 27 28  2  0
 20  5  1  0
 28 23  1  0
 19  9  1  0
 19 13  1  0
  1 29  1  0
  1 30  1  0
  1 31  1  0
  2 32  1  0
  3 33  1  0
  3 34  1  0
  3 35  1  0
  4 36  1  0
  4 37  1  0
  5 38  1  6
  6 39  1  0
  6 40  1  0
  7 41  1  6
  8 42  1  0
  8 43  1  0
  8 44  1  0
 12 45  1  0
 14 46  1  0
 15 47  1  0
 18 48  1  0
 24 49  1  0
 26 50  1  0
 26 51  1  0
 26 52  1  0
 27 53  1  0
M  END
$$$$
