@<TRIPOS>MOLECULE
*****
 53 56 0 0 0
SMALL
GASTEIGER

@<TRIPOS>ATOM
      1 C           4.1353   -0.0070   -0.1895 C.3     1  UNL1       -0.0626
      2 C           3.2377    1.1718   -0.1573 C.3     1  UNL1       -0.0450
      3 C           3.7927    2.1148    0.9330 C.3     1  UNL1       -0.0626
      4 C           1.7862    0.9730    0.0628 C.3     1  UNL1       -0.0319
      5 C           1.0308    0.1562   -0.9485 C.3     1  UNL1        0.0283
      6 C           1.6087   -1.2164   -1.0258 C.3     1  UNL1       -0.0289
      7 C           0.4720   -1.9458   -1.7812 C.3     1  UNL1       -0.0078
      8 C           0.7086   -3.4036   -1.6099 C.3     1  UNL1       -0.0596
      9 C          -0.7114   -1.3831   -1.1022 C.3     1  UNL1        0.1438
     10 C          -1.7620   -1.1300   -2.1124 C.2     1  UNL1        0.2458
     11 O          -1.5584   -0.3904   -3.1341 O.2     1  UNL1       -0.2727
     12 N          -2.9140   -1.8183   -1.7254 N.am    1  UNL1       -0.2831
     13 C          -2.6532   -2.4903   -0.4933 C.ar    1  UNL1        0.0394
     14 C          -3.5282   -3.2856    0.2606 C.ar    1  UNL1       -0.0374
     15 C          -3.1040   -3.8455    1.4457 C.ar    1  UNL1       -0.0247
     16 C          -1.8091   -3.6064    1.8659 C.ar    1  UNL1        0.1239
     17 F          -1.4311   -4.1815    3.0418 F       1  UNL1       -0.2055
     18 C          -0.9608   -2.8201    1.1081 C.ar    1  UNL1       -0.0190
     19 C          -1.3602   -2.2362   -0.1009 C.ar    1  UNL1        0.0091
     20 N          -0.3415   -0.0612   -0.5720 N.am    1  UNL1       -0.2747
     21 C          -1.2646    0.7102    0.1233 C.2     1  UNL1        0.2677
     22 O          -2.4513    0.1417    0.2387 O.2     1  UNL1       -0.2682
     23 C          -1.2062    1.9931    0.7372 C.ar    1  UNL1        0.1433
     24 C          -1.9379    3.1395    0.3479 C.ar    1  UNL1        0.0361
     25 N          -1.6581    4.1501    1.1796 N.ar    1  UNL1       -0.3391
     26 C          -2.2109    5.4852    1.1339 C.3     1  UNL1        0.0127
     27 C          -0.7634    3.6822    2.0940 C.ar    1  UNL1        0.0965
     28 N          -0.5100    2.3826    1.8040 N.ar    1  UNL1       -0.2311
     29 H           4.5006   -0.1548   -1.2471 H       1  UNL1        0.0232
     30 H           5.1300    0.2225    0.3435 H       1  UNL1        0.0232
     31 H           3.8014   -0.9149    0.2972 H       1  UNL1        0.0232
     32 H           3.3309    1.7856   -1.1105 H       1  UNL1        0.0296
     33 H           4.3511    2.9542    0.5165 H       1  UNL1        0.0232
     34 H           2.9464    2.4276    1.5959 H       1  UNL1        0.0232
     35 H           4.4808    1.5581    1.6155 H       1  UNL1        0.0232
     36 H           1.3444    2.0249   -0.0579 H       1  UNL1        0.0286
     37 H           1.5245    0.6706    1.0984 H       1  UNL1        0.0286
     38 H           1.0385    0.6660   -1.9564 H       1  UNL1        0.0501
     39 H           1.6088   -1.6780   -0.0366 H       1  UNL1        0.0287
     40 H           2.5388   -1.3130   -1.6128 H       1  UNL1        0.0287
     41 H           0.5527   -1.6461   -2.8575 H       1  UNL1        0.0328
     42 H           1.4399   -3.6251   -0.7875 H       1  UNL1        0.0233
     43 H           1.2398   -3.7635   -2.5406 H       1  UNL1        0.0233
     44 H          -0.2050   -4.0281   -1.5492 H       1  UNL1        0.0233
     45 H          -3.8170   -1.8407   -2.2503 H       1  UNL1        0.1549
     46 H          -4.5496   -3.4773   -0.0710 H       1  UNL1        0.0637
     47 H          -3.7743   -4.4628    2.0447 H       1  UNL1        0.0647
     48 H           0.0409   -2.6442    1.4497 H       1  UNL1        0.0650
     49 H          -2.6269    3.1956   -0.4965 H       1  UNL1        0.0832
     50 H          -3.2141    5.4915    1.6445 H       1  UNL1        0.0456
     51 H          -1.5282    6.2142    1.5773 H       1  UNL1        0.0456
     52 H          -2.4230    5.7579    0.0825 H       1  UNL1        0.0456
     53 H          -0.3671    4.3008    2.8843 H       1  UNL1        0.1029
@<TRIPOS>BOND
     1     1     2    1
     2     2     3    1
     3     2     4    1
     4     4     5    1
     5     5     6    1
     6     6     7    1
     7     7     8    1
     8     7     9    1
     9     9    10    1
    10    10    11    2
    11    10    12   am
    12    12    13    1
    13    13    14   ar
    14    14    15   ar
    15    15    16   ar
    16    16    17    1
    17    16    18   ar
    18    18    19   ar
    19     9    20    1
    20    20    21   am
    21    21    22    2
    22    21    23    1
    23    23    24   ar
    24    24    25   ar
    25    25    26    1
    26    25    27   ar
    27    27    28   ar
    28    20     5    1
    29    28    23   ar
    30    19     9    1
    31    19    13   ar
    32     1    29    1
    33     1    30    1
    34     1    31    1
    35     2    32    1
    36     3    33    1
    37     3    34    1
    38     3    35    1
    39     4    36    1
    40     4    37    1
    41     5    38    1
    42     6    39    1
    43     6    40    1
    44     7    41    1
    45     8    42    1
    46     8    43    1
    47     8    44    1
    48    12    45    1
    49    14    46    1
    50    15    47    1
    51    18    48    1
    52    24    49    1
    53    26    50    1
    54    26    51    1
    55    26    52    1
    56    27    53    1
