@<TRIPOS>MOLECULE
*****
 30 31 0 0 0
SMALL
GASTEIGER

@<TRIPOS>ATOM
      1 O          -4.7369   -1.6958    0.8560 O.3     1  UNL1       -0.4771
      2 C          -3.3705   -1.4746    0.8473 C.2     1  UNL1        0.3387
      3 O          -2.9209   -2.2048    1.7359 O.2     1  UNL1       -0.2451
      4 C          -2.7533   -0.5390   -0.0842 C.ar    1  UNL1        0.0821
      5 C          -1.3861   -0.3161   -0.0876 C.ar    1  UNL1        0.0621
      6 N          -0.5030   -0.9533    0.8213 N.pl3   1  UNL1       -0.2155
      7 S           1.0913   -1.5846    0.7160 S.O2    1  UNL1        0.0724
      8 O           1.4474   -2.1660    2.0618 O.2     1  UNL1       -0.1500
      9 O           1.1364   -2.6735   -0.3423 O.2     1  UNL1       -0.1500
     10 C           2.2692   -0.3657    0.3143 C.ar    1  UNL1        0.1086
     11 C           2.8002   -0.0191   -0.9269 C.ar    1  UNL1       -0.0337
     12 C           3.7299    0.9822   -1.0461 C.ar    1  UNL1       -0.0415
     13 C           4.1885    1.6960    0.0401 C.ar    1  UNL1        0.0411
     14 CL          5.3758    2.9533   -0.2235 Cl      1  UNL1       -0.0835
     15 C           3.6905    1.3870    1.2883 C.ar    1  UNL1       -0.0415
     16 C           2.7572    0.3788    1.3916 C.ar    1  UNL1       -0.0337
     17 C          -0.9375    0.5850   -1.0298 C.ar    1  UNL1       -0.0375
     18 C          -1.7288    1.2564   -1.9376 C.ar    1  UNL1       -0.0459
     19 C          -3.0829    1.0048   -1.8988 C.ar    1  UNL1        0.0188
     20 BR         -4.2921    1.8515   -3.0819 Br      1  UNL1       -0.0503
     21 C          -3.5705    0.1136   -0.9749 C.ar    1  UNL1       -0.0319
     22 H          -5.2049   -2.5723    1.0361 H       1  UNL1        0.2954
     23 H          -0.9877   -1.0134    1.7680 H       1  UNL1        0.1737
     24 H           2.3812   -0.6341   -1.7255 H       1  UNL1        0.0638
     25 H           4.0653    1.1574   -2.0577 H       1  UNL1        0.0633
     26 H           4.0367    1.9343    2.1517 H       1  UNL1        0.0633
     27 H           2.4091    0.1925    2.4188 H       1  UNL1        0.0638
     28 H           0.0997    0.8418   -1.1265 H       1  UNL1        0.0637
     29 H          -1.3543    1.9594   -2.6684 H       1  UNL1        0.0629
     30 H          -4.6492   -0.0816   -0.9499 H       1  UNL1        0.0637
@<TRIPOS>BOND
     1     1     2    1
     2     2     3    2
     3     2     4    1
     4     4     5   ar
     5     5     6    1
     6     6     7    1
     7     7     8    2
     8     7     9    2
     9     7    10    1
    10    10    11   ar
    11    11    12   ar
    12    12    13   ar
    13    13    14    1
    14    13    15   ar
    15    15    16   ar
    16     5    17   ar
    17    17    18   ar
    18    18    19   ar
    19    19    20    1
    20    19    21   ar
    21    21     4   ar
    22    16    10   ar
    23     1    22    1
    24     6    23    1
    25    11    24    1
    26    12    25    1
    27    15    26    1
    28    16    27    1
    29    17    28    1
    30    18    29    1
    31    21    30    1
