
     RDKit          3D

 30 31  0  0  0  0  0  0  0  0999 V2000
   -4.7369   -1.6958    0.8560 O   0  0  0  0  0  0  0  0  0  0  0  0
   -3.3705   -1.4746    0.8473 C   0  0  0  0  0  0  0  0  0  0  0  0
   -2.9209   -2.2048    1.7359 O   0  0  0  0  0  0  0  0  0  0  0  0
   -2.7533   -0.5390   -0.0842 C   0  0  0  0  0  0  0  0  0  0  0  0
   -1.3861   -0.3161   -0.0876 C   0  0  0  0  0  0  0  0  0  0  0  0
   -0.5030   -0.9533    0.8213 N   0  0  0  0  0  0  0  0  0  0  0  0
    1.0913   -1.5846    0.7160 S   0  0  0  0  0  0  0  0  0  0  0  0
    1.4474   -2.1660    2.0618 O   0  0  0  0  0  0  0  0  0  0  0  0
    1.1364   -2.6735   -0.3423 O   0  0  0  0  0  0  0  0  0  0  0  0
    2.2692   -0.3657    0.3143 C   0  0  0  0  0  0  0  0  0  0  0  0
    2.8002   -0.0191   -0.9269 C   0  0  0  0  0  0  0  0  0  0  0  0
    3.7299    0.9822   -1.0461 C   0  0  0  0  0  0  0  0  0  0  0  0
    4.1885    1.6960    0.0401 C   0  0  0  0  0  0  0  0  0  0  0  0
    5.3758    2.9533   -0.2235 Cl  0  0  0  0  0  0  0  0  0  0  0  0
    3.6905    1.3870    1.2883 C   0  0  0  0  0  0  0  0  0  0  0  0
    2.7572    0.3788    1.3916 C   0  0  0  0  0  0  0  0  0  0  0  0
   -0.9375    0.5850   -1.0298 C   0  0  0  0  0  0  0  0  0  0  0  0
   -1.7288    1.2564   -1.9376 C   0  0  0  0  0  0  0  0  0  0  0  0
   -3.0829    1.0048   -1.8988 C   0  0  0  0  0  0  0  0  0  0  0  0
   -4.2921    1.8515   -3.0819 Br  0  0  0  0  0  0  0  0  0  0  0  0
   -3.5705    0.1136   -0.9749 C   0  0  0  0  0  0  0  0  0  0  0  0
   -5.2049   -2.5723    1.0361 H   0  0  0  0  0  0  0  0  0  0  0  0
   -0.9877   -1.0134    1.7680 H   0  0  0  0  0  0  0  0  0  0  0  0
    2.3812   -0.6341   -1.7255 H   0  0  0  0  0  0  0  0  0  0  0  0
    4.0653    1.1574   -2.0577 H   0  0  0  0  0  0  0  0  0  0  0  0
    4.0367    1.9343    2.1517 H   0  0  0  0  0  0  0  0  0  0  0  0
    2.4091    0.1925    2.4188 H   0  0  0  0  0  0  0  0  0  0  0  0
    0.0997    0.8418   -1.1265 H   0  0  0  0  0  0  0  0  0  0  0  0
   -1.3543    1.9594   -2.6684 H   0  0  0  0  0  0  0  0  0  0  0  0
   -4.6492   -0.0816   -0.9499 H   0  0  0  0  0  0  0  0  0  0  0  0
  1  2  1  0
  2  3  2  0
  2  4  1  0
  4  5  2  0
  5  6  1  0
  6  7  1  0
  7  8  2  0
  7  9  2  0
  7 10  1  0
 10 11  2  0
 11 12  1  0
 12 13  2  0
 13 14  1  0
 13 15  1  0
 15 16  2  0
  5 17  1  0
 17 18  2  0
 18 19  1  0
 19 20  1  0
 19 21  2  0
 21  4  1  0
 16 10  1  0
  1 22  1  0
  6 23  1  0
 11 24  1  0
 12 25  1  0
 15 26  1  0
 16 27  1  0
 17 28  1  0
 18 29  1  0
 21 30  1  0
M  END
$$$$
