
     RDKit          3D

 67 71  0  0  0  0  0  0  0  0999 V2000
   -4.9164   -3.4841   -1.6561 C   0  0  0  0  0  0  0  0  0  0  0  0
   -3.6695   -2.6661   -1.5067 C   0  0  0  0  0  0  0  0  0  0  0  0
   -2.4617   -3.2319   -1.8817 C   0  0  0  0  0  0  0  0  0  0  0  0
   -1.3108   -2.5036   -1.7651 C   0  0  0  0  0  0  0  0  0  0  0  0
   -1.3630   -1.2246   -1.2798 C   0  0  0  0  0  0  0  0  0  0  0  0
   -0.1320   -0.4794   -1.1680 N   0  0  0  0  0  0  0  0  0  0  0  0
    0.6526   -0.5177    0.0123 C   0  0  0  0  0  0  0  0  0  0  0  0
    0.2289   -1.2274    0.9537 O   0  0  0  0  0  0  0  0  0  0  0  0
    1.9043    0.2101    0.1909 C   0  0  0  0  0  0  0  0  0  0  0  0
    2.4527    1.0152   -0.7804 C   0  0  0  0  0  0  0  0  0  0  0  0
    3.6472    1.7163   -0.6231 C   0  0  0  0  0  0  0  0  0  0  0  0
    4.3226    1.6007    0.5705 C   0  0  0  0  0  0  0  0  0  0  0  0
    5.5784    2.3140    0.7710 C   0  0  0  0  0  0  0  0  0  0  0  0
    6.7755    1.6435    0.4616 N   0  0  0  0  0  0  0  0  0  0  0  0
    7.0124    1.1832   -0.8386 C   0  0  0  0  0  0  0  0  0  0  0  0
    7.4008   -0.2786   -0.8287 C   0  0  0  0  0  0  0  0  0  0  0  0
    8.5594   -0.4351   -0.0113 N   0  0  0  0  0  0  0  0  0  0  0  0
    9.7973   -0.1068   -0.6361 C   0  0  0  0  0  0  0  0  0  0  0  0
    8.4127    0.0139    1.3292 C   0  0  0  0  0  0  0  0  0  0  0  0
    7.6434    1.2713    1.5037 C   0  0  0  0  0  0  0  0  0  0  0  0
    3.7997    0.8012    1.5654 C   0  0  0  0  0  0  0  0  0  0  0  0
    2.6018    0.1100    1.3827 C   0  0  0  0  0  0  0  0  0  0  0  0
   -2.5658   -0.6849   -0.9150 C   0  0  0  0  0  0  0  0  0  0  0  0
   -3.7717   -1.3912   -1.0157 C   0  0  0  0  0  0  0  0  0  0  0  0
   -5.0241   -0.7860   -0.6088 C   0  0  0  0  0  0  0  0  0  0  0  0
   -5.9090   -1.4289    0.2184 C   0  0  0  0  0  0  0  0  0  0  0  0
   -7.0837   -0.8168    0.5720 C   0  0  0  0  0  0  0  0  0  0  0  0
   -7.4176    0.4402    0.1224 C   0  0  0  0  0  0  0  0  0  0  0  0
   -8.6962    1.1065    0.5071 C   0  0  0  0  0  0  0  0  0  0  0  0
   -8.9784    2.3584    0.0307 C   0  0  0  0  0  0  0  0  0  0  0  0
  -10.6301    2.6550    0.8144 S   0  0  0  0  0  0  0  0  0  0  0  0
  -10.6061    0.9631    1.6605 C   0  0  0  0  0  0  0  0  0  0  0  0
  -11.7455    0.6584    2.4600 N   0  0  0  0  0  0  0  0  0  0  0  0
   -9.5970    0.5704    1.2892 N   0  0  0  0  0  0  0  0  0  0  0  0
   -6.5128    1.0570   -0.7028 C   0  0  0  0  0  0  0  0  0  0  0  0
   -5.3174    0.4737   -1.0828 C   0  0  0  0  0  0  0  0  0  0  0  0
   -4.9649   -4.2038   -0.8120 H   0  0  0  0  0  0  0  0  0  0  0  0
   -4.7869   -4.1486   -2.5633 H   0  0  0  0  0  0  0  0  0  0  0  0
   -5.8094   -2.8466   -1.7626 H   0  0  0  0  0  0  0  0  0  0  0  0
   -2.4395   -4.2643   -2.2709 H   0  0  0  0  0  0  0  0  0  0  0  0
   -0.3610   -2.9508   -2.0609 H   0  0  0  0  0  0  0  0  0  0  0  0
    0.2124    0.1082   -1.9563 H   0  0  0  0  0  0  0  0  0  0  0  0
    1.9478    1.1265   -1.7268 H   0  0  0  0  0  0  0  0  0  0  0  0
    4.0166    2.3452   -1.4516 H   0  0  0  0  0  0  0  0  0  0  0  0
    5.5901    3.2952    0.2063 H   0  0  0  0  0  0  0  0  0  0  0  0
    5.6623    2.6542    1.8459 H   0  0  0  0  0  0  0  0  0  0  0  0
    7.8825    1.7138   -1.3251 H   0  0  0  0  0  0  0  0  0  0  0  0
    6.1656    1.3447   -1.4979 H   0  0  0  0  0  0  0  0  0  0  0  0
    7.6634   -0.6154   -1.8587 H   0  0  0  0  0  0  0  0  0  0  0  0
    6.6135   -0.9409   -0.4683 H   0  0  0  0  0  0  0  0  0  0  0  0
   10.3954    0.5694   -0.0083 H   0  0  0  0  0  0  0  0  0  0  0  0
    9.7107    0.3018   -1.6582 H   0  0  0  0  0  0  0  0  0  0  0  0
   10.3753   -1.0705   -0.7502 H   0  0  0  0  0  0  0  0  0  0  0  0
    8.0059   -0.8165    1.9433 H   0  0  0  0  0  0  0  0  0  0  0  0
    9.4508    0.1957    1.7357 H   0  0  0  0  0  0  0  0  0  0  0  0
    7.0276    1.1544    2.4443 H   0  0  0  0  0  0  0  0  0  0  0  0
    8.3039    2.1573    1.7398 H   0  0  0  0  0  0  0  0  0  0  0  0
    4.3136    0.6960    2.5116 H   0  0  0  0  0  0  0  0  0  0  0  0
    2.1806   -0.5198    2.1535 H   0  0  0  0  0  0  0  0  0  0  0  0
   -2.6068    0.3419   -0.5255 H   0  0  0  0  0  0  0  0  0  0  0  0
   -5.6739   -2.4236    0.5947 H   0  0  0  0  0  0  0  0  0  0  0  0
   -7.7819   -1.3281    1.2267 H   0  0  0  0  0  0  0  0  0  0  0  0
   -8.4977    3.0568   -0.5961 H   0  0  0  0  0  0  0  0  0  0  0  0
  -12.7190    0.9360    2.1650 H   0  0  0  0  0  0  0  0  0  0  0  0
  -11.5782    0.1516    3.3454 H   0  0  0  0  0  0  0  0  0  0  0  0
   -6.7363    2.0574   -1.0845 H   0  0  0  0  0  0  0  0  0  0  0  0
   -4.6434    1.0237   -1.7433 H   0  0  0  0  0  0  0  0  0  0  0  0
  1  2  1  0
  2  3  2  0
  3  4  1  0
  4  5  2  0
  5  6  1  0
  6  7  1  0
  7  8  2  0
  7  9  1  0
  9 10  2  0
 10 11  1  0
 11 12  2  0
 12 13  1  0
 13 14  1  0
 14 15  1  0
 15 16  1  0
 16 17  1  0
 17 18  1  0
 17 19  1  0
 19 20  1  0
 12 21  1  0
 21 22  2  0
  5 23  1  0
 23 24  2  0
 24 25  1  0
 25 26  2  0
 26 27  1  0
 27 28  2  0
 28 29  1  0
 29 30  2  0
 30 31  1  0
 31 32  1  0
 32 33  1  0
 32 34  2  0
 28 35  1  0
 35 36  2  0
 24  2  1  0
 36 25  1  0
 22  9  1  0
 34 29  1  0
 20 14  1  0
  1 37  1  0
  1 38  1  0
  1 39  1  0
  3 40  1  0
  4 41  1  0
  6 42  1  0
 10 43  1  0
 11 44  1  0
 13 45  1  0
 13 46  1  0
 15 47  1  0
 15 48  1  0
 16 49  1  0
 16 50  1  0
 18 51  1  0
 18 52  1  0
 18 53  1  0
 19 54  1  0
 19 55  1  0
 20 56  1  0
 20 57  1  0
 21 58  1  0
 22 59  1  0
 23 60  1  0
 26 61  1  0
 27 62  1  0
 30 63  1  0
 33 64  1  0
 33 65  1  0
 35 66  1  0
 36 67  1  0
M  END
$$$$
