@<TRIPOS>MOLECULE
*****
 67 71 0 0 0
SMALL
GASTEIGER

@<TRIPOS>ATOM
      1 C          -4.9164   -3.4841   -1.6561 C.3     1  UNL1       -0.0391
      2 C          -3.6695   -2.6661   -1.5067 C.ar    1  UNL1       -0.0426
      3 C          -2.4617   -3.2319   -1.8817 C.ar    1  UNL1       -0.0565
      4 C          -1.3108   -2.5036   -1.7651 C.ar    1  UNL1       -0.0402
      5 C          -1.3630   -1.2246   -1.2798 C.ar    1  UNL1        0.0343
      6 N          -0.1320   -0.4794   -1.1680 N.am    1  UNL1       -0.2815
      7 C           0.6526   -0.5177    0.0123 C.2     1  UNL1        0.2483
      8 O           0.2289   -1.2274    0.9537 O.2     1  UNL1       -0.2699
      9 C           1.9043    0.2101    0.1909 C.ar    1  UNL1        0.0370
     10 C           2.4527    1.0152   -0.7804 C.ar    1  UNL1       -0.0493
     11 C           3.6472    1.7163   -0.6231 C.ar    1  UNL1       -0.0566
     12 C           4.3226    1.6007    0.5705 C.ar    1  UNL1       -0.0333
     13 C           5.5784    2.3140    0.7710 C.3     1  UNL1        0.0241
     14 N           6.7755    1.6435    0.4616 N.3     1  UNL1       -0.2957
     15 C           7.0124    1.1832   -0.8386 C.3     1  UNL1        0.0120
     16 C           7.4008   -0.2786   -0.8287 C.3     1  UNL1        0.0114
     17 N           8.5594   -0.4351   -0.0113 N.3     1  UNL1       -0.3029
     18 C           9.7973   -0.1068   -0.6361 C.3     1  UNL1       -0.0127
     19 C           8.4127    0.0139    1.3292 C.3     1  UNL1        0.0114
     20 C           7.6434    1.2713    1.5037 C.3     1  UNL1        0.0120
     21 C           3.7997    0.8012    1.5654 C.ar    1  UNL1       -0.0566
     22 C           2.6018    0.1100    1.3827 C.ar    1  UNL1       -0.0493
     23 C          -2.5658   -0.6849   -0.9150 C.ar    1  UNL1       -0.0325
     24 C          -3.7717   -1.3912   -1.0157 C.ar    1  UNL1       -0.0132
     25 C          -5.0241   -0.7860   -0.6088 C.ar    1  UNL1       -0.0175
     26 C          -5.9090   -1.4289    0.2184 C.ar    1  UNL1       -0.0534
     27 C          -7.0837   -0.8168    0.5720 C.ar    1  UNL1       -0.0520
     28 C          -7.4176    0.4402    0.1224 C.ar    1  UNL1        0.0010
     29 C          -8.6962    1.1065    0.5071 C.ar    1  UNL1        0.0802
     30 C          -8.9784    2.3584    0.0307 C.ar    1  UNL1        0.0049
     31 S         -10.6301    2.6550    0.8144 S.2     1  UNL1       -0.0605
     32 C         -10.6061    0.9631    1.6605 C.ar    1  UNL1        0.1561
     33 N         -11.7455    0.6584    2.4600 N.pl3   1  UNL1       -0.3375
     34 N          -9.5970    0.5704    1.2892 N.ar    1  UNL1       -0.2252
     35 C          -6.5128    1.0570   -0.7028 C.ar    1  UNL1       -0.0520
     36 C          -5.3174    0.4737   -1.0828 C.ar    1  UNL1       -0.0534
     37 H          -4.9649   -4.2038   -0.8120 H       1  UNL1        0.0278
     38 H          -4.7869   -4.1486   -2.5633 H       1  UNL1        0.0278
     39 H          -5.8094   -2.8466   -1.7626 H       1  UNL1        0.0278
     40 H          -2.4395   -4.2643   -2.2709 H       1  UNL1        0.0621
     41 H          -0.3610   -2.9508   -2.0609 H       1  UNL1        0.0636
     42 H           0.2124    0.1082   -1.9563 H       1  UNL1        0.1551
     43 H           1.9478    1.1265   -1.7268 H       1  UNL1        0.0625
     44 H           4.0166    2.3452   -1.4516 H       1  UNL1        0.0621
     45 H           5.5901    3.2952    0.2063 H       1  UNL1        0.0476
     46 H           5.6623    2.6542    1.8459 H       1  UNL1        0.0476
     47 H           7.8825    1.7138   -1.3251 H       1  UNL1        0.0439
     48 H           6.1656    1.3447   -1.4979 H       1  UNL1        0.0439
     49 H           7.6634   -0.6154   -1.8587 H       1  UNL1        0.0439
     50 H           6.6135   -0.9409   -0.4683 H       1  UNL1        0.0439
     51 H          10.3954    0.5694   -0.0083 H       1  UNL1        0.0391
     52 H           9.7107    0.3018   -1.6582 H       1  UNL1        0.0391
     53 H          10.3753   -1.0705   -0.7502 H       1  UNL1        0.0391
     54 H           8.0059   -0.8165    1.9433 H       1  UNL1        0.0439
     55 H           9.4508    0.1957    1.7357 H       1  UNL1        0.0439
     56 H           7.0276    1.1544    2.4443 H       1  UNL1        0.0439
     57 H           8.3039    2.1573    1.7398 H       1  UNL1        0.0439
     58 H           4.3136    0.6960    2.5116 H       1  UNL1        0.0621
     59 H           2.1806   -0.5198    2.1535 H       1  UNL1        0.0625
     60 H          -2.6068    0.3419   -0.5255 H       1  UNL1        0.0642
     61 H          -5.6739   -2.4236    0.5947 H       1  UNL1        0.0624
     62 H          -7.7819   -1.3281    1.2267 H       1  UNL1        0.0624
     63 H          -8.4977    3.0568   -0.5961 H       1  UNL1        0.0716
     64 H         -12.7190    0.9360    2.1650 H       1  UNL1        0.1442
     65 H         -11.5782    0.1516    3.3454 H       1  UNL1        0.1442
     66 H          -6.7363    2.0574   -1.0845 H       1  UNL1        0.0624
     67 H          -4.6434    1.0237   -1.7433 H       1  UNL1        0.0624
@<TRIPOS>BOND
     1     1     2    1
     2     2     3   ar
     3     3     4   ar
     4     4     5   ar
     5     5     6    1
     6     6     7   am
     7     7     8    2
     8     7     9    1
     9     9    10   ar
    10    10    11   ar
    11    11    12   ar
    12    12    13    1
    13    13    14    1
    14    14    15    1
    15    15    16    1
    16    16    17    1
    17    17    18    1
    18    17    19    1
    19    19    20    1
    20    12    21   ar
    21    21    22   ar
    22     5    23   ar
    23    23    24   ar
    24    24    25    1
    25    25    26   ar
    26    26    27   ar
    27    27    28   ar
    28    28    29    1
    29    29    30   ar
    30    30    31   ar
    31    31    32   ar
    32    32    33    1
    33    32    34   ar
    34    28    35   ar
    35    35    36   ar
    36    24     2   ar
    37    36    25   ar
    38    22     9   ar
    39    34    29   ar
    40    20    14    1
    41     1    37    1
    42     1    38    1
    43     1    39    1
    44     3    40    1
    45     4    41    1
    46     6    42    1
    47    10    43    1
    48    11    44    1
    49    13    45    1
    50    13    46    1
    51    15    47    1
    52    15    48    1
    53    16    49    1
    54    16    50    1
    55    18    51    1
    56    18    52    1
    57    18    53    1
    58    19    54    1
    59    19    55    1
    60    20    56    1
    61    20    57    1
    62    21    58    1
    63    22    59    1
    64    23    60    1
    65    26    61    1
    66    27    62    1
    67    30    63    1
    68    33    64    1
    69    33    65    1
    70    35    66    1
    71    36    67    1
