@<TRIPOS>MOLECULE
*****
 50 51 0 0 0
SMALL
GASTEIGER

@<TRIPOS>ATOM
      1 C           6.3791   -0.1930   -1.2071 C.3     1  UNL1       -0.0653
      2 C           6.4435   -1.0745    0.0142 C.3     1  UNL1       -0.0559
      3 C           5.0763   -1.6630    0.2589 C.3     1  UNL1       -0.0533
      4 C           4.1254   -0.4886    0.4757 C.3     1  UNL1       -0.0531
      5 C           2.7489   -1.0310    0.7236 C.3     1  UNL1       -0.0530
      6 C           1.7940    0.1107    0.9598 C.3     1  UNL1       -0.0527
      7 C           1.7040    1.0505   -0.2199 C.3     1  UNL1       -0.0476
      8 C           0.7023    2.1481    0.0144 C.3     1  UNL1       -0.0089
      9 C          -0.6552    1.5883    0.0840 C.ar    1  UNL1        0.0595
     10 C          -1.0217    0.3095   -0.1891 C.ar    1  UNL1        0.0280
     11 N          -2.3760    0.1955   -0.0780 N.ar    1  UNL1       -0.3241
     12 C          -2.8415    1.4000    0.2608 C.ar    1  UNL1        0.1417
     13 N          -1.8100    2.2419    0.3592 N.ar    1  UNL1       -0.2345
     14 C          -4.2927    1.6714    0.4742 C.3     1  UNL1        0.1409
     15 O          -4.4124    2.6666    1.4443 O.3     1  UNL1       -0.3814
     16 C          -5.0785    0.4602    0.8182 C.3     1  UNL1        0.1158
     17 O          -6.2654    0.3551    0.0608 O.3     1  UNL1       -0.3861
     18 C          -4.3734   -0.8351    0.7431 C.3     1  UNL1        0.1067
     19 O          -5.2488   -1.9036    0.4842 O.3     1  UNL1       -0.3870
     20 C          -3.2668   -0.9146   -0.2552 C.3     1  UNL1        0.0871
     21 C          -3.7376   -1.0803   -1.6719 C.3     1  UNL1        0.0675
     22 O          -4.4202   -0.0058   -2.1740 O.3     1  UNL1       -0.3929
     23 H           6.0316    0.8251   -0.9482 H       1  UNL1        0.0230
     24 H           5.7806   -0.6581   -2.0080 H       1  UNL1        0.0230
     25 H           7.4222   -0.1172   -1.5995 H       1  UNL1        0.0230
     26 H           7.1541   -1.9291   -0.1666 H       1  UNL1        0.0263
     27 H           6.7484   -0.5067    0.9076 H       1  UNL1        0.0263
     28 H           5.0304   -2.2655    1.1818 H       1  UNL1        0.0265
     29 H           4.7300   -2.2641   -0.6057 H       1  UNL1        0.0265
     30 H           4.4595    0.0851    1.3531 H       1  UNL1        0.0265
     31 H           4.1278    0.1769   -0.4154 H       1  UNL1        0.0265
     32 H           2.4017   -1.6798   -0.1069 H       1  UNL1        0.0265
     33 H           2.7853   -1.6202    1.6825 H       1  UNL1        0.0265
     34 H           0.8425   -0.2918    1.3127 H       1  UNL1        0.0265
     35 H           2.2740    0.6969    1.8239 H       1  UNL1        0.0265
     36 H           2.6838    1.5170   -0.4490 H       1  UNL1        0.0269
     37 H           1.3961    0.4418   -1.1083 H       1  UNL1        0.0269
     38 H           0.7947    2.9711   -0.7235 H       1  UNL1        0.0329
     39 H           0.9542    2.5708    1.0331 H       1  UNL1        0.0329
     40 H          -0.4059   -0.5609   -0.4900 H       1  UNL1        0.0828
     41 H          -4.6497    2.1513   -0.4842 H       1  UNL1        0.0702
     42 H          -3.6975    3.3333    1.3629 H       1  UNL1        0.2105
     43 H          -5.4455    0.5865    1.8800 H       1  UNL1        0.0650
     44 H          -6.7952   -0.3622    0.4963 H       1  UNL1        0.2100
     45 H          -3.9187   -1.0703    1.7505 H       1  UNL1        0.0642
     46 H          -5.7217   -2.0673    1.3572 H       1  UNL1        0.2100
     47 H          -2.6934   -1.8606   -0.0162 H       1  UNL1        0.0577
     48 H          -2.8127   -1.2074   -2.2995 H       1  UNL1        0.0579
     49 H          -4.3223   -1.9961   -1.7647 H       1  UNL1        0.0579
     50 H          -4.3276    0.0931   -3.1542 H       1  UNL1        0.2095
@<TRIPOS>BOND
     1     1     2    1
     2     2     3    1
     3     3     4    1
     4     4     5    1
     5     5     6    1
     6     6     7    1
     7     7     8    1
     8     8     9    1
     9     9    10   ar
    10    10    11   ar
    11    11    12   ar
    12    12    13   ar
    13    12    14    1
    14    14    15    1
    15    14    16    1
    16    16    17    1
    17    16    18    1
    18    18    19    1
    19    18    20    1
    20    20    21    1
    21    21    22    1
    22    13     9   ar
    23    20    11    1
    24     1    23    1
    25     1    24    1
    26     1    25    1
    27     2    26    1
    28     2    27    1
    29     3    28    1
    30     3    29    1
    31     4    30    1
    32     4    31    1
    33     5    32    1
    34     5    33    1
    35     6    34    1
    36     6    35    1
    37     7    36    1
    38     7    37    1
    39     8    38    1
    40     8    39    1
    41    10    40    1
    42    14    41    1
    43    15    42    1
    44    16    43    1
    45    17    44    1
    46    18    45    1
    47    19    46    1
    48    20    47    1
    49    21    48    1
    50    21    49    1
    51    22    50    1
