
     RDKit          3D

 50 51  0  0  0  0  0  0  0  0999 V2000
    6.3791   -0.1930   -1.2071 C   0  0  0  0  0  0  0  0  0  0  0  0
    6.4435   -1.0745    0.0142 C   0  0  0  0  0  0  0  0  0  0  0  0
    5.0763   -1.6630    0.2589 C   0  0  0  0  0  0  0  0  0  0  0  0
    4.1254   -0.4886    0.4757 C   0  0  0  0  0  0  0  0  0  0  0  0
    2.7489   -1.0310    0.7236 C   0  0  0  0  0  0  0  0  0  0  0  0
    1.7940    0.1107    0.9598 C   0  0  0  0  0  0  0  0  0  0  0  0
    1.7040    1.0505   -0.2199 C   0  0  0  0  0  0  0  0  0  0  0  0
    0.7023    2.1481    0.0144 C   0  0  0  0  0  0  0  0  0  0  0  0
   -0.6552    1.5883    0.0840 C   0  0  0  0  0  0  0  0  0  0  0  0
   -1.0217    0.3095   -0.1891 C   0  0  0  0  0  0  0  0  0  0  0  0
   -2.3760    0.1955   -0.0780 N   0  0  0  0  0  0  0  0  0  0  0  0
   -2.8415    1.4000    0.2608 C   0  0  0  0  0  0  0  0  0  0  0  0
   -1.8100    2.2419    0.3592 N   0  0  0  0  0  0  0  0  0  0  0  0
   -4.2927    1.6714    0.4742 C   0  0  0  0  0  0  0  0  0  0  0  0
   -4.4124    2.6666    1.4443 O   0  0  0  0  0  0  0  0  0  0  0  0
   -5.0785    0.4602    0.8182 C   0  0  0  0  0  0  0  0  0  0  0  0
   -6.2654    0.3551    0.0608 O   0  0  0  0  0  0  0  0  0  0  0  0
   -4.3734   -0.8351    0.7431 C   0  0  0  0  0  0  0  0  0  0  0  0
   -5.2488   -1.9036    0.4842 O   0  0  0  0  0  0  0  0  0  0  0  0
   -3.2668   -0.9146   -0.2552 C   0  0  0  0  0  0  0  0  0  0  0  0
   -3.7376   -1.0803   -1.6719 C   0  0  0  0  0  0  0  0  0  0  0  0
   -4.4202   -0.0058   -2.1740 O   0  0  0  0  0  0  0  0  0  0  0  0
    6.0316    0.8251   -0.9482 H   0  0  0  0  0  0  0  0  0  0  0  0
    5.7806   -0.6581   -2.0080 H   0  0  0  0  0  0  0  0  0  0  0  0
    7.4222   -0.1172   -1.5995 H   0  0  0  0  0  0  0  0  0  0  0  0
    7.1541   -1.9291   -0.1666 H   0  0  0  0  0  0  0  0  0  0  0  0
    6.7484   -0.5067    0.9076 H   0  0  0  0  0  0  0  0  0  0  0  0
    5.0304   -2.2655    1.1818 H   0  0  0  0  0  0  0  0  0  0  0  0
    4.7300   -2.2641   -0.6057 H   0  0  0  0  0  0  0  0  0  0  0  0
    4.4595    0.0851    1.3531 H   0  0  0  0  0  0  0  0  0  0  0  0
    4.1278    0.1769   -0.4154 H   0  0  0  0  0  0  0  0  0  0  0  0
    2.4017   -1.6798   -0.1069 H   0  0  0  0  0  0  0  0  0  0  0  0
    2.7853   -1.6202    1.6825 H   0  0  0  0  0  0  0  0  0  0  0  0
    0.8425   -0.2918    1.3127 H   0  0  0  0  0  0  0  0  0  0  0  0
    2.2740    0.6969    1.8239 H   0  0  0  0  0  0  0  0  0  0  0  0
    2.6838    1.5170   -0.4490 H   0  0  0  0  0  0  0  0  0  0  0  0
    1.3961    0.4418   -1.1083 H   0  0  0  0  0  0  0  0  0  0  0  0
    0.7947    2.9711   -0.7235 H   0  0  0  0  0  0  0  0  0  0  0  0
    0.9542    2.5708    1.0331 H   0  0  0  0  0  0  0  0  0  0  0  0
   -0.4059   -0.5609   -0.4900 H   0  0  0  0  0  0  0  0  0  0  0  0
   -4.6497    2.1513   -0.4842 H   0  0  0  0  0  0  0  0  0  0  0  0
   -3.6975    3.3333    1.3629 H   0  0  0  0  0  0  0  0  0  0  0  0
   -5.4455    0.5865    1.8800 H   0  0  0  0  0  0  0  0  0  0  0  0
   -6.7952   -0.3622    0.4963 H   0  0  0  0  0  0  0  0  0  0  0  0
   -3.9187   -1.0703    1.7505 H   0  0  0  0  0  0  0  0  0  0  0  0
   -5.7217   -2.0673    1.3572 H   0  0  0  0  0  0  0  0  0  0  0  0
   -2.6934   -1.8606   -0.0162 H   0  0  0  0  0  0  0  0  0  0  0  0
   -2.8127   -1.2074   -2.2995 H   0  0  0  0  0  0  0  0  0  0  0  0
   -4.3223   -1.9961   -1.7647 H   0  0  0  0  0  0  0  0  0  0  0  0
   -4.3276    0.0931   -3.1542 H   0  0  0  0  0  0  0  0  0  0  0  0
  1  2  1  0
  2  3  1  0
  3  4  1  0
  4  5  1  0
  5  6  1  0
  6  7  1  0
  7  8  1  0
  8  9  1  0
  9 10  2  0
 10 11  1  0
 11 12  1  0
 12 13  2  0
 12 14  1  0
 14 15  1  0
 14 16  1  0
 16 17  1  0
 16 18  1  0
 18 19  1  0
 18 20  1  0
 20 21  1  0
 21 22  1  0
 13  9  1  0
 20 11  1  0
  1 23  1  0
  1 24  1  0
  1 25  1  0
  2 26  1  0
  2 27  1  0
  3 28  1  0
  3 29  1  0
  4 30  1  0
  4 31  1  0
  5 32  1  0
  5 33  1  0
  6 34  1  0
  6 35  1  0
  7 36  1  0
  7 37  1  0
  8 38  1  0
  8 39  1  0
 10 40  1  0
 14 41  1  0
 15 42  1  0
 16 43  1  0
 17 44  1  0
 18 45  1  0
 19 46  1  0
 20 47  1  0
 21 48  1  0
 21 49  1  0
 22 50  1  0
M  END
$$$$
