
     RDKit          3D

 57 61  0  0  0  0  0  0  0  0999 V2000
    0.2577   -0.9293   -0.9752 C   0  0  0  0  0  0  0  0  0  0  0  0
   -0.6276   -0.0473   -0.1383 C   0  0  2  0  0  0  0  0  0  0  0  0
    0.0517    0.1937    1.2273 C   0  0  0  0  0  0  0  0  0  0  0  0
    1.2646   -0.4872    1.4207 C   0  0  0  0  0  0  0  0  0  0  0  0
    1.8471   -0.3641    2.7359 C   0  0  0  0  0  0  0  0  0  0  0  0
    3.1353   -1.1014    2.8433 C   0  0  0  0  0  0  0  0  0  0  0  0
    3.2955   -2.1384    3.5946 C   0  0  0  0  0  0  0  0  0  0  0  0
    2.1796   -2.5508    4.3189 F   0  0  0  0  0  0  0  0  0  0  0  0
    4.5177   -2.8878    3.8267 C   0  0  0  0  0  0  0  0  0  0  0  0
    5.7864   -2.4115    3.4398 C   0  0  0  0  0  0  0  0  0  0  0  0
    6.8627   -3.2795    3.7016 C   0  0  0  0  0  0  0  0  0  0  0  0
    6.8116   -4.4514    4.2496 C   0  0  0  0  0  0  0  0  0  0  0  0
    7.8645   -5.3760    4.5422 C   0  0  0  0  0  0  0  0  0  0  0  0
    8.7352   -6.1590    4.7965 N   0  0  0  0  0  0  0  0  0  0  0  0
    5.4839   -4.9337    4.6433 C   0  0  0  0  0  0  0  0  0  0  0  0
    4.4815   -4.0964    4.3893 N   0  0  0  0  0  0  0  0  0  0  0  0
    1.2478    0.3398    3.6405 C   0  0  0  0  0  0  0  0  0  0  0  0
    0.0432    1.0459    3.5147 C   0  0  0  0  0  0  0  0  0  0  0  0
   -0.5199    0.9041    2.1839 C   0  0  0  0  0  0  0  0  0  0  0  0
   -1.6889    1.5866    1.9915 F   0  0  0  0  0  0  0  0  0  0  0  0
   -1.8403   -0.7890    0.2183 N   0  0  0  0  0  0  0  0  0  0  0  0
   -2.7227   -1.0449   -0.6687 C   0  0  0  0  0  0  0  0  0  0  0  0
   -3.8943   -1.7563   -0.3299 N   0  0  0  0  0  0  0  0  0  0  0  0
   -2.4444   -0.3681   -2.3062 S   0  0  0  0  0  0  0  0  0  0  0  0
   -1.7808    1.3288   -1.9257 C   0  0  1  0  0  0  0  0  0  0  0  0
   -1.7767    2.2754   -3.0391 C   0  0  0  0  0  0  0  0  0  0  0  0
   -0.6610    2.6059   -3.5631 O   0  0  0  0  0  0  0  0  0  0  0  0
   -3.0123    2.8179   -3.5185 N   0  0  0  0  0  0  0  0  0  0  0  0
   -3.1078    3.7762   -4.6061 C   0  0  0  0  0  0  0  0  0  0  0  0
   -4.5576    3.7181   -5.0319 C   0  0  0  0  0  0  0  0  0  0  0  0
   -5.3007    3.3381   -3.7751 C   0  0  0  0  0  0  0  0  0  0  0  0
   -4.3192    2.5143   -2.9949 C   0  0  0  0  0  0  0  0  0  0  0  0
   -2.3506    1.8201   -0.6127 C   0  0  0  0  0  0  0  0  0  0  0  0
   -0.9036    1.2840   -0.7770 C   0  0  1  0  0  0  0  0  0  0  0  0
    0.4078   -1.9426   -0.5349 H   0  0  0  0  0  0  0  0  0  0  0  0
   -0.1435   -1.1073   -1.9886 H   0  0  0  0  0  0  0  0  0  0  0  0
    1.2930   -0.4928   -1.1072 H   0  0  0  0  0  0  0  0  0  0  0  0
    1.7244   -1.0454    0.7058 H   0  0  0  0  0  0  0  0  0  0  0  0
    3.9575   -0.7354    2.2412 H   0  0  0  0  0  0  0  0  0  0  0  0
    5.8846   -1.4755    2.9932 H   0  0  0  0  0  0  0  0  0  0  0  0
    7.8762   -2.8876    3.3885 H   0  0  0  0  0  0  0  0  0  0  0  0
    5.4376   -5.8828    5.0879 H   0  0  0  0  0  0  0  0  0  0  0  0
    1.6803    0.4417    4.6652 H   0  0  0  0  0  0  0  0  0  0  0  0
   -0.4482    1.6109    4.2058 H   0  0  0  0  0  0  0  0  0  0  0  0
   -3.8469   -2.1012    0.7317 H   0  0  0  0  0  0  0  0  0  0  0  0
   -4.7160   -2.0181   -0.7832 H   0  0  0  0  0  0  0  0  0  0  0  0
   -2.4803    3.4819   -5.4743 H   0  0  0  0  0  0  0  0  0  0  0  0
   -2.8714    4.8055   -4.2652 H   0  0  0  0  0  0  0  0  0  0  0  0
   -4.6992    2.9539   -5.8343 H   0  0  0  0  0  0  0  0  0  0  0  0
   -4.8606    4.7313   -5.4136 H   0  0  0  0  0  0  0  0  0  0  0  0
   -5.6346    4.2483   -3.2218 H   0  0  0  0  0  0  0  0  0  0  0  0
   -6.2395    2.7942   -4.0155 H   0  0  0  0  0  0  0  0  0  0  0  0
   -4.5821    1.4343   -3.1503 H   0  0  0  0  0  0  0  0  0  0  0  0
   -4.4321    2.7079   -1.9051 H   0  0  0  0  0  0  0  0  0  0  0  0
   -2.5075    2.8887   -0.4748 H   0  0  0  0  0  0  0  0  0  0  0  0
   -3.0497    1.1549   -0.0990 H   0  0  0  0  0  0  0  0  0  0  0  0
   -0.1072    2.0584   -0.6069 H   0  0  0  0  0  0  0  0  0  0  0  0
  2  1  1  6
  2  3  1  0
  3  4  2  0
  4  5  1  0
  5  6  1  0
  6  7  2  0
  7  8  1  0
  7  9  1  0
  9 10  2  0
 10 11  1  0
 11 12  2  0
 12 13  1  0
 13 14  3  0
 12 15  1  0
 15 16  2  0
  5 17  2  0
 17 18  1  0
 18 19  2  0
 19 20  1  0
  2 21  1  0
 21 22  2  0
 22 23  1  0
 22 24  1  0
 24 25  1  0
 25 26  1  6
 26 27  2  0
 26 28  1  0
 28 29  1  0
 29 30  1  0
 30 31  1  0
 31 32  1  0
 25 33  1  0
 33 34  1  0
 34  2  1  0
 19  3  1  0
 34 25  1  0
 16  9  1  0
 32 28  1  0
  1 35  1  0
  1 36  1  0
  1 37  1  0
  4 38  1  0
  6 39  1  0
 10 40  1  0
 11 41  1  0
 15 42  1  0
 17 43  1  0
 18 44  1  0
 23 45  1  0
 23 46  1  0
 29 47  1  0
 29 48  1  0
 30 49  1  0
 30 50  1  0
 31 51  1  0
 31 52  1  0
 32 53  1  0
 32 54  1  0
 33 55  1  0
 33 56  1  0
 34 57  1  6
M  END
$$$$
