@<TRIPOS>MOLECULE
*****
 57 61 0 0 0
SMALL
GASTEIGER

@<TRIPOS>ATOM
      1 C           0.2577   -0.9293   -0.9752 C.3     1  UNL1       -0.0351
      2 C          -0.6276   -0.0473   -0.1383 C.3     1  UNL1        0.0935
      3 C           0.0517    0.1937    1.2273 C.ar    1  UNL1        0.0158
      4 C           1.2646   -0.4872    1.4207 C.ar    1  UNL1       -0.0463
      5 C           1.8471   -0.3641    2.7359 C.ar    1  UNL1       -0.0217
      6 C           3.1353   -1.1014    2.8433 C.2     1  UNL1       -0.0172
      7 C           3.2955   -2.1384    3.5946 C.2     1  UNL1        0.1492
      8 F           2.1796   -2.5508    4.3189 F       1  UNL1       -0.2032
      9 C           4.5177   -2.8878    3.8267 C.ar    1  UNL1        0.0990
     10 C           5.7864   -2.4115    3.4398 C.ar    1  UNL1       -0.0322
     11 C           6.8627   -3.2795    3.7016 C.ar    1  UNL1       -0.0408
     12 C           6.8116   -4.4514    4.2496 C.ar    1  UNL1        0.0699
     13 C           7.8645   -5.3760    4.5422 C.1     1  UNL1        0.1007
     14 N           8.7352   -6.1590    4.7965 N.1     1  UNL1       -0.1908
     15 C           5.4839   -4.9337    4.6433 C.ar    1  UNL1        0.0457
     16 N           4.4815   -4.0964    4.3893 N.ar    1  UNL1       -0.2514
     17 C           1.2478    0.3398    3.6405 C.ar    1  UNL1       -0.0518
     18 C           0.0432    1.0459    3.5147 C.ar    1  UNL1       -0.0255
     19 C          -0.5199    0.9041    2.1839 C.ar    1  UNL1        0.1289
     20 F          -1.6889    1.5866    1.9915 F       1  UNL1       -0.2051
     21 N          -1.8403   -0.7890    0.2183 N.2     1  UNL1       -0.2521
     22 C          -2.7227   -1.0449   -0.6687 C.2     1  UNL1        0.1485
     23 N          -3.8943   -1.7563   -0.3299 N.pl3   1  UNL1       -0.3380
     24 S          -2.4444   -0.3681   -2.3062 S.3     1  UNL1       -0.0746
     25 C          -1.7808    1.3288   -1.9257 C.3     1  UNL1        0.1054
     26 C          -1.7767    2.2754   -3.0391 C.2     1  UNL1        0.2324
     27 O          -0.6610    2.6059   -3.5631 O.2     1  UNL1       -0.2741
     28 N          -3.0123    2.8179   -3.5185 N.am    1  UNL1       -0.3003
     29 C          -3.1078    3.7762   -4.6061 C.3     1  UNL1        0.0148
     30 C          -4.5576    3.7181   -5.0319 C.3     1  UNL1       -0.0357
     31 C          -5.3007    3.3381   -3.7751 C.3     1  UNL1       -0.0357
     32 C          -4.3192    2.5143   -2.9949 C.3     1  UNL1        0.0148
     33 C          -2.3506    1.8201   -0.6127 C.3     1  UNL1       -0.0220
     34 C          -0.9036    1.2840   -0.7770 C.3     1  UNL1        0.0134
     35 H           0.4078   -1.9426   -0.5349 H       1  UNL1        0.0256
     36 H          -0.1435   -1.1073   -1.9886 H       1  UNL1        0.0256
     37 H           1.2930   -0.4928   -1.1072 H       1  UNL1        0.0256
     38 H           1.7244   -1.0454    0.7058 H       1  UNL1        0.0628
     39 H           3.9575   -0.7354    2.2412 H       1  UNL1        0.0653
     40 H           5.8846   -1.4755    2.9932 H       1  UNL1        0.0640
     41 H           7.8762   -2.8876    3.3885 H       1  UNL1        0.0631
     42 H           5.4376   -5.8828    5.0879 H       1  UNL1        0.0843
     43 H           1.6803    0.4417    4.6652 H       1  UNL1        0.0624
     44 H          -0.4482    1.6109    4.2058 H       1  UNL1        0.0646
     45 H          -3.8469   -2.1012    0.7317 H       1  UNL1        0.1442
     46 H          -4.7160   -2.0181   -0.7832 H       1  UNL1        0.1442
     47 H          -2.4803    3.4819   -5.4743 H       1  UNL1        0.0464
     48 H          -2.8714    4.8055   -4.2652 H       1  UNL1        0.0464
     49 H          -4.6992    2.9539   -5.8343 H       1  UNL1        0.0281
     50 H          -4.8606    4.7313   -5.4136 H       1  UNL1        0.0281
     51 H          -5.6346    4.2483   -3.2218 H       1  UNL1        0.0281
     52 H          -6.2395    2.7942   -4.0155 H       1  UNL1        0.0281
     53 H          -4.5821    1.4343   -3.1503 H       1  UNL1        0.0464
     54 H          -4.4321    2.7079   -1.9051 H       1  UNL1        0.0464
     55 H          -2.5075    2.8887   -0.4748 H       1  UNL1        0.0287
     56 H          -3.0497    1.1549   -0.0990 H       1  UNL1        0.0287
     57 H          -0.1072    2.0584   -0.6069 H       1  UNL1        0.0346
@<TRIPOS>BOND
     1     2     1    1
     2     2     3    1
     3     3     4   ar
     4     4     5   ar
     5     5     6    1
     6     6     7    2
     7     7     8    1
     8     7     9    1
     9     9    10   ar
    10    10    11   ar
    11    11    12   ar
    12    12    13    1
    13    13    14    3
    14    12    15   ar
    15    15    16   ar
    16     5    17   ar
    17    17    18   ar
    18    18    19   ar
    19    19    20    1
    20     2    21    1
    21    21    22    2
    22    22    23    1
    23    22    24    1
    24    24    25    1
    25    25    26    1
    26    26    27    2
    27    26    28   am
    28    28    29    1
    29    29    30    1
    30    30    31    1
    31    31    32    1
    32    25    33    1
    33    33    34    1
    34    34     2    1
    35    19     3   ar
    36    34    25    1
    37    16     9   ar
    38    32    28    1
    39     1    35    1
    40     1    36    1
    41     1    37    1
    42     4    38    1
    43     6    39    1
    44    10    40    1
    45    11    41    1
    46    15    42    1
    47    17    43    1
    48    18    44    1
    49    23    45    1
    50    23    46    1
    51    29    47    1
    52    29    48    1
    53    30    49    1
    54    30    50    1
    55    31    51    1
    56    31    52    1
    57    32    53    1
    58    32    54    1
    59    33    55    1
    60    33    56    1
    61    34    57    1
