@<TRIPOS>MOLECULE
*****
 54 56 0 0 0
SMALL
GASTEIGER

@<TRIPOS>ATOM
      1 C           6.8957    0.1565    1.3907 C.3     1  UNL1        0.0790
      2 O           5.6820    0.8354    1.5962 O.3     1  UNL1       -0.4915
      3 C           4.4958    0.4810    0.9710 C.ar    1  UNL1        0.1615
      4 C           4.4189   -0.5725    0.0946 C.ar    1  UNL1       -0.0157
      5 C           3.2148   -0.9415   -0.5476 C.ar    1  UNL1       -0.0491
      6 C           2.0797   -0.2446   -0.3028 C.ar    1  UNL1        0.0017
      7 C           0.7843   -0.5876   -0.8658 C.2     1  UNL1        0.0709
      8 N          -0.1703    0.3037   -0.6175 N.2     1  UNL1       -0.1812
      9 N          -1.4657    0.2115   -1.0579 N.am    1  UNL1       -0.1927
     10 C          -2.4577    1.2012   -0.7340 C.3     1  UNL1        0.0378
     11 C          -3.1766    0.8660    0.5545 C.3     1  UNL1       -0.0352
     12 C          -4.2040    1.9404    0.8410 C.3     1  UNL1       -0.0508
     13 C          -4.9254    1.6041    2.1342 C.3     1  UNL1       -0.0434
     14 C          -5.9620    2.6269    2.4850 C.3     1  UNL1        0.0033
     15 BR         -5.2054    4.3854    2.7180 Br      1  UNL1       -0.0918
     16 C          -1.8420   -0.9216   -1.8653 C.2     1  UNL1        0.2388
     17 O          -2.9469   -1.3675   -1.9573 O.2     1  UNL1       -0.2735
     18 C          -0.6464   -1.5035   -2.6081 C.3     1  UNL1        0.0493
     19 C          -0.9841   -2.7165   -3.3834 C.3     1  UNL1       -0.0230
     20 C          -0.7139   -4.0109   -2.7191 C.2     1  UNL1       -0.0872
     21 C           0.3113   -4.1572   -1.9307 C.2     1  UNL1       -0.0873
     22 C           1.2206   -2.9546   -1.7148 C.3     1  UNL1       -0.0257
     23 C           0.3261   -1.8039   -1.5045 C.3     1  UNL1        0.0183
     24 C           2.1761    0.8336    0.5978 C.ar    1  UNL1       -0.0074
     25 C           3.3424    1.1928    1.2199 C.ar    1  UNL1        0.1621
     26 O           3.4347    2.2560    2.1073 O.3     1  UNL1       -0.4914
     27 C           2.2563    2.9963    2.3722 C.3     1  UNL1        0.0790
     28 H           6.9500   -0.7966    1.9469 H       1  UNL1        0.0660
     29 H           7.7791    0.7748    1.6254 H       1  UNL1        0.0660
     30 H           6.9552   -0.0336    0.2782 H       1  UNL1        0.0660
     31 H           5.2962   -1.1472   -0.1216 H       1  UNL1        0.0655
     32 H           3.2705   -1.7578   -1.2496 H       1  UNL1        0.0625
     33 H          -1.8990    2.1568   -0.5397 H       1  UNL1        0.0485
     34 H          -3.1717    1.3208   -1.5475 H       1  UNL1        0.0485
     35 H          -2.4428    0.8018    1.3932 H       1  UNL1        0.0281
     36 H          -3.7331   -0.0869    0.4199 H       1  UNL1        0.0281
     37 H          -3.7424    2.9282    0.8687 H       1  UNL1        0.0266
     38 H          -4.9707    1.8598    0.0294 H       1  UNL1        0.0266
     39 H          -5.4391    0.6247    2.0551 H       1  UNL1        0.0273
     40 H          -4.1878    1.5785    2.9647 H       1  UNL1        0.0273
     41 H          -6.7698    2.7059    1.7313 H       1  UNL1        0.0382
     42 H          -6.4315    2.3089    3.4375 H       1  UNL1        0.0382
     43 H          -0.2551   -0.7450   -3.3224 H       1  UNL1        0.0404
     44 H          -0.4134   -2.7754   -4.3638 H       1  UNL1        0.0315
     45 H          -2.0819   -2.6429   -3.6505 H       1  UNL1        0.0315
     46 H          -1.4111   -4.8301   -2.9216 H       1  UNL1        0.0569
     47 H           0.5164   -5.0873   -1.4473 H       1  UNL1        0.0569
     48 H           1.8658   -2.9404   -2.5957 H       1  UNL1        0.0314
     49 H           1.7350   -3.1670   -0.7437 H       1  UNL1        0.0314
     50 H          -0.4160   -2.2470   -0.6701 H       1  UNL1        0.0375
     51 H           1.3018    1.4205    0.8252 H       1  UNL1        0.0662
     52 H           1.8926    3.5277    1.4595 H       1  UNL1        0.0660
     53 H           1.4133    2.3538    2.6985 H       1  UNL1        0.0660
     54 H           2.4511    3.7857    3.1222 H       1  UNL1        0.0660
@<TRIPOS>BOND
     1     1     2    1
     2     2     3    1
     3     3     4   ar
     4     4     5   ar
     5     5     6   ar
     6     6     7    1
     7     7     8    2
     8     8     9    1
     9     9    10    1
    10    10    11    1
    11    11    12    1
    12    12    13    1
    13    13    14    1
    14    14    15    1
    15     9    16   am
    16    16    17    2
    17    16    18    1
    18    18    19    1
    19    19    20    1
    20    20    21    2
    21    21    22    1
    22    22    23    1
    23     6    24   ar
    24    24    25   ar
    25    25    26    1
    26    26    27    1
    27    25     3   ar
    28    23     7    1
    29    23    18    1
    30     1    28    1
    31     1    29    1
    32     1    30    1
    33     4    31    1
    34     5    32    1
    35    10    33    1
    36    10    34    1
    37    11    35    1
    38    11    36    1
    39    12    37    1
    40    12    38    1
    41    13    39    1
    42    13    40    1
    43    14    41    1
    44    14    42    1
    45    18    43    1
    46    19    44    1
    47    19    45    1
    48    20    46    1
    49    21    47    1
    50    22    48    1
    51    22    49    1
    52    23    50    1
    53    24    51    1
    54    27    52    1
    55    27    53    1
    56    27    54    1
