@<TRIPOS>MOLECULE
*****
 60 63 0 0 0
SMALL
GASTEIGER

@<TRIPOS>ATOM
      1 C           7.4531    2.6560   -0.3661 C.3     1  UNL1       -0.0127
      2 N           6.7937    1.3809   -0.5663 N.3     1  UNL1       -0.3029
      3 C           5.3899    1.5573   -0.2967 C.3     1  UNL1        0.0114
      4 C           4.6347    0.2332   -0.3492 C.3     1  UNL1        0.0117
      5 N           5.2616   -0.8217    0.2705 N.3     1  UNL1       -0.2999
      6 C           4.6717   -1.7601    1.1075 C.3     1  UNL1       -0.0010
      7 C           3.7507   -2.7131    0.4300 C.3     1  UNL1       -0.0388
      8 C           2.5451   -2.0866   -0.1556 C.3     1  UNL1       -0.0355
      9 C           1.6383   -1.4069    0.8719 C.3     1  UNL1        0.0240
     10 N           0.5132   -0.8788    0.1043 N.am    1  UNL1       -0.2232
     11 C           0.3128    0.3764   -0.5214 C.2     1  UNL1        0.2425
     12 O           1.2266    1.1298   -0.9226 O.2     1  UNL1       -0.2733
     13 C          -1.1769    0.5188   -0.5558 C.3     1  UNL1        0.1161
     14 N          -1.5884   -0.8129   -0.9653 N.am    1  UNL1       -0.1676
     15 N          -2.4847   -1.4760   -1.8004 N.2     1  UNL1       -0.1802
     16 C          -3.7450   -1.4643   -1.5732 C.2     1  UNL1        0.0881
     17 C          -4.5961   -0.8779   -0.5620 C.ar    1  UNL1        0.1480
     18 C          -4.5595   -0.7583    0.8072 C.ar    1  UNL1       -0.0143
     19 C          -5.7025   -0.0713    1.1803 C.ar    1  UNL1       -0.0152
     20 C          -6.3799    0.1907   -0.0135 C.ar    1  UNL1        0.1357
     21 O          -5.6877   -0.3041   -1.0090 O.2     1  UNL1       -0.4539
     22 C          -7.6512    0.9076   -0.0548 C.ar    1  UNL1        0.0174
     23 C          -8.2720    1.3785    1.0942 C.ar    1  UNL1       -0.0497
     24 C          -9.4838    2.0553    1.0219 C.ar    1  UNL1       -0.0427
     25 C         -10.0572    2.2477   -0.2344 C.ar    1  UNL1        0.0410
     26 CL        -11.6006    3.1029   -0.3642 Cl      1  UNL1       -0.0835
     27 C          -9.4327    1.7764   -1.3677 C.ar    1  UNL1       -0.0427
     28 C          -8.2273    1.1014   -1.3135 C.ar    1  UNL1       -0.0497
     29 C          -0.6916   -1.6281   -0.1782 C.2     1  UNL1        0.3311
     30 O          -0.8717   -2.8271    0.2363 O.2     1  UNL1       -0.2502
     31 C           6.7016   -0.8695    0.1847 C.3     1  UNL1        0.0117
     32 C           7.3209    0.4840    0.4484 C.3     1  UNL1        0.0114
     33 H           8.4271    2.6444   -0.9117 H       1  UNL1        0.0391
     34 H           7.6252    2.8024    0.7338 H       1  UNL1        0.0391
     35 H           6.7932    3.4581   -0.7408 H       1  UNL1        0.0391
     36 H           4.9643    2.1926   -1.0945 H       1  UNL1        0.0439
     37 H           5.2606    2.0708    0.6653 H       1  UNL1        0.0439
     38 H           4.4701    0.0086   -1.4462 H       1  UNL1        0.0439
     39 H           3.6475    0.4611    0.0746 H       1  UNL1        0.0439
     40 H           5.4586   -2.4208    1.6134 H       1  UNL1        0.0427
     41 H           4.1484   -1.2546    1.9835 H       1  UNL1        0.0427
     42 H           4.3052   -3.1808   -0.4513 H       1  UNL1        0.0278
     43 H           3.4416   -3.5542    1.1157 H       1  UNL1        0.0278
     44 H           2.7304   -1.4489   -1.0172 H       1  UNL1        0.0281
     45 H           1.8764   -2.9210   -0.5808 H       1  UNL1        0.0281
     46 H           2.1511   -0.6719    1.4765 H       1  UNL1        0.0470
     47 H           1.2546   -2.2537    1.4960 H       1  UNL1        0.0470
     48 H          -1.5611    0.8123    0.4387 H       1  UNL1        0.0582
     49 H          -1.4461    1.3079   -1.2703 H       1  UNL1        0.0582
     50 H          -4.0582   -2.0562   -2.3979 H       1  UNL1        0.0883
     51 H          -3.7353   -1.1690    1.3588 H       1  UNL1        0.0656
     52 H          -5.9370    0.1678    2.2106 H       1  UNL1        0.0656
     53 H          -7.7712    1.1949    2.0378 H       1  UNL1        0.0625
     54 H          -9.9476    2.4123    1.9356 H       1  UNL1        0.0632
     55 H          -9.8534    1.9093   -2.3610 H       1  UNL1        0.0632
     56 H          -7.7542    0.7383   -2.2252 H       1  UNL1        0.0625
     57 H           7.0747   -1.6698    0.8421 H       1  UNL1        0.0439
     58 H           6.9446   -1.1166   -0.8858 H       1  UNL1        0.0439
     59 H           8.4229    0.3681    0.2862 H       1  UNL1        0.0439
     60 H           7.0625    0.8284    1.4722 H       1  UNL1        0.0439
@<TRIPOS>BOND
     1     1     2    1
     2     2     3    1
     3     3     4    1
     4     4     5    1
     5     5     6    1
     6     6     7    1
     7     7     8    1
     8     8     9    1
     9     9    10    1
    10    10    11   am
    11    11    12    2
    12    11    13    1
    13    13    14    1
    14    14    15    1
    15    15    16    2
    16    16    17    1
    17    17    18   ar
    18    18    19   ar
    19    19    20   ar
    20    20    21   ar
    21    20    22    1
    22    22    23   ar
    23    23    24   ar
    24    24    25   ar
    25    25    26    1
    26    25    27   ar
    27    27    28   ar
    28    14    29   am
    29    29    30    2
    30     5    31    1
    31    31    32    1
    32    32     2    1
    33    29    10   am
    34    21    17   ar
    35    28    22   ar
    36     1    33    1
    37     1    34    1
    38     1    35    1
    39     3    36    1
    40     3    37    1
    41     4    38    1
    42     4    39    1
    43     6    40    1
    44     6    41    1
    45     7    42    1
    46     7    43    1
    47     8    44    1
    48     8    45    1
    49     9    46    1
    50     9    47    1
    51    13    48    1
    52    13    49    1
    53    16    50    1
    54    18    51    1
    55    19    52    1
    56    23    53    1
    57    24    54    1
    58    27    55    1
    59    28    56    1
    60    31    57    1
    61    31    58    1
    62    32    59    1
    63    32    60    1
