
     RDKit          3D

 60 63  0  0  0  0  0  0  0  0999 V2000
    7.4531    2.6560   -0.3661 C   0  0  0  0  0  0  0  0  0  0  0  0
    6.7937    1.3809   -0.5663 N   0  0  0  0  0  0  0  0  0  0  0  0
    5.3899    1.5573   -0.2967 C   0  0  0  0  0  0  0  0  0  0  0  0
    4.6347    0.2332   -0.3492 C   0  0  0  0  0  0  0  0  0  0  0  0
    5.2616   -0.8217    0.2705 N   0  0  0  0  0  0  0  0  0  0  0  0
    4.6717   -1.7601    1.1075 C   0  0  0  0  0  0  0  0  0  0  0  0
    3.7507   -2.7131    0.4300 C   0  0  0  0  0  0  0  0  0  0  0  0
    2.5451   -2.0866   -0.1556 C   0  0  0  0  0  0  0  0  0  0  0  0
    1.6383   -1.4069    0.8719 C   0  0  0  0  0  0  0  0  0  0  0  0
    0.5132   -0.8788    0.1043 N   0  0  0  0  0  0  0  0  0  0  0  0
    0.3128    0.3764   -0.5214 C   0  0  0  0  0  0  0  0  0  0  0  0
    1.2266    1.1298   -0.9226 O   0  0  0  0  0  0  0  0  0  0  0  0
   -1.1769    0.5188   -0.5558 C   0  0  0  0  0  0  0  0  0  0  0  0
   -1.5884   -0.8129   -0.9653 N   0  0  0  0  0  0  0  0  0  0  0  0
   -2.4847   -1.4760   -1.8004 N   0  0  0  0  0  0  0  0  0  0  0  0
   -3.7450   -1.4643   -1.5732 C   0  0  0  0  0  0  0  0  0  0  0  0
   -4.5961   -0.8779   -0.5620 C   0  0  0  0  0  0  0  0  0  0  0  0
   -4.5595   -0.7583    0.8072 C   0  0  0  0  0  0  0  0  0  0  0  0
   -5.7025   -0.0713    1.1803 C   0  0  0  0  0  0  0  0  0  0  0  0
   -6.3799    0.1907   -0.0135 C   0  0  0  0  0  0  0  0  0  0  0  0
   -5.6877   -0.3041   -1.0090 O   0  0  0  0  0  0  0  0  0  0  0  0
   -7.6512    0.9076   -0.0548 C   0  0  0  0  0  0  0  0  0  0  0  0
   -8.2720    1.3785    1.0942 C   0  0  0  0  0  0  0  0  0  0  0  0
   -9.4838    2.0553    1.0219 C   0  0  0  0  0  0  0  0  0  0  0  0
  -10.0572    2.2477   -0.2344 C   0  0  0  0  0  0  0  0  0  0  0  0
  -11.6006    3.1029   -0.3642 Cl  0  0  0  0  0  0  0  0  0  0  0  0
   -9.4327    1.7764   -1.3677 C   0  0  0  0  0  0  0  0  0  0  0  0
   -8.2273    1.1014   -1.3135 C   0  0  0  0  0  0  0  0  0  0  0  0
   -0.6916   -1.6281   -0.1782 C   0  0  0  0  0  0  0  0  0  0  0  0
   -0.8717   -2.8271    0.2363 O   0  0  0  0  0  0  0  0  0  0  0  0
    6.7016   -0.8695    0.1847 C   0  0  0  0  0  0  0  0  0  0  0  0
    7.3209    0.4840    0.4484 C   0  0  0  0  0  0  0  0  0  0  0  0
    8.4271    2.6444   -0.9117 H   0  0  0  0  0  0  0  0  0  0  0  0
    7.6252    2.8024    0.7338 H   0  0  0  0  0  0  0  0  0  0  0  0
    6.7932    3.4581   -0.7408 H   0  0  0  0  0  0  0  0  0  0  0  0
    4.9643    2.1926   -1.0945 H   0  0  0  0  0  0  0  0  0  0  0  0
    5.2606    2.0708    0.6653 H   0  0  0  0  0  0  0  0  0  0  0  0
    4.4701    0.0086   -1.4462 H   0  0  0  0  0  0  0  0  0  0  0  0
    3.6475    0.4611    0.0746 H   0  0  0  0  0  0  0  0  0  0  0  0
    5.4586   -2.4208    1.6134 H   0  0  0  0  0  0  0  0  0  0  0  0
    4.1484   -1.2546    1.9835 H   0  0  0  0  0  0  0  0  0  0  0  0
    4.3052   -3.1808   -0.4513 H   0  0  0  0  0  0  0  0  0  0  0  0
    3.4416   -3.5542    1.1157 H   0  0  0  0  0  0  0  0  0  0  0  0
    2.7304   -1.4489   -1.0172 H   0  0  0  0  0  0  0  0  0  0  0  0
    1.8764   -2.9210   -0.5808 H   0  0  0  0  0  0  0  0  0  0  0  0
    2.1511   -0.6719    1.4765 H   0  0  0  0  0  0  0  0  0  0  0  0
    1.2546   -2.2537    1.4960 H   0  0  0  0  0  0  0  0  0  0  0  0
   -1.5611    0.8123    0.4387 H   0  0  0  0  0  0  0  0  0  0  0  0
   -1.4461    1.3079   -1.2703 H   0  0  0  0  0  0  0  0  0  0  0  0
   -4.0582   -2.0562   -2.3979 H   0  0  0  0  0  0  0  0  0  0  0  0
   -3.7353   -1.1690    1.3588 H   0  0  0  0  0  0  0  0  0  0  0  0
   -5.9370    0.1678    2.2106 H   0  0  0  0  0  0  0  0  0  0  0  0
   -7.7712    1.1949    2.0378 H   0  0  0  0  0  0  0  0  0  0  0  0
   -9.9476    2.4123    1.9356 H   0  0  0  0  0  0  0  0  0  0  0  0
   -9.8534    1.9093   -2.3610 H   0  0  0  0  0  0  0  0  0  0  0  0
   -7.7542    0.7383   -2.2252 H   0  0  0  0  0  0  0  0  0  0  0  0
    7.0747   -1.6698    0.8421 H   0  0  0  0  0  0  0  0  0  0  0  0
    6.9446   -1.1166   -0.8858 H   0  0  0  0  0  0  0  0  0  0  0  0
    8.4229    0.3681    0.2862 H   0  0  0  0  0  0  0  0  0  0  0  0
    7.0625    0.8284    1.4722 H   0  0  0  0  0  0  0  0  0  0  0  0
  1  2  1  0
  2  3  1  0
  3  4  1  0
  4  5  1  0
  5  6  1  0
  6  7  1  0
  7  8  1  0
  8  9  1  0
  9 10  1  0
 10 11  1  0
 11 12  2  0
 11 13  1  0
 13 14  1  0
 14 15  1  0
 15 16  2  3
 16 17  1  0
 17 18  2  0
 18 19  1  0
 19 20  2  0
 20 21  1  0
 20 22  1  0
 22 23  2  0
 23 24  1  0
 24 25  2  0
 25 26  1  0
 25 27  1  0
 27 28  2  0
 14 29  1  0
 29 30  2  0
  5 31  1  0
 31 32  1  0
 32  2  1  0
 29 10  1  0
 21 17  1  0
 28 22  1  0
  1 33  1  0
  1 34  1  0
  1 35  1  0
  3 36  1  0
  3 37  1  0
  4 38  1  0
  4 39  1  0
  6 40  1  0
  6 41  1  0
  7 42  1  0
  7 43  1  0
  8 44  1  0
  8 45  1  0
  9 46  1  0
  9 47  1  0
 13 48  1  0
 13 49  1  0
 16 50  1  0
 18 51  1  0
 19 52  1  0
 23 53  1  0
 24 54  1  0
 27 55  1  0
 28 56  1  0
 31 57  1  0
 31 58  1  0
 32 59  1  0
 32 60  1  0
M  END
$$$$
