@<TRIPOS>MOLECULE
*****
 50 54 0 0 0
SMALL
GASTEIGER

@<TRIPOS>ATOM
      1 C          -4.7476   -4.2370    0.9410 C.3     1  UNL1        0.0124
      2 C          -4.8314   -2.7601    1.0022 C.2     1  UNL1        0.2129
      3 O          -5.9605   -2.1974    0.8384 O.2     1  UNL1       -0.2759
      4 N          -3.6577   -2.0127    1.2407 N.am    1  UNL1       -0.2927
      5 C          -2.3994   -2.6746    1.4217 C.3     1  UNL1        0.0331
      6 C          -1.4553   -2.2054    0.3356 C.3     1  UNL1        0.0408
      7 N          -1.4912   -0.7620    0.2749 N.ar    1  UNL1       -0.3242
      8 C          -2.4986   -0.0165    0.6958 C.ar    1  UNL1        0.1283
      9 N          -2.1714    1.2973    0.4750 N.ar    1  UNL1       -0.2300
     10 C          -0.9516    1.3518   -0.0863 C.ar    1  UNL1        0.0971
     11 C          -0.2682    2.5665   -0.4639 C.ar    1  UNL1        0.0026
     12 C           0.0431    3.5130    0.4727 C.ar    1  UNL1       -0.0498
     13 C           0.7064    4.6928    0.1123 C.ar    1  UNL1       -0.0258
     14 C           1.0441    4.8886   -1.2107 C.ar    1  UNL1        0.1234
     15 F           1.6940    6.0382   -1.5826 F       1  UNL1       -0.2055
     16 C           0.7371    3.9417   -2.1719 C.ar    1  UNL1       -0.0258
     17 C           0.0751    2.7762   -1.7785 C.ar    1  UNL1       -0.0498
     18 C          -0.5169    0.0536   -0.2151 C.ar    1  UNL1        0.0781
     19 C           0.7585   -0.3427   -0.7781 C.ar    1  UNL1        0.0173
     20 C           0.8127   -1.1298   -1.8878 C.ar    1  UNL1       -0.0477
     21 C           2.0500   -1.4763   -2.3793 C.ar    1  UNL1       -0.0182
     22 C           3.2094   -1.0349   -1.7599 C.ar    1  UNL1        0.1381
     23 N           4.5191   -1.2522   -2.0690 N.ar    1  UNL1       -0.2353
     24 C           5.2865   -0.6156   -1.1734 C.ar    1  UNL1        0.0588
     25 C           4.4128    0.0084   -0.2919 C.ar    1  UNL1        0.1280
     26 C           4.7879    0.8205    0.8517 C.2     1  UNL1        0.2599
     27 N           3.8541    1.4380    1.7197 N.am    1  UNL1       -0.3241
     28 O           6.0197    0.9830    1.0820 O.2     1  UNL1       -0.2687
     29 N           3.1437   -0.2550   -0.6604 N.ar    1  UNL1       -0.2949
     30 C           1.9420    0.0886   -0.1731 C.ar    1  UNL1        0.0211
     31 C          -3.7475   -0.5757    1.2983 C.3     1  UNL1        0.0728
     32 H          -4.3693   -4.5724    1.9492 H       1  UNL1        0.0323
     33 H          -5.7534   -4.6652    0.7726 H       1  UNL1        0.0323
     34 H          -4.0048   -4.5847    0.1932 H       1  UNL1        0.0323
     35 H          -1.9067   -2.3994    2.3999 H       1  UNL1        0.0482
     36 H          -2.5404   -3.7876    1.3672 H       1  UNL1        0.0482
     37 H          -0.4404   -2.5727    0.6167 H       1  UNL1        0.0508
     38 H          -1.7999   -2.6683   -0.6253 H       1  UNL1        0.0508
     39 H          -0.2262    3.3452    1.4935 H       1  UNL1        0.0625
     40 H           0.9579    5.4429    0.8270 H       1  UNL1        0.0646
     41 H           1.0135    4.1210   -3.2007 H       1  UNL1        0.0646
     42 H          -0.1541    2.0512   -2.5466 H       1  UNL1        0.0625
     43 H          -0.1191   -1.4530   -2.3409 H       1  UNL1        0.0626
     44 H           2.1128   -2.1004   -3.2590 H       1  UNL1        0.0654
     45 H           6.3711   -0.5691   -1.1101 H       1  UNL1        0.0853
     46 H           3.5196    2.4057    1.6403 H       1  UNL1        0.1453
     47 H           3.4578    0.8769    2.5182 H       1  UNL1        0.1453
     48 H           1.8814    0.7142    0.7089 H       1  UNL1        0.0820
     49 H          -4.6492   -0.1942    0.7789 H       1  UNL1        0.0544
     50 H          -3.7496   -0.3004    2.3779 H       1  UNL1        0.0544
@<TRIPOS>BOND
     1     1     2    1
     2     2     3    2
     3     2     4   am
     4     4     5    1
     5     5     6    1
     6     6     7    1
     7     7     8   ar
     8     8     9   ar
     9     9    10   ar
    10    10    11    1
    11    11    12   ar
    12    12    13   ar
    13    13    14   ar
    14    14    15    1
    15    14    16   ar
    16    16    17   ar
    17    10    18   ar
    18    18    19    1
    19    19    20   ar
    20    20    21   ar
    21    21    22   ar
    22    22    23   ar
    23    23    24   ar
    24    24    25   ar
    25    25    26    1
    26    26    27   am
    27    26    28    2
    28    25    29   ar
    29    29    30   ar
    30     8    31    1
    31    31     4    1
    32    18     7   ar
    33    30    19   ar
    34    17    11   ar
    35    29    22   ar
    36     1    32    1
    37     1    33    1
    38     1    34    1
    39     5    35    1
    40     5    36    1
    41     6    37    1
    42     6    38    1
    43    12    39    1
    44    13    40    1
    45    16    41    1
    46    17    42    1
    47    20    43    1
    48    21    44    1
    49    24    45    1
    50    27    46    1
    51    27    47    1
    52    30    48    1
    53    31    49    1
    54    31    50    1
