
     RDKit          3D

 50 54  0  0  0  0  0  0  0  0999 V2000
   -4.7476   -4.2370    0.9410 C   0  0  0  0  0  0  0  0  0  0  0  0
   -4.8314   -2.7601    1.0022 C   0  0  0  0  0  0  0  0  0  0  0  0
   -5.9605   -2.1974    0.8384 O   0  0  0  0  0  0  0  0  0  0  0  0
   -3.6577   -2.0127    1.2407 N   0  0  0  0  0  0  0  0  0  0  0  0
   -2.3994   -2.6746    1.4217 C   0  0  0  0  0  0  0  0  0  0  0  0
   -1.4553   -2.2054    0.3356 C   0  0  0  0  0  0  0  0  0  0  0  0
   -1.4912   -0.7620    0.2749 N   0  0  0  0  0  0  0  0  0  0  0  0
   -2.4986   -0.0165    0.6958 C   0  0  0  0  0  0  0  0  0  0  0  0
   -2.1714    1.2973    0.4750 N   0  0  0  0  0  0  0  0  0  0  0  0
   -0.9516    1.3518   -0.0863 C   0  0  0  0  0  0  0  0  0  0  0  0
   -0.2682    2.5665   -0.4639 C   0  0  0  0  0  0  0  0  0  0  0  0
    0.0431    3.5130    0.4727 C   0  0  0  0  0  0  0  0  0  0  0  0
    0.7064    4.6928    0.1123 C   0  0  0  0  0  0  0  0  0  0  0  0
    1.0441    4.8886   -1.2107 C   0  0  0  0  0  0  0  0  0  0  0  0
    1.6940    6.0382   -1.5826 F   0  0  0  0  0  0  0  0  0  0  0  0
    0.7371    3.9417   -2.1719 C   0  0  0  0  0  0  0  0  0  0  0  0
    0.0751    2.7762   -1.7785 C   0  0  0  0  0  0  0  0  0  0  0  0
   -0.5169    0.0536   -0.2151 C   0  0  0  0  0  0  0  0  0  0  0  0
    0.7585   -0.3427   -0.7781 C   0  0  0  0  0  0  0  0  0  0  0  0
    0.8127   -1.1298   -1.8878 C   0  0  0  0  0  0  0  0  0  0  0  0
    2.0500   -1.4763   -2.3793 C   0  0  0  0  0  0  0  0  0  0  0  0
    3.2094   -1.0349   -1.7599 C   0  0  0  0  0  0  0  0  0  0  0  0
    4.5191   -1.2522   -2.0690 N   0  0  0  0  0  0  0  0  0  0  0  0
    5.2865   -0.6156   -1.1734 C   0  0  0  0  0  0  0  0  0  0  0  0
    4.4128    0.0084   -0.2919 C   0  0  0  0  0  0  0  0  0  0  0  0
    4.7879    0.8205    0.8517 C   0  0  0  0  0  0  0  0  0  0  0  0
    3.8541    1.4380    1.7197 N   0  0  0  0  0  0  0  0  0  0  0  0
    6.0197    0.9830    1.0820 O   0  0  0  0  0  0  0  0  0  0  0  0
    3.1437   -0.2550   -0.6604 N   0  0  0  0  0  0  0  0  0  0  0  0
    1.9420    0.0886   -0.1731 C   0  0  0  0  0  0  0  0  0  0  0  0
   -3.7475   -0.5757    1.2983 C   0  0  0  0  0  0  0  0  0  0  0  0
   -4.3693   -4.5724    1.9492 H   0  0  0  0  0  0  0  0  0  0  0  0
   -5.7534   -4.6652    0.7726 H   0  0  0  0  0  0  0  0  0  0  0  0
   -4.0048   -4.5847    0.1932 H   0  0  0  0  0  0  0  0  0  0  0  0
   -1.9067   -2.3994    2.3999 H   0  0  0  0  0  0  0  0  0  0  0  0
   -2.5404   -3.7876    1.3672 H   0  0  0  0  0  0  0  0  0  0  0  0
   -0.4404   -2.5727    0.6167 H   0  0  0  0  0  0  0  0  0  0  0  0
   -1.7999   -2.6683   -0.6253 H   0  0  0  0  0  0  0  0  0  0  0  0
   -0.2262    3.3452    1.4935 H   0  0  0  0  0  0  0  0  0  0  0  0
    0.9579    5.4429    0.8270 H   0  0  0  0  0  0  0  0  0  0  0  0
    1.0135    4.1210   -3.2007 H   0  0  0  0  0  0  0  0  0  0  0  0
   -0.1541    2.0512   -2.5466 H   0  0  0  0  0  0  0  0  0  0  0  0
   -0.1191   -1.4530   -2.3409 H   0  0  0  0  0  0  0  0  0  0  0  0
    2.1128   -2.1004   -3.2590 H   0  0  0  0  0  0  0  0  0  0  0  0
    6.3711   -0.5691   -1.1101 H   0  0  0  0  0  0  0  0  0  0  0  0
    3.5196    2.4057    1.6403 H   0  0  0  0  0  0  0  0  0  0  0  0
    3.4578    0.8769    2.5182 H   0  0  0  0  0  0  0  0  0  0  0  0
    1.8814    0.7142    0.7089 H   0  0  0  0  0  0  0  0  0  0  0  0
   -4.6492   -0.1942    0.7789 H   0  0  0  0  0  0  0  0  0  0  0  0
   -3.7496   -0.3004    2.3779 H   0  0  0  0  0  0  0  0  0  0  0  0
  1  2  1  0
  2  3  2  0
  2  4  1  0
  4  5  1  0
  5  6  1  0
  6  7  1  0
  7  8  1  0
  8  9  2  0
  9 10  1  0
 10 11  1  0
 11 12  2  0
 12 13  1  0
 13 14  2  0
 14 15  1  0
 14 16  1  0
 16 17  2  0
 10 18  2  0
 18 19  1  0
 19 20  1  0
 20 21  2  0
 21 22  1  0
 22 23  2  0
 23 24  1  0
 24 25  2  0
 25 26  1  0
 26 27  1  0
 26 28  2  0
 25 29  1  0
 29 30  1  0
  8 31  1  0
 31  4  1  0
 18  7  1  0
 30 19  2  0
 17 11  1  0
 29 22  1  0
  1 32  1  0
  1 33  1  0
  1 34  1  0
  5 35  1  0
  5 36  1  0
  6 37  1  0
  6 38  1  0
 12 39  1  0
 13 40  1  0
 16 41  1  0
 17 42  1  0
 20 43  1  0
 21 44  1  0
 24 45  1  0
 27 46  1  0
 27 47  1  0
 30 48  1  0
 31 49  1  0
 31 50  1  0
M  END
$$$$
