
     RDKit          3D

 57 61  0  0  0  0  0  0  0  0999 V2000
    8.4097    3.3032    2.1323 N   0  0  0  0  0  0  0  0  0  0  0  0
    7.8281    2.3860    1.6833 C   0  0  0  0  0  0  0  0  0  0  0  0
    7.1093    1.2705    1.1374 C   0  0  0  0  0  0  0  0  0  0  0  0
    5.7656    1.3830    0.8477 C   0  0  0  0  0  0  0  0  0  0  0  0
    5.0995    0.2846    0.3205 C   0  0  0  0  0  0  0  0  0  0  0  0
    5.7108   -0.9236    0.0677 C   0  0  0  0  0  0  0  0  0  0  0  0
    5.0709   -2.0517   -0.4642 N   0  0  0  0  0  0  0  0  0  0  0  0
    3.7029   -2.1418   -0.8331 C   0  0  2  0  0  0  0  0  0  0  0  0
    3.2710   -1.1778   -1.9179 C   0  0  0  0  0  0  0  0  0  0  0  0
    1.9267   -0.6630   -1.5225 C   0  0  0  0  0  0  0  0  0  0  0  0
    1.6120   -1.2087   -0.2145 N   0  0  0  0  0  0  0  0  0  0  0  0
    0.3732   -1.0221    0.4322 C   0  0  0  0  0  0  0  0  0  0  0  0
    0.1681   -1.5236    1.5665 O   0  0  0  0  0  0  0  0  0  0  0  0
   -0.6851   -0.3052   -0.0911 O   0  0  0  0  0  0  0  0  0  0  0  0
   -1.9130   -0.1081    0.5263 C   0  0  1  0  0  0  0  0  0  0  0  0
   -2.3607    1.3067    0.6462 C   0  0  0  0  0  0  0  0  0  0  0  0
   -2.4476    1.9444   -0.7268 C   0  0  0  0  0  0  0  0  0  0  0  0
   -3.5186    1.2433   -1.5404 C   0  0  0  0  0  0  0  0  0  0  0  0
   -3.0706   -0.2001   -1.6968 C   0  0  0  0  0  0  0  0  0  0  0  0
   -2.9568   -0.8373   -0.3335 C   0  0  0  0  0  0  0  0  0  0  0  0
   -4.2994   -0.8266    0.3219 C   0  0  0  0  0  0  0  0  0  0  0  0
   -4.7385    0.6103    0.4773 C   0  0  2  0  0  0  0  0  0  0  0  0
   -6.0532    0.6226    1.1236 C   0  0  0  0  0  0  0  0  0  0  0  0
   -7.1348   -0.0306    0.4888 N   0  0  0  0  0  0  0  0  0  0  0  0
   -6.2700    1.1897    2.2242 O   0  0  0  0  0  0  0  0  0  0  0  0
   -4.8424    1.3222   -0.8436 C   0  0  0  0  0  0  0  0  0  0  0  0
   -3.7208    1.3126    1.3252 C   0  0  0  0  0  0  0  0  0  0  0  0
    2.7345   -1.9577    0.3155 C   0  0  0  0  0  0  0  0  0  0  0  0
    7.0414   -0.9686    0.3767 N   0  0  0  0  0  0  0  0  0  0  0  0
    7.7175    0.0673    0.8856 C   0  0  0  0  0  0  0  0  0  0  0  0
    5.2433    2.3250    1.0336 H   0  0  0  0  0  0  0  0  0  0  0  0
    4.0655    0.3954    0.1067 H   0  0  0  0  0  0  0  0  0  0  0  0
    5.6699   -2.9222   -0.6036 H   0  0  0  0  0  0  0  0  0  0  0  0
    3.4637   -3.1663   -1.2480 H   0  0  0  0  0  0  0  0  0  0  0  0
    4.0225   -0.4014   -2.1433 H   0  0  0  0  0  0  0  0  0  0  0  0
    3.1224   -1.7011   -2.9111 H   0  0  0  0  0  0  0  0  0  0  0  0
    1.1151   -0.9011   -2.2251 H   0  0  0  0  0  0  0  0  0  0  0  0
    2.0075    0.4577   -1.4624 H   0  0  0  0  0  0  0  0  0  0  0  0
   -1.9901   -0.5956    1.5305 H   0  0  0  0  0  0  0  0  0  0  0  0
   -1.7144    1.9356    1.2814 H   0  0  0  0  0  0  0  0  0  0  0  0
   -2.6228    3.0350   -0.6617 H   0  0  0  0  0  0  0  0  0  0  0  0
   -1.4810    1.7353   -1.2374 H   0  0  0  0  0  0  0  0  0  0  0  0
   -3.5588    1.7422   -2.5171 H   0  0  0  0  0  0  0  0  0  0  0  0
   -2.0762   -0.2123   -2.1824 H   0  0  0  0  0  0  0  0  0  0  0  0
   -3.8370   -0.7352   -2.2546 H   0  0  0  0  0  0  0  0  0  0  0  0
   -2.6331   -1.8965   -0.4567 H   0  0  0  0  0  0  0  0  0  0  0  0
   -4.9983   -1.3851   -0.2991 H   0  0  0  0  0  0  0  0  0  0  0  0
   -4.2066   -1.2473    1.3419 H   0  0  0  0  0  0  0  0  0  0  0  0
   -8.0048    0.4877    0.2969 H   0  0  0  0  0  0  0  0  0  0  0  0
   -7.0386   -1.0259    0.2236 H   0  0  0  0  0  0  0  0  0  0  0  0
   -5.6223    0.8707   -1.4967 H   0  0  0  0  0  0  0  0  0  0  0  0
   -5.0853    2.3740   -0.6563 H   0  0  0  0  0  0  0  0  0  0  0  0
   -3.5969    0.7151    2.2683 H   0  0  0  0  0  0  0  0  0  0  0  0
   -4.0298    2.3401    1.6233 H   0  0  0  0  0  0  0  0  0  0  0  0
    3.1785   -1.5278    1.2139 H   0  0  0  0  0  0  0  0  0  0  0  0
    2.2943   -2.9439    0.6526 H   0  0  0  0  0  0  0  0  0  0  0  0
    8.7837   -0.0518    1.1057 H   0  0  0  0  0  0  0  0  0  0  0  0
  1  2  3  0
  2  3  1  0
  3  4  2  0
  4  5  1  0
  5  6  2  0
  6  7  1  0
  7  8  1  0
  8  9  1  0
  9 10  1  0
 10 11  1  0
 11 12  1  0
 12 13  2  0
 12 14  1  0
 14 15  1  0
 15 16  1  0
 16 17  1  0
 17 18  1  0
 18 19  1  0
 19 20  1  0
 20 21  1  0
 21 22  1  0
 22 23  1  1
 23 24  1  0
 23 25  2  0
 22 26  1  0
 22 27  1  0
 11 28  1  0
  6 29  1  0
 29 30  2  0
 30  3  1  0
 28  8  1  0
 20 15  1  0
 27 16  1  0
 26 18  1  0
  4 31  1  0
  5 32  1  0
  7 33  1  0
  8 34  1  6
  9 35  1  0
  9 36  1  0
 10 37  1  0
 10 38  1  0
 15 39  1  1
 16 40  1  0
 17 41  1  0
 17 42  1  0
 18 43  1  0
 19 44  1  0
 19 45  1  0
 20 46  1  0
 21 47  1  0
 21 48  1  0
 24 49  1  0
 24 50  1  0
 26 51  1  0
 26 52  1  0
 27 53  1  0
 27 54  1  0
 28 55  1  0
 28 56  1  0
 30 57  1  0
M  END
$$$$
