@<TRIPOS>MOLECULE
*****
 57 61 0 0 0
SMALL
GASTEIGER

@<TRIPOS>ATOM
      1 N           8.4097    3.3032    2.1323 N.1     1  UNL1       -0.1908
      2 C           7.8281    2.3860    1.6833 C.1     1  UNL1        0.1007
      3 C           7.1093    1.2705    1.1374 C.ar    1  UNL1        0.0699
      4 C           5.7656    1.3830    0.8477 C.ar    1  UNL1       -0.0396
      5 C           5.0995    0.2846    0.3205 C.ar    1  UNL1       -0.0207
      6 C           5.7108   -0.9236    0.0677 C.ar    1  UNL1        0.1190
      7 N           5.0709   -2.0517   -0.4642 N.pl3   1  UNL1       -0.3247
      8 C           3.7029   -2.1418   -0.8331 C.3     1  UNL1        0.0392
      9 C           3.2710   -1.1778   -1.9179 C.3     1  UNL1       -0.0171
     10 C           1.9267   -0.6630   -1.5225 C.3     1  UNL1        0.0196
     11 N           1.6120   -1.2087   -0.2145 N.am    1  UNL1       -0.2656
     12 C           0.3732   -1.0221    0.4322 C.2     1  UNL1        0.4032
     13 O           0.1681   -1.5236    1.5665 O.2     1  UNL1       -0.2262
     14 O          -0.6851   -0.3052   -0.0911 O.3     1  UNL1       -0.4464
     15 C          -1.9130   -0.1081    0.5263 C.3     1  UNL1        0.1103
     16 C          -2.3607    1.3067    0.6462 C.3     1  UNL1       -0.0023
     17 C          -2.4476    1.9444   -0.7268 C.3     1  UNL1       -0.0439
     18 C          -3.5186    1.2433   -1.5404 C.3     1  UNL1       -0.0394
     19 C          -3.0706   -0.2001   -1.6968 C.3     1  UNL1       -0.0439
     20 C          -2.9568   -0.8373   -0.3335 C.3     1  UNL1       -0.0023
     21 C          -4.2994   -0.8266    0.3219 C.3     1  UNL1       -0.0328
     22 C          -4.7385    0.6103    0.4773 C.3     1  UNL1        0.0477
     23 C          -6.0532    0.6226    1.1236 C.2     1  UNL1        0.2167
     24 N          -7.1348   -0.0306    0.4888 N.am    1  UNL1       -0.3289
     25 O          -6.2700    1.1897    2.2242 O.2     1  UNL1       -0.2754
     26 C          -4.8424    1.3222   -0.8436 C.3     1  UNL1       -0.0362
     27 C          -3.7208    1.3126    1.3252 C.3     1  UNL1       -0.0328
     28 C           2.7345   -1.9577    0.3155 C.3     1  UNL1        0.0362
     29 N           7.0414   -0.9686    0.3767 N.ar    1  UNL1       -0.2392
     30 C           7.7175    0.0673    0.8856 C.ar    1  UNL1        0.0470
     31 H           5.2433    2.3250    1.0336 H       1  UNL1        0.0632
     32 H           4.0655    0.3954    0.1067 H       1  UNL1        0.0652
     33 H           5.6699   -2.9222   -0.6036 H       1  UNL1        0.1478
     34 H           3.4637   -3.1663   -1.2480 H       1  UNL1        0.0514
     35 H           4.0225   -0.4014   -2.1433 H       1  UNL1        0.0299
     36 H           3.1224   -1.7011   -2.9111 H       1  UNL1        0.0299
     37 H           1.1151   -0.9011   -2.2251 H       1  UNL1        0.0466
     38 H           2.0075    0.4577   -1.4624 H       1  UNL1        0.0466
     39 H          -1.9901   -0.5956    1.5305 H       1  UNL1        0.0740
     40 H          -1.7144    1.9356    1.2814 H       1  UNL1        0.0337
     41 H          -2.6228    3.0350   -0.6617 H       1  UNL1        0.0272
     42 H          -1.4810    1.7353   -1.2374 H       1  UNL1        0.0272
     43 H          -3.5588    1.7422   -2.5171 H       1  UNL1        0.0301
     44 H          -2.0762   -0.2123   -2.1824 H       1  UNL1        0.0272
     45 H          -3.8370   -0.7352   -2.2546 H       1  UNL1        0.0272
     46 H          -2.6331   -1.8965   -0.4567 H       1  UNL1        0.0337
     47 H          -4.9983   -1.3851   -0.2991 H       1  UNL1        0.0279
     48 H          -4.2066   -1.2473    1.3419 H       1  UNL1        0.0279
     49 H          -8.0048    0.4877    0.2969 H       1  UNL1        0.1449
     50 H          -7.0386   -1.0259    0.2236 H       1  UNL1        0.1449
     51 H          -5.6223    0.8707   -1.4967 H       1  UNL1        0.0278
     52 H          -5.0853    2.3740   -0.6563 H       1  UNL1        0.0278
     53 H          -3.5969    0.7151    2.2683 H       1  UNL1        0.0279
     54 H          -4.0298    2.3401    1.6233 H       1  UNL1        0.0279
     55 H           3.1785   -1.5278    1.2139 H       1  UNL1        0.0484
     56 H           2.2943   -2.9439    0.6526 H       1  UNL1        0.0484
     57 H           8.7837   -0.0518    1.1057 H       1  UNL1        0.0843
@<TRIPOS>BOND
     1     1     2    3
     2     2     3    1
     3     3     4   ar
     4     4     5   ar
     5     5     6   ar
     6     6     7    1
     7     7     8    1
     8     8     9    1
     9     9    10    1
    10    10    11    1
    11    11    12   am
    12    12    13    2
    13    12    14    1
    14    14    15    1
    15    15    16    1
    16    16    17    1
    17    17    18    1
    18    18    19    1
    19    19    20    1
    20    20    21    1
    21    21    22    1
    22    22    23    1
    23    23    24   am
    24    23    25    2
    25    22    26    1
    26    22    27    1
    27    11    28    1
    28     6    29   ar
    29    29    30   ar
    30    30     3   ar
    31    28     8    1
    32    20    15    1
    33    27    16    1
    34    26    18    1
    35     4    31    1
    36     5    32    1
    37     7    33    1
    38     8    34    1
    39     9    35    1
    40     9    36    1
    41    10    37    1
    42    10    38    1
    43    15    39    1
    44    16    40    1
    45    17    41    1
    46    17    42    1
    47    18    43    1
    48    19    44    1
    49    19    45    1
    50    20    46    1
    51    21    47    1
    52    21    48    1
    53    24    49    1
    54    24    50    1
    55    26    51    1
    56    26    52    1
    57    27    53    1
    58    27    54    1
    59    28    55    1
    60    28    56    1
    61    30    57    1
