@<TRIPOS>MOLECULE
*****
 51 55 0 0 0
SMALL
GASTEIGER

@<TRIPOS>ATOM
      1 C           7.1989    1.8365    1.9132 C.3     1  UNL1       -0.0223
      2 C           6.0062    0.9559    1.8746 C.ar    1  UNL1        0.0390
      3 C           5.5749    0.3953    3.0561 C.ar    1  UNL1       -0.0406
      4 C           4.4684   -0.4211    3.0073 C.ar    1  UNL1       -0.0580
      5 C           3.8398   -0.6438    1.7854 C.ar    1  UNL1       -0.0326
      6 C           4.2927   -0.0697    0.6194 C.ar    1  UNL1        0.1083
      7 C           3.6674   -0.2745   -0.6927 C.ar    1  UNL1        0.1827
      8 N           4.2883   -0.3601   -1.8870 N.ar    1  UNL1       -0.1275
      9 N           3.4288   -0.5452   -2.8381 N.ar    1  UNL1       -0.1320
     10 C           2.1983   -0.5831   -2.2499 C.ar    1  UNL1        0.1542
     11 N           2.3569   -0.4163   -0.9416 N.ar    1  UNL1       -0.3067
     12 C           1.2314   -0.3935   -0.0201 C.3     1  UNL1        0.0423
     13 C           0.0117    0.1852   -0.7411 C.3     1  UNL1        0.0338
     14 N          -0.1931   -0.4156   -2.0148 N.am    1  UNL1       -0.2860
     15 C          -1.5579   -0.6703   -2.4713 C.2     1  UNL1        0.2472
     16 O          -1.7348   -1.1970   -3.5905 O.2     1  UNL1       -0.2700
     17 C          -2.6345   -0.2894   -1.5819 C.ar    1  UNL1        0.0370
     18 C          -3.4760   -1.2630   -1.0909 C.ar    1  UNL1       -0.0490
     19 C          -4.5294   -0.9442   -0.2282 C.ar    1  UNL1       -0.0528
     20 C          -4.6910    0.3921    0.1119 C.ar    1  UNL1       -0.0113
     21 C          -5.7688    0.7841    1.0065 C.ar    1  UNL1        0.0193
     22 C          -6.1436    1.9687    1.4998 C.ar    1  UNL1       -0.0469
     23 C          -7.1893    2.0653    2.3221 C.ar    1  UNL1       -0.0541
     24 C          -7.8579    0.8791    2.6322 C.ar    1  UNL1       -0.0237
     25 S          -6.9556   -0.3404    1.7265 S.2     1  UNL1       -0.0967
     26 C          -3.8703    1.3834   -0.3604 C.ar    1  UNL1       -0.0528
     27 C          -2.8514    1.0116   -1.2050 C.ar    1  UNL1       -0.0490
     28 C           0.8934   -0.7837   -2.8743 C.3     1  UNL1        0.0834
     29 C           0.7610   -2.2496   -3.2852 C.3     1  UNL1       -0.0393
     30 N           5.3779    0.7228    0.7075 N.ar    1  UNL1       -0.2488
     31 H           7.9214    1.4041    1.1655 H       1  UNL1        0.0292
     32 H           7.6775    1.8367    2.9047 H       1  UNL1        0.0292
     33 H           6.9891    2.8637    1.5350 H       1  UNL1        0.0292
     34 H           6.0740    0.5759    4.0100 H       1  UNL1        0.0635
     35 H           4.1280   -0.8597    3.9202 H       1  UNL1        0.0619
     36 H           2.9854   -1.2784    1.7585 H       1  UNL1        0.0640
     37 H           1.4092    0.2588    0.8343 H       1  UNL1        0.0508
     38 H           0.9431   -1.3933    0.3528 H       1  UNL1        0.0508
     39 H          -0.9111   -0.0056   -0.1192 H       1  UNL1        0.0482
     40 H           0.1000    1.2831   -0.8806 H       1  UNL1        0.0482
     41 H          -3.3584   -2.3122   -1.3499 H       1  UNL1        0.0625
     42 H          -5.1544   -1.7278    0.1274 H       1  UNL1        0.0624
     43 H          -5.5632    2.8913    1.2123 H       1  UNL1        0.0629
     44 H          -7.5584    3.0314    2.7734 H       1  UNL1        0.0623
     45 H          -8.7437    0.7285    3.2883 H       1  UNL1        0.0693
     46 H          -4.0317    2.4025   -0.0719 H       1  UNL1        0.0624
     47 H          -2.1943    1.7756   -1.5878 H       1  UNL1        0.0625
     48 H           0.8278   -0.2207   -3.8468 H       1  UNL1        0.0579
     49 H           0.1846   -2.3698   -4.2168 H       1  UNL1        0.0252
     50 H           0.3382   -2.8682   -2.4895 H       1  UNL1        0.0252
     51 H           1.7942   -2.6086   -3.5092 H       1  UNL1        0.0252
@<TRIPOS>BOND
     1     1     2    1
     2     2     3   ar
     3     3     4   ar
     4     4     5   ar
     5     5     6   ar
     6     6     7    1
     7     7     8   ar
     8     8     9   ar
     9     9    10   ar
    10    10    11   ar
    11    11    12    1
    12    12    13    1
    13    13    14    1
    14    14    15   am
    15    15    16    2
    16    15    17    1
    17    17    18   ar
    18    18    19   ar
    19    19    20   ar
    20    20    21    1
    21    21    22   ar
    22    22    23   ar
    23    23    24   ar
    24    24    25   ar
    25    20    26   ar
    26    26    27   ar
    27    14    28    1
    28    28    29    1
    29     6    30   ar
    30    30     2   ar
    31    11     7   ar
    32    27    17   ar
    33    28    10    1
    34    25    21   ar
    35     1    31    1
    36     1    32    1
    37     1    33    1
    38     3    34    1
    39     4    35    1
    40     5    36    1
    41    12    37    1
    42    12    38    1
    43    13    39    1
    44    13    40    1
    45    18    41    1
    46    19    42    1
    47    22    43    1
    48    23    44    1
    49    24    45    1
    50    26    46    1
    51    27    47    1
    52    28    48    1
    53    29    49    1
    54    29    50    1
    55    29    51    1
