@<TRIPOS>MOLECULE
*****
 70 75 0 0 0
SMALL
GASTEIGER

@<TRIPOS>ATOM
      1 C          -1.2055    7.8946    1.5363 C.3     1  UNL1        0.0804
      2 O          -0.6403    6.6087    1.6478 O.3     1  UNL1       -0.4795
      3 C          -1.0008    5.6044    0.7679 C.ar    1  UNL1        0.2191
      4 C          -0.4591    4.3413    0.8617 C.ar    1  UNL1        0.0404
      5 C          -0.8418    3.3666   -0.0318 C.ar    1  UNL1        0.1364
      6 N          -0.3397    2.0515   -0.0097 N.am    1  UNL1       -0.2240
      7 C           0.8318    1.6348   -0.7403 C.2     1  UNL1        0.3219
      8 O           1.3368    2.1915   -1.7570 O.2     1  UNL1       -0.2512
      9 N           1.3498    0.4642   -0.1233 N.am    1  UNL1       -0.1920
     10 C           2.4959   -0.2948   -0.5035 C.ar    1  UNL1        0.0455
     11 C           3.7138    0.0448    0.0322 C.ar    1  UNL1       -0.0392
     12 C           4.8756   -0.6414   -0.2818 C.ar    1  UNL1       -0.0522
     13 C           4.7513   -1.6908   -1.1650 C.ar    1  UNL1       -0.0172
     14 C           5.9786   -2.4790   -1.5378 C.ar    1  UNL1       -0.0101
     15 C           6.0362   -3.0333   -2.8135 C.ar    1  UNL1       -0.0158
     16 S           7.6488   -3.8666   -2.7940 S.2     1  UNL1       -0.0896
     17 C           8.0845   -3.4033   -1.1128 C.ar    1  UNL1        0.0966
     18 C           9.3007   -3.7597   -0.4360 C.2     1  UNL1        0.3435
     19 O          10.1668   -4.4488   -1.0115 O.2     1  UNL1       -0.2445
     20 O           9.5248   -3.3438    0.8598 O.3     1  UNL1       -0.4768
     21 C           7.0064   -2.6804   -0.7225 C.ar    1  UNL1       -0.0329
     22 C           3.5386   -2.0422   -1.7090 C.ar    1  UNL1       -0.0522
     23 C           2.3838   -1.3404   -1.3811 C.ar    1  UNL1       -0.0392
     24 C           0.4909    0.1813    0.9733 C.2     1  UNL1        0.2516
     25 O           0.7649   -0.5131    1.9959 O.2     1  UNL1       -0.2724
     26 C          -0.7868    0.8698    0.6635 C.3     1  UNL1        0.1240
     27 C          -1.5270    1.1133    1.9371 C.3     1  UNL1       -0.0095
     28 C          -2.4794    0.0209    2.3115 C.3     1  UNL1        0.0017
     29 N          -3.2342   -0.5575    1.2636 N.3     1  UNL1       -0.2965
     30 C          -3.2301   -2.0037    1.2432 C.3     1  UNL1        0.0415
     31 C          -4.0704   -2.4155    0.0989 C.ar    1  UNL1        0.0581
     32 N          -3.4748   -2.8508   -1.0181 N.ar    1  UNL1       -0.2583
     33 C          -4.1708   -3.2410   -2.1014 C.ar    1  UNL1        0.0279
     34 C          -5.5473   -3.1883   -2.0531 C.ar    1  UNL1       -0.0433
     35 C          -6.1958   -2.7381   -0.8996 C.ar    1  UNL1       -0.0557
     36 C          -5.4312   -2.3516    0.1786 C.ar    1  UNL1       -0.0279
     37 C          -6.0685   -1.8676    1.4219 C.3     1  UNL1       -0.0380
     38 C          -3.0297    0.0338   -0.0134 C.3     1  UNL1        0.0017
     39 C          -1.5458    0.0135   -0.3153 C.3     1  UNL1       -0.0095
     40 N          -1.7422    3.6978   -0.9711 N.ar    1  UNL1       -0.2200
     41 C          -2.2751    4.9187   -1.0728 C.ar    1  UNL1        0.1219
     42 N          -1.9036    5.8637   -0.2060 N.ar    1  UNL1       -0.2013
     43 H          -1.3629    8.3144    2.5543 H       1  UNL1        0.0660
     44 H          -0.5300    8.5087    0.9168 H       1  UNL1        0.0660
     45 H          -2.1926    7.7733    1.0079 H       1  UNL1        0.0660
     46 H           0.2579    4.1591    1.6463 H       1  UNL1        0.0705
     47 H           3.7406    0.8949    0.7325 H       1  UNL1        0.0636
     48 H           5.8210   -0.3478    0.1582 H       1  UNL1        0.0624
     49 H           5.3484   -3.0118   -3.6336 H       1  UNL1        0.0700
     50 H          10.0848   -3.8884    1.5266 H       1  UNL1        0.2954
     51 H           7.0042   -2.2476    0.3276 H       1  UNL1        0.0637
     52 H           3.4261   -2.8769   -2.4139 H       1  UNL1        0.0624
     53 H           1.4335   -1.6052   -1.7996 H       1  UNL1        0.0636
     54 H          -2.0924    2.0655    1.8763 H       1  UNL1        0.0303
     55 H          -0.7899    1.2286    2.7601 H       1  UNL1        0.0303
     56 H          -1.8663   -0.8025    2.7828 H       1  UNL1        0.0427
     57 H          -3.1689    0.3522    3.1100 H       1  UNL1        0.0427
     58 H          -2.2405   -2.4401    1.1294 H       1  UNL1        0.0491
     59 H          -3.6573   -2.4250    2.1856 H       1  UNL1        0.0491
     60 H          -3.6965   -3.5933   -3.0061 H       1  UNL1        0.0829
     61 H          -6.1065   -3.5040   -2.9290 H       1  UNL1        0.0633
     62 H          -7.2574   -2.7140   -0.9067 H       1  UNL1        0.0621
     63 H          -7.1802   -2.0499    1.3960 H       1  UNL1        0.0278
     64 H          -5.6867   -2.3549    2.3361 H       1  UNL1        0.0278
     65 H          -5.9613   -0.7582    1.4393 H       1  UNL1        0.0278
     66 H          -3.5684   -0.4827   -0.8075 H       1  UNL1        0.0427
     67 H          -3.3037    1.1197    0.0686 H       1  UNL1        0.0427
     68 H          -1.1447   -1.0085   -0.2844 H       1  UNL1        0.0303
     69 H          -1.3997    0.3948   -1.3457 H       1  UNL1        0.0303
     70 H          -2.9912    5.1361   -1.8399 H       1  UNL1        0.1049
@<TRIPOS>BOND
     1     1     2    1
     2     2     3    1
     3     3     4   ar
     4     4     5   ar
     5     5     6    1
     6     6     7   am
     7     7     8    2
     8     7     9   am
     9     9    10    1
    10    10    11   ar
    11    11    12   ar
    12    12    13   ar
    13    13    14    1
    14    14    15   ar
    15    15    16   ar
    16    16    17   ar
    17    17    18    1
    18    18    19    2
    19    18    20    1
    20    17    21   ar
    21    13    22   ar
    22    22    23   ar
    23     9    24   am
    24    24    25    2
    25    24    26    1
    26    26    27    1
    27    27    28    1
    28    28    29    1
    29    29    30    1
    30    30    31    1
    31    31    32   ar
    32    32    33   ar
    33    33    34   ar
    34    34    35   ar
    35    35    36   ar
    36    36    37    1
    37    29    38    1
    38    38    39    1
    39     5    40   ar
    40    40    41   ar
    41    41    42   ar
    42    42     3   ar
    43    26     6    1
    44    36    31   ar
    45    23    10   ar
    46    39    26    1
    47    21    14   ar
    48     1    43    1
    49     1    44    1
    50     1    45    1
    51     4    46    1
    52    11    47    1
    53    12    48    1
    54    15    49    1
    55    20    50    1
    56    21    51    1
    57    22    52    1
    58    23    53    1
    59    27    54    1
    60    27    55    1
    61    28    56    1
    62    28    57    1
    63    30    58    1
    64    30    59    1
    65    33    60    1
    66    34    61    1
    67    35    62    1
    68    37    63    1
    69    37    64    1
    70    37    65    1
    71    38    66    1
    72    38    67    1
    73    39    68    1
    74    39    69    1
    75    41    70    1
