@<TRIPOS>MOLECULE
*****
 54 57 0 0 0
SMALL
GASTEIGER

@<TRIPOS>ATOM
      1 C          -2.5652    0.5666   -4.4993 C.3     1  UNL1        0.0127
      2 C          -1.4463    0.2655   -3.5708 C.2     1  UNL1        0.2169
      3 O          -0.7467   -0.7555   -3.9590 O.2     1  UNL1       -0.2756
      4 N          -1.1157    0.9494   -2.3984 N.am    1  UNL1       -0.2685
      5 C           0.0928    0.4883   -1.7297 C.ar    1  UNL1        0.0415
      6 C           1.2141    0.1282   -2.4509 C.ar    1  UNL1       -0.0394
      7 C           2.3720   -0.2925   -1.7745 C.ar    1  UNL1       -0.0523
      8 C           2.3826   -0.3429   -0.4037 C.ar    1  UNL1       -0.0175
      9 C           3.5827   -0.7785    0.3113 C.ar    1  UNL1       -0.0178
     10 C           4.8566   -0.5557   -0.1533 C.ar    1  UNL1       -0.0533
     11 C           5.9817   -0.9788    0.5406 C.ar    1  UNL1       -0.0472
     12 C           5.8286   -1.6453    1.7367 C.ar    1  UNL1        0.0589
     13 C           6.9641   -2.1160    2.5152 C.2     1  UNL1        0.3368
     14 O           8.1169   -1.9021    2.0765 O.2     1  UNL1       -0.2451
     15 O           6.8268   -2.7874    3.7155 O.3     1  UNL1       -0.4771
     16 C           4.5725   -1.8838    2.2284 C.ar    1  UNL1       -0.0472
     17 C           3.4626   -1.4497    1.5139 C.ar    1  UNL1       -0.0533
     18 C           1.2452    0.0231    0.2898 C.ar    1  UNL1       -0.0473
     19 C           0.0946    0.4389   -0.3525 C.ar    1  UNL1       -0.0053
     20 C          -1.1461    0.7798    0.3796 C.3     1  UNL1        0.0493
     21 N          -1.8632   -0.4712    0.5990 N.pl3   1  UNL1       -0.3369
     22 C          -2.9750   -0.5078    1.4604 C.ar    1  UNL1        0.0277
     23 C          -3.7210   -1.6649    1.6445 C.ar    1  UNL1       -0.0395
     24 C          -4.7795   -1.6760    2.5014 C.ar    1  UNL1       -0.0416
     25 C          -5.1505   -0.5399    3.2181 C.ar    1  UNL1        0.0411
     26 CL         -6.4978   -0.5265    4.3179 Cl      1  UNL1       -0.0835
     27 C          -4.4068    0.6125    3.0345 C.ar    1  UNL1       -0.0416
     28 C          -3.3378    0.6103    2.1647 C.ar    1  UNL1       -0.0395
     29 C          -2.0489    1.7109   -0.3028 C.3     1  UNL1       -0.0115
     30 C          -1.7670    2.0272   -1.7308 C.3     1  UNL1        0.0303
     31 C          -2.9709    2.6291   -2.4125 C.3     1  UNL1       -0.0460
     32 H          -3.5094    0.1497   -4.1006 H       1  UNL1        0.0323
     33 H          -2.6905    1.6180   -4.7295 H       1  UNL1        0.0323
     34 H          -2.4091   -0.0257   -5.4679 H       1  UNL1        0.0323
     35 H           1.1925    0.1787   -3.5134 H       1  UNL1        0.0636
     36 H           3.2508   -0.5750   -2.3359 H       1  UNL1        0.0624
     37 H           5.0029   -0.0448   -1.0714 H       1  UNL1        0.0624
     38 H           6.9904   -0.8161    0.1970 H       1  UNL1        0.0626
     39 H           7.6013   -2.8959    4.3583 H       1  UNL1        0.2954
     40 H           4.4593   -2.4119    3.1755 H       1  UNL1        0.0626
     41 H           2.4792   -1.6463    1.9166 H       1  UNL1        0.0624
     42 H           1.2676   -0.0209    1.3637 H       1  UNL1        0.0628
     43 H          -0.8451    1.1481    1.4014 H       1  UNL1        0.0549
     44 H          -1.5752   -1.3644    0.1288 H       1  UNL1        0.1467
     45 H          -3.4498   -2.5429    1.1034 H       1  UNL1        0.0636
     46 H          -5.3939   -2.5609    2.6779 H       1  UNL1        0.0633
     47 H          -4.6599    1.5288    3.5751 H       1  UNL1        0.0633
     48 H          -2.7868    1.5202    2.0684 H       1  UNL1        0.0636
     49 H          -2.1035    2.7237    0.2170 H       1  UNL1        0.0304
     50 H          -3.1108    1.3173   -0.2794 H       1  UNL1        0.0304
     51 H          -1.0101    2.8950   -1.6899 H       1  UNL1        0.0502
     52 H          -2.6162    3.3089   -3.2043 H       1  UNL1        0.0248
     53 H          -3.7645    1.9387   -2.6766 H       1  UNL1        0.0248
     54 H          -3.3745    3.3667   -1.6239 H       1  UNL1        0.0248
@<TRIPOS>BOND
     1     1     2    1
     2     2     3    2
     3     2     4   am
     4     4     5    1
     5     5     6   ar
     6     6     7   ar
     7     7     8   ar
     8     8     9    1
     9     9    10   ar
    10    10    11   ar
    11    11    12   ar
    12    12    13    1
    13    13    14    2
    14    13    15    1
    15    12    16   ar
    16    16    17   ar
    17     8    18   ar
    18    18    19   ar
    19    19    20    1
    20    20    21    1
    21    21    22    1
    22    22    23   ar
    23    23    24   ar
    24    24    25   ar
    25    25    26    1
    26    25    27   ar
    27    27    28   ar
    28    20    29    1
    29    29    30    1
    30    30    31    1
    31    30     4    1
    32    19     5   ar
    33    28    22   ar
    34    17     9   ar
    35     1    32    1
    36     1    33    1
    37     1    34    1
    38     6    35    1
    39     7    36    1
    40    10    37    1
    41    11    38    1
    42    15    39    1
    43    16    40    1
    44    17    41    1
    45    18    42    1
    46    20    43    1
    47    21    44    1
    48    23    45    1
    49    24    46    1
    50    27    47    1
    51    28    48    1
    52    29    49    1
    53    29    50    1
    54    30    51    1
    55    31    52    1
    56    31    53    1
    57    31    54    1
