
     RDKit          3D

 54 57  0  0  0  0  0  0  0  0999 V2000
   -2.5652    0.5666   -4.4993 C   0  0  0  0  0  0  0  0  0  0  0  0
   -1.4463    0.2655   -3.5708 C   0  0  0  0  0  0  0  0  0  0  0  0
   -0.7467   -0.7555   -3.9590 O   0  0  0  0  0  0  0  0  0  0  0  0
   -1.1157    0.9494   -2.3984 N   0  0  0  0  0  0  0  0  0  0  0  0
    0.0928    0.4883   -1.7297 C   0  0  0  0  0  0  0  0  0  0  0  0
    1.2141    0.1282   -2.4509 C   0  0  0  0  0  0  0  0  0  0  0  0
    2.3720   -0.2925   -1.7745 C   0  0  0  0  0  0  0  0  0  0  0  0
    2.3826   -0.3429   -0.4037 C   0  0  0  0  0  0  0  0  0  0  0  0
    3.5827   -0.7785    0.3113 C   0  0  0  0  0  0  0  0  0  0  0  0
    4.8566   -0.5557   -0.1533 C   0  0  0  0  0  0  0  0  0  0  0  0
    5.9817   -0.9788    0.5406 C   0  0  0  0  0  0  0  0  0  0  0  0
    5.8286   -1.6453    1.7367 C   0  0  0  0  0  0  0  0  0  0  0  0
    6.9641   -2.1160    2.5152 C   0  0  0  0  0  0  0  0  0  0  0  0
    8.1169   -1.9021    2.0765 O   0  0  0  0  0  0  0  0  0  0  0  0
    6.8268   -2.7874    3.7155 O   0  0  0  0  0  0  0  0  0  0  0  0
    4.5725   -1.8838    2.2284 C   0  0  0  0  0  0  0  0  0  0  0  0
    3.4626   -1.4497    1.5139 C   0  0  0  0  0  0  0  0  0  0  0  0
    1.2452    0.0231    0.2898 C   0  0  0  0  0  0  0  0  0  0  0  0
    0.0946    0.4389   -0.3525 C   0  0  0  0  0  0  0  0  0  0  0  0
   -1.1461    0.7798    0.3796 C   0  0  2  0  0  0  0  0  0  0  0  0
   -1.8632   -0.4712    0.5990 N   0  0  0  0  0  0  0  0  0  0  0  0
   -2.9750   -0.5078    1.4604 C   0  0  0  0  0  0  0  0  0  0  0  0
   -3.7210   -1.6649    1.6445 C   0  0  0  0  0  0  0  0  0  0  0  0
   -4.7795   -1.6760    2.5014 C   0  0  0  0  0  0  0  0  0  0  0  0
   -5.1505   -0.5399    3.2181 C   0  0  0  0  0  0  0  0  0  0  0  0
   -6.4978   -0.5265    4.3179 Cl  0  0  0  0  0  0  0  0  0  0  0  0
   -4.4068    0.6125    3.0345 C   0  0  0  0  0  0  0  0  0  0  0  0
   -3.3378    0.6103    2.1647 C   0  0  0  0  0  0  0  0  0  0  0  0
   -2.0489    1.7109   -0.3028 C   0  0  0  0  0  0  0  0  0  0  0  0
   -1.7670    2.0272   -1.7308 C   0  0  2  0  0  0  0  0  0  0  0  0
   -2.9709    2.6291   -2.4125 C   0  0  0  0  0  0  0  0  0  0  0  0
   -3.5094    0.1497   -4.1006 H   0  0  0  0  0  0  0  0  0  0  0  0
   -2.6905    1.6180   -4.7295 H   0  0  0  0  0  0  0  0  0  0  0  0
   -2.4091   -0.0257   -5.4679 H   0  0  0  0  0  0  0  0  0  0  0  0
    1.1925    0.1787   -3.5134 H   0  0  0  0  0  0  0  0  0  0  0  0
    3.2508   -0.5750   -2.3359 H   0  0  0  0  0  0  0  0  0  0  0  0
    5.0029   -0.0448   -1.0714 H   0  0  0  0  0  0  0  0  0  0  0  0
    6.9904   -0.8161    0.1970 H   0  0  0  0  0  0  0  0  0  0  0  0
    7.6013   -2.8959    4.3583 H   0  0  0  0  0  0  0  0  0  0  0  0
    4.4593   -2.4119    3.1755 H   0  0  0  0  0  0  0  0  0  0  0  0
    2.4792   -1.6463    1.9166 H   0  0  0  0  0  0  0  0  0  0  0  0
    1.2676   -0.0209    1.3637 H   0  0  0  0  0  0  0  0  0  0  0  0
   -0.8451    1.1481    1.4014 H   0  0  0  0  0  0  0  0  0  0  0  0
   -1.5752   -1.3644    0.1288 H   0  0  0  0  0  0  0  0  0  0  0  0
   -3.4498   -2.5429    1.1034 H   0  0  0  0  0  0  0  0  0  0  0  0
   -5.3939   -2.5609    2.6779 H   0  0  0  0  0  0  0  0  0  0  0  0
   -4.6599    1.5288    3.5751 H   0  0  0  0  0  0  0  0  0  0  0  0
   -2.7868    1.5202    2.0684 H   0  0  0  0  0  0  0  0  0  0  0  0
   -2.1035    2.7237    0.2170 H   0  0  0  0  0  0  0  0  0  0  0  0
   -3.1108    1.3173   -0.2794 H   0  0  0  0  0  0  0  0  0  0  0  0
   -1.0101    2.8950   -1.6899 H   0  0  0  0  0  0  0  0  0  0  0  0
   -2.6162    3.3089   -3.2043 H   0  0  0  0  0  0  0  0  0  0  0  0
   -3.7645    1.9387   -2.6766 H   0  0  0  0  0  0  0  0  0  0  0  0
   -3.3745    3.3667   -1.6239 H   0  0  0  0  0  0  0  0  0  0  0  0
  1  2  1  0
  2  3  2  0
  2  4  1  0
  4  5  1  0
  5  6  2  0
  6  7  1  0
  7  8  2  0
  8  9  1  0
  9 10  2  0
 10 11  1  0
 11 12  2  0
 12 13  1  0
 13 14  2  0
 13 15  1  0
 12 16  1  0
 16 17  2  0
  8 18  1  0
 18 19  2  0
 19 20  1  0
 20 21  1  0
 21 22  1  0
 22 23  2  0
 23 24  1  0
 24 25  2  0
 25 26  1  0
 25 27  1  0
 27 28  2  0
 20 29  1  0
 29 30  1  0
 30 31  1  0
 30  4  1  0
 19  5  1  0
 28 22  1  0
 17  9  1  0
  1 32  1  0
  1 33  1  0
  1 34  1  0
  6 35  1  0
  7 36  1  0
 10 37  1  0
 11 38  1  0
 15 39  1  0
 16 40  1  0
 17 41  1  0
 18 42  1  0
 20 43  1  1
 21 44  1  0
 23 45  1  0
 24 46  1  0
 27 47  1  0
 28 48  1  0
 29 49  1  0
 29 50  1  0
 30 51  1  1
 31 52  1  0
 31 53  1  0
 31 54  1  0
M  END
$$$$
