
     RDKit          3D

 50 52  0  0  0  0  0  0  0  0999 V2000
   -7.8607   -0.6810   -1.6223 N   0  0  0  0  0  0  0  0  0  0  0  0
   -7.1944    0.3680   -1.7174 C   0  0  0  0  0  0  0  0  0  0  0  0
   -7.8290    1.5498   -2.2795 N   0  0  0  0  0  0  0  0  0  0  0  0
   -5.8393    0.4816   -1.3051 N   0  0  0  0  0  0  0  0  0  0  0  0
   -5.1505   -0.6066   -0.7497 C   0  0  0  0  0  0  0  0  0  0  0  0
   -5.6917   -1.7225   -0.5907 O   0  0  0  0  0  0  0  0  0  0  0  0
   -3.7646   -0.4828   -0.3308 C   0  0  0  0  0  0  0  0  0  0  0  0
   -3.0918    0.6998   -0.4901 C   0  0  0  0  0  0  0  0  0  0  0  0
   -1.7641    0.7498   -0.0660 C   0  0  0  0  0  0  0  0  0  0  0  0
   -1.1042   -0.3132    0.4966 C   0  0  0  0  0  0  0  0  0  0  0  0
    0.3095   -0.2438    0.9241 C   0  0  0  0  0  0  0  0  0  0  0  0
    1.1947   -0.3322   -0.3036 C   0  0  0  0  0  0  0  0  0  0  0  0
    2.6362   -0.2771    0.2267 C   0  0  0  0  0  0  0  0  0  0  0  0
    2.8306    1.0864    0.6433 N   0  0  0  0  0  0  0  0  0  0  0  0
    4.1001    1.7071    0.5475 C   0  0  0  0  0  0  0  0  0  0  0  0
    4.2935    2.8922    0.9041 O   0  0  0  0  0  0  0  0  0  0  0  0
    5.2286    0.9456    0.0157 C   0  0  0  0  0  0  0  0  0  0  0  0
    5.5878   -0.2834    0.5223 C   0  0  0  0  0  0  0  0  0  0  0  0
    6.6587   -0.9675   -0.0093 C   0  0  0  0  0  0  0  0  0  0  0  0
    7.3905   -0.4435   -1.0523 C   0  0  0  0  0  0  0  0  0  0  0  0
    7.0040    0.7897   -1.5365 C   0  0  0  0  0  0  0  0  0  0  0  0
    5.9556    1.4428   -1.0045 N   0  0  0  0  0  0  0  0  0  0  0  0
    1.7320    1.8348    1.1612 C   0  0  0  0  0  0  0  0  0  0  0  0
    0.6205    0.9886    1.7055 C   0  0  0  0  0  0  0  0  0  0  0  0
   -1.7799   -1.5084    0.6599 C   0  0  0  0  0  0  0  0  0  0  0  0
   -1.1676   -2.7030    1.2695 C   0  0  0  0  0  0  0  0  0  0  0  0
   -2.1227   -3.7152    1.2805 F   0  0  0  0  0  0  0  0  0  0  0  0
   -0.8954   -2.4944    2.6304 F   0  0  0  0  0  0  0  0  0  0  0  0
   -0.0936   -3.2153    0.6171 F   0  0  0  0  0  0  0  0  0  0  0  0
   -3.0945   -1.5696    0.2433 C   0  0  0  0  0  0  0  0  0  0  0  0
   -7.7634   -1.6162   -1.3107 H   0  0  0  0  0  0  0  0  0  0  0  0
   -8.2856    1.4402   -3.1857 H   0  0  0  0  0  0  0  0  0  0  0  0
   -7.8206    2.4598   -1.7880 H   0  0  0  0  0  0  0  0  0  0  0  0
   -5.3931    1.4327   -1.4446 H   0  0  0  0  0  0  0  0  0  0  0  0
   -3.5252    1.6058   -0.9275 H   0  0  0  0  0  0  0  0  0  0  0  0
   -1.2064    1.6771   -0.1808 H   0  0  0  0  0  0  0  0  0  0  0  0
    0.5924   -1.1554    1.5305 H   0  0  0  0  0  0  0  0  0  0  0  0
    1.0113    0.5135   -1.0008 H   0  0  0  0  0  0  0  0  0  0  0  0
    1.0896   -1.3131   -0.7970 H   0  0  0  0  0  0  0  0  0  0  0  0
    2.6385   -0.9083    1.1418 H   0  0  0  0  0  0  0  0  0  0  0  0
    3.3624   -0.5901   -0.5285 H   0  0  0  0  0  0  0  0  0  0  0  0
    5.0422   -0.7266    1.3361 H   0  0  0  0  0  0  0  0  0  0  0  0
    6.9455   -1.9278    0.3802 H   0  0  0  0  0  0  0  0  0  0  0  0
    8.2421   -0.9599   -1.4936 H   0  0  0  0  0  0  0  0  0  0  0  0
    7.5662    1.2279   -2.3616 H   0  0  0  0  0  0  0  0  0  0  0  0
    2.1109    2.4624    2.0054 H   0  0  0  0  0  0  0  0  0  0  0  0
    1.3699    2.5691    0.3971 H   0  0  0  0  0  0  0  0  0  0  0  0
    0.8943    0.7110    2.7426 H   0  0  0  0  0  0  0  0  0  0  0  0
   -0.3091    1.6289    1.6897 H   0  0  0  0  0  0  0  0  0  0  0  0
   -3.6602   -2.5075    0.3589 H   0  0  0  0  0  0  0  0  0  0  0  0
  1  2  2  3
  2  3  1  0
  2  4  1  0
  4  5  1  0
  5  6  2  0
  5  7  1  0
  7  8  2  0
  8  9  1  0
  9 10  2  0
 10 11  1  0
 11 12  1  0
 12 13  1  0
 13 14  1  0
 14 15  1  0
 15 16  2  0
 15 17  1  0
 17 18  2  0
 18 19  1  0
 19 20  2  0
 20 21  1  0
 21 22  2  0
 14 23  1  0
 23 24  1  0
 10 25  1  0
 25 26  1  0
 26 27  1  0
 26 28  1  0
 26 29  1  0
 25 30  2  0
 30  7  1  0
 24 11  1  0
 22 17  1  0
  1 31  1  0
  3 32  1  0
  3 33  1  0
  4 34  1  0
  8 35  1  0
  9 36  1  0
 11 37  1  0
 12 38  1  0
 12 39  1  0
 13 40  1  0
 13 41  1  0
 18 42  1  0
 19 43  1  0
 20 44  1  0
 21 45  1  0
 23 46  1  0
 23 47  1  0
 24 48  1  0
 24 49  1  0
 30 50  1  0
M  END
$$$$
