@<TRIPOS>MOLECULE
*****
 50 52 0 0 0
SMALL
GASTEIGER

@<TRIPOS>ATOM
      1 N          -7.8607   -0.6810   -1.6223 N.pl3   1  UNL1       -0.1313
      2 C          -7.1944    0.3680   -1.7174 C.2     1  UNL1        0.3751
      3 N          -7.8290    1.5498   -2.2795 N.pl3   1  UNL1       -0.2906
      4 N          -5.8393    0.4816   -1.3051 N.am    1  UNL1       -0.1709
      5 C          -5.1505   -0.6066   -0.7497 C.2     1  UNL1        0.3066
      6 O          -5.6917   -1.7225   -0.5907 O.2     1  UNL1       -0.2516
      7 C          -3.7646   -0.4828   -0.3308 C.ar    1  UNL1        0.0536
      8 C          -3.0918    0.6998   -0.4901 C.ar    1  UNL1       -0.0479
      9 C          -1.7641    0.7498   -0.0660 C.ar    1  UNL1       -0.0570
     10 C          -1.1042   -0.3132    0.4966 C.ar    1  UNL1       -0.0325
     11 C           0.3095   -0.2438    0.9241 C.3     1  UNL1       -0.0125
     12 C           1.1947   -0.3322   -0.3036 C.3     1  UNL1       -0.0302
     13 C           2.6362   -0.2771    0.2267 C.3     1  UNL1        0.0156
     14 N           2.8306    1.0864    0.6433 N.am    1  UNL1       -0.2962
     15 C           4.1001    1.7071    0.5475 C.2     1  UNL1        0.2649
     16 O           4.2935    2.8922    0.9041 O.2     1  UNL1       -0.2683
     17 C           5.2286    0.9456    0.0157 C.ar    1  UNL1        0.1255
     18 C           5.5878   -0.2834    0.5223 C.ar    1  UNL1       -0.0312
     19 C           6.6587   -0.9675   -0.0093 C.ar    1  UNL1       -0.0582
     20 C           7.3905   -0.4435   -1.0523 C.ar    1  UNL1       -0.0436
     21 C           7.0040    0.7897   -1.5365 C.ar    1  UNL1        0.0284
     22 N           5.9556    1.4428   -1.0045 N.ar    1  UNL1       -0.2504
     23 C           1.7320    1.8348    1.1612 C.3     1  UNL1        0.0156
     24 C           0.6205    0.9886    1.7055 C.3     1  UNL1       -0.0302
     25 C          -1.7799   -1.5084    0.6599 C.ar    1  UNL1        0.0590
     26 C          -1.1676   -2.7030    1.2695 C.3     1  UNL1        0.4177
     27 F          -2.1227   -3.7152    1.2805 F       1  UNL1       -0.1659
     28 F          -0.8954   -2.4944    2.6304 F       1  UNL1       -0.1659
     29 F          -0.0936   -3.2153    0.6171 F       1  UNL1       -0.1659
     30 C          -3.0945   -1.5696    0.2433 C.ar    1  UNL1       -0.0363
     31 H          -7.7634   -1.6162   -1.3107 H       1  UNL1        0.3060
     32 H          -8.2856    1.4402   -3.1857 H       1  UNL1        0.2545
     33 H          -7.8206    2.4598   -1.7880 H       1  UNL1        0.2545
     34 H          -5.3931    1.4327   -1.4446 H       1  UNL1        0.2545
     35 H          -3.5252    1.6058   -0.9275 H       1  UNL1        0.0626
     36 H          -1.2064    1.6771   -0.1808 H       1  UNL1        0.0621
     37 H           0.5924   -1.1554    1.5305 H       1  UNL1        0.0350
     38 H           1.0113    0.5135   -1.0008 H       1  UNL1        0.0286
     39 H           1.0896   -1.3131   -0.7970 H       1  UNL1        0.0286
     40 H           2.6385   -0.9083    1.1418 H       1  UNL1        0.0465
     41 H           3.3624   -0.5901   -0.5285 H       1  UNL1        0.0465
     42 H           5.0422   -0.7266    1.3361 H       1  UNL1        0.0640
     43 H           6.9455   -1.9278    0.3802 H       1  UNL1        0.0619
     44 H           8.2421   -0.9599   -1.4936 H       1  UNL1        0.0633
     45 H           7.5662    1.2279   -2.3616 H       1  UNL1        0.0830
     46 H           2.1109    2.4624    2.0054 H       1  UNL1        0.0465
     47 H           1.3699    2.5691    0.3971 H       1  UNL1        0.0465
     48 H           0.8943    0.7110    2.7426 H       1  UNL1        0.0286
     49 H          -0.3091    1.6289    1.6897 H       1  UNL1        0.0286
     50 H          -3.6602   -2.5075    0.3589 H       1  UNL1        0.0631
@<TRIPOS>BOND
     1     1     2    2
     2     2     3    1
     3     2     4    1
     4     4     5   am
     5     5     6    2
     6     5     7    1
     7     7     8   ar
     8     8     9   ar
     9     9    10   ar
    10    10    11    1
    11    11    12    1
    12    12    13    1
    13    13    14    1
    14    14    15   am
    15    15    16    2
    16    15    17    1
    17    17    18   ar
    18    18    19   ar
    19    19    20   ar
    20    20    21   ar
    21    21    22   ar
    22    14    23    1
    23    23    24    1
    24    10    25   ar
    25    25    26    1
    26    26    27    1
    27    26    28    1
    28    26    29    1
    29    25    30   ar
    30    30     7   ar
    31    24    11    1
    32    22    17   ar
    33     1    31    1
    34     3    32    1
    35     3    33    1
    36     4    34    1
    37     8    35    1
    38     9    36    1
    39    11    37    1
    40    12    38    1
    41    12    39    1
    42    13    40    1
    43    13    41    1
    44    18    42    1
    45    19    43    1
    46    20    44    1
    47    21    45    1
    48    23    46    1
    49    23    47    1
    50    24    48    1
    51    24    49    1
    52    30    50    1
