@<TRIPOS>MOLECULE
*****
 60 65 0 0 0
SMALL
GASTEIGER

@<TRIPOS>ATOM
      1 C          -5.2648    3.4517    1.6025 C.3     1  UNL1       -0.0200
      2 C          -5.8406    2.6795    0.4767 C.ar    1  UNL1        0.0674
      3 N          -6.9898    2.9354   -0.1739 N.ar    1  UNL1       -0.1780
      4 N          -7.1827    2.0340   -1.1233 N.ar    1  UNL1       -0.2767
      5 C          -6.1396    1.1615   -1.1024 C.ar    1  UNL1        0.0660
      6 C          -5.8190    0.0453   -1.8510 C.ar    1  UNL1       -0.0357
      7 C          -4.6578   -0.6309   -1.5652 C.ar    1  UNL1       -0.0519
      8 C          -3.7995   -0.2255   -0.5484 C.ar    1  UNL1       -0.0150
      9 C          -2.5972   -1.0056   -0.3258 C.ar    1  UNL1        0.0117
     10 C          -1.3318   -0.4895   -0.4845 C.ar    1  UNL1       -0.0087
     11 C          -0.2282   -1.2883   -0.2589 C.ar    1  UNL1        0.1392
     12 O           1.0122   -0.7063   -0.4361 O.3     1  UNL1       -0.4889
     13 C           2.2395   -1.3824   -0.2480 C.3     1  UNL1        0.1050
     14 C           3.3309   -0.3679   -0.5445 C.3     1  UNL1        0.0435
     15 N           3.1626    0.7198    0.3873 N.3     1  UNL1       -0.3242
     16 C           4.7005   -0.9627   -0.3886 C.3     1  UNL1       -0.0073
     17 C           5.8139   -0.0540   -0.6485 C.ar    1  UNL1       -0.0208
     18 C           6.4826   -0.0154   -1.8786 C.ar    1  UNL1        0.0060
     19 N           7.4293    0.9307   -1.8296 N.ar    1  UNL1       -0.3604
     20 C           7.3937    1.5033   -0.6089 C.ar    1  UNL1        0.0467
     21 C           8.1532    2.5241   -0.0260 C.ar    1  UNL1       -0.0378
     22 C           7.9205    2.9321    1.2699 C.ar    1  UNL1       -0.0598
     23 C           6.9185    2.3074    1.9793 C.ar    1  UNL1       -0.0611
     24 C           6.1474    1.2959    1.4372 C.ar    1  UNL1       -0.0523
     25 C           6.4010    0.9069    0.1356 C.ar    1  UNL1        0.0029
     26 C          -0.4198   -2.5861    0.1205 C.ar    1  UNL1        0.0699
     27 N          -1.6448   -3.0709    0.2698 N.ar    1  UNL1       -0.2506
     28 C          -2.7484   -2.3223    0.0590 C.ar    1  UNL1        0.0819
     29 C          -4.0584   -2.9118    0.2444 C.ar    1  UNL1        0.0386
     30 C          -4.6357   -3.9630   -0.4286 C.ar    1  UNL1       -0.0147
     31 C          -5.8950   -4.1215    0.1412 C.ar    1  UNL1        0.0923
     32 O          -6.0523   -3.2387    1.0744 O.2     1  UNL1       -0.4704
     33 C          -4.9818   -2.4938    1.1718 C.ar    1  UNL1        0.1008
     34 C          -4.1279    0.8842    0.1884 C.ar    1  UNL1       -0.0430
     35 C          -5.2975    1.5582   -0.1057 C.ar    1  UNL1        0.0230
     36 H          -5.2564    4.5150    1.3040 H       1  UNL1        0.0293
     37 H          -5.9300    3.3513    2.4933 H       1  UNL1        0.0293
     38 H          -4.2416    3.0725    1.8182 H       1  UNL1        0.0293
     39 H          -7.9641    1.9357   -1.8079 H       1  UNL1        0.1889
     40 H          -6.4609   -0.2950   -2.6454 H       1  UNL1        0.0639
     41 H          -4.4011   -1.5058   -2.1481 H       1  UNL1        0.0624
     42 H          -1.2543    0.5446   -0.7870 H       1  UNL1        0.0661
     43 H           2.3411   -1.7562    0.8001 H       1  UNL1        0.0712
     44 H           2.2618   -2.2319   -0.9522 H       1  UNL1        0.0712
     45 H           3.1398   -0.0420   -1.6007 H       1  UNL1        0.0495
     46 H           2.6657    1.5359    0.0035 H       1  UNL1        0.1186
     47 H           2.8361    0.4149    1.3204 H       1  UNL1        0.1186
     48 H           4.8500   -1.4096    0.6206 H       1  UNL1        0.0330
     49 H           4.7570   -1.8176   -1.0937 H       1  UNL1        0.0330
     50 H           6.3056   -0.6242   -2.7541 H       1  UNL1        0.0810
     51 H           8.1098    1.2220   -2.5758 H       1  UNL1        0.1653
     52 H           8.9379    2.9845   -0.6367 H       1  UNL1        0.0638
     53 H           8.5254    3.7293    1.7021 H       1  UNL1        0.0618
     54 H           6.7295    2.6230    3.0010 H       1  UNL1        0.0618
     55 H           5.3796    0.8032    1.9786 H       1  UNL1        0.0624
     56 H           0.4584   -3.2003    0.2936 H       1  UNL1        0.0867
     57 H          -4.1967   -4.5446   -1.2346 H       1  UNL1        0.0655
     58 H          -6.6242   -4.8726   -0.1577 H       1  UNL1        0.1029
     59 H          -4.8826   -1.6877    1.8841 H       1  UNL1        0.1036
     60 H          -3.4789    1.2223    0.9860 H       1  UNL1        0.0631
@<TRIPOS>BOND
     1     1     2    1
     2     2     3   ar
     3     3     4   ar
     4     4     5   ar
     5     5     6   ar
     6     6     7   ar
     7     7     8   ar
     8     8     9    1
     9     9    10   ar
    10    10    11   ar
    11    11    12    1
    12    12    13    1
    13    13    14    1
    14    14    15    1
    15    14    16    1
    16    16    17    1
    17    17    18   ar
    18    18    19   ar
    19    19    20   ar
    20    20    21   ar
    21    21    22   ar
    22    22    23   ar
    23    23    24   ar
    24    24    25   ar
    25    11    26   ar
    26    26    27   ar
    27    27    28   ar
    28    28    29    1
    29    29    30   ar
    30    30    31   ar
    31    31    32   ar
    32    32    33   ar
    33     8    34   ar
    34    34    35   ar
    35    35     2   ar
    36    35     5   ar
    37    28     9   ar
    38    33    29   ar
    39    25    17   ar
    40    25    20   ar
    41     1    36    1
    42     1    37    1
    43     1    38    1
    44     4    39    1
    45     6    40    1
    46     7    41    1
    47    10    42    1
    48    13    43    1
    49    13    44    1
    50    14    45    1
    51    15    46    1
    52    15    47    1
    53    16    48    1
    54    16    49    1
    55    18    50    1
    56    19    51    1
    57    21    52    1
    58    22    53    1
    59    23    54    1
    60    24    55    1
    61    26    56    1
    62    30    57    1
    63    31    58    1
    64    33    59    1
    65    34    60    1
