
     RDKit          3D

 55 59  0  0  0  0  0  0  0  0999 V2000
   -3.2325   -3.1603   -0.5343 C   0  0  0  0  0  0  0  0  0  0  0  0
   -2.2551   -2.1208   -0.7658 O   0  0  0  0  0  0  0  0  0  0  0  0
   -2.0561   -1.1857    0.2244 C   0  0  0  0  0  0  0  0  0  0  0  0
   -2.6475   -1.1096    1.4416 C   0  0  0  0  0  0  0  0  0  0  0  0
   -2.3180   -0.0765    2.3459 C   0  0  0  0  0  0  0  0  0  0  0  0
   -3.0083    0.0819    3.6064 C   0  0  0  0  0  0  0  0  0  0  0  0
   -3.1126   -0.8259    4.5972 C   0  0  0  0  0  0  0  0  0  0  0  0
   -3.8457   -0.5794    5.7822 C   0  0  0  0  0  0  0  0  0  0  0  0
   -4.4598    0.6531    5.8812 C   0  0  0  0  0  0  0  0  0  0  0  0
   -4.3629    1.5616    4.9026 C   0  0  0  0  0  0  0  0  0  0  0  0
   -5.0233    2.9102    5.0387 C   0  0  0  0  0  0  0  0  0  0  0  0
   -5.6865    3.2395    3.8967 F   0  0  0  0  0  0  0  0  0  0  0  0
   -5.8256    2.8592    6.1479 F   0  0  0  0  0  0  0  0  0  0  0  0
   -4.0493    3.8934    5.2646 F   0  0  0  0  0  0  0  0  0  0  0  0
   -3.6529    1.3215    3.7570 C   0  0  0  0  0  0  0  0  0  0  0  0
   -1.3777    0.8255    1.9269 C   0  0  0  0  0  0  0  0  0  0  0  0
   -1.0553    1.8619    2.7793 F   0  0  0  0  0  0  0  0  0  0  0  0
   -0.7508    0.7917    0.7089 C   0  0  0  0  0  0  0  0  0  0  0  0
   -1.0920   -0.2081   -0.1393 C   0  0  0  0  0  0  0  0  0  0  0  0
   -0.6053   -0.2281   -1.5049 C   0  0  0  0  0  0  0  0  0  0  0  0
   -1.5269   -0.0358   -2.5086 N   0  0  0  0  0  0  0  0  0  0  0  0
   -1.2231   -0.0992   -3.7893 C   0  0  0  0  0  0  0  0  0  0  0  0
    0.0724   -0.3709   -4.1633 C   0  0  0  0  0  0  0  0  0  0  0  0
    1.0625   -0.5776   -3.2116 C   0  0  0  0  0  0  0  0  0  0  0  0
    2.3629   -0.8678   -3.5490 C   0  0  0  0  0  0  0  0  0  0  0  0
    3.3464   -1.0869   -2.5844 C   0  0  0  0  0  0  0  0  0  0  0  0
    4.9621   -1.5646   -3.0097 S   0  0  0  0  0  6  0  0  0  0  0  0
    5.7036   -1.8734   -1.7099 O   0  0  0  0  0  0  0  0  0  0  0  0
    4.8533   -2.8555   -3.8144 O   0  0  0  0  0  0  0  0  0  0  0  0
    5.8265   -0.3506   -3.8468 N   0  0  0  0  0  0  0  0  0  0  0  0
    6.1542    0.9173   -3.3529 C   0  0  0  0  0  0  0  0  0  0  0  0
    6.8112    1.9518   -3.9803 C   0  0  0  0  0  0  0  0  0  0  0  0
    6.8720    3.0022   -3.0595 C   0  0  0  0  0  0  0  0  0  0  0  0
    6.2890    2.6022   -1.9708 O   0  0  0  0  0  0  0  0  0  0  0  0
    5.8538    1.3756   -2.1103 N   0  0  0  0  0  0  0  0  0  0  0  0
    2.9442   -0.9928   -1.2738 C   0  0  0  0  0  0  0  0  0  0  0  0
    1.6421   -0.7039   -0.9385 C   0  0  0  0  0  0  0  0  0  0  0  0
    0.6649   -0.4933   -1.8593 C   0  0  0  0  0  0  0  0  0  0  0  0
   -2.9031   -3.7572    0.3480 H   0  0  0  0  0  0  0  0  0  0  0  0
   -4.2131   -2.6735   -0.4123 H   0  0  0  0  0  0  0  0  0  0  0  0
   -3.3123   -3.8546   -1.3958 H   0  0  0  0  0  0  0  0  0  0  0  0
   -3.3783   -1.8560    1.7211 H   0  0  0  0  0  0  0  0  0  0  0  0
   -2.6229   -1.7801    4.5145 H   0  0  0  0  0  0  0  0  0  0  0  0
   -3.9170   -1.3058    6.5543 H   0  0  0  0  0  0  0  0  0  0  0  0
   -5.0506    0.8971    6.7932 H   0  0  0  0  0  0  0  0  0  0  0  0
   -3.5932    2.0622    2.9918 H   0  0  0  0  0  0  0  0  0  0  0  0
   -0.0141    1.5499    0.4531 H   0  0  0  0  0  0  0  0  0  0  0  0
   -1.9998    0.0734   -4.5710 H   0  0  0  0  0  0  0  0  0  0  0  0
    0.3193   -0.4217   -5.2081 H   0  0  0  0  0  0  0  0  0  0  0  0
    2.6304   -0.9340   -4.5788 H   0  0  0  0  0  0  0  0  0  0  0  0
    6.1507   -0.5634   -4.8398 H   0  0  0  0  0  0  0  0  0  0  0  0
    7.1880    1.9141   -4.9854 H   0  0  0  0  0  0  0  0  0  0  0  0
    7.3379    3.9605   -3.2762 H   0  0  0  0  0  0  0  0  0  0  0  0
    3.7295   -1.1556   -0.5259 H   0  0  0  0  0  0  0  0  0  0  0  0
    1.3947   -0.6371    0.1188 H   0  0  0  0  0  0  0  0  0  0  0  0
  1  2  1  0
  2  3  1  0
  3  4  2  0
  4  5  1  0
  5  6  1  0
  6  7  2  0
  7  8  1  0
  8  9  2  0
  9 10  1  0
 10 11  1  0
 11 12  1  0
 11 13  1  0
 11 14  1  0
 10 15  2  0
  5 16  2  0
 16 17  1  0
 16 18  1  0
 18 19  2  0
 19 20  1  0
 20 21  2  0
 21 22  1  0
 22 23  2  0
 23 24  1  0
 24 25  2  0
 25 26  1  0
 26 27  1  0
 27 28  2  0
 27 29  2  0
 27 30  1  0
 30 31  1  0
 31 32  1  0
 32 33  2  0
 33 34  1  0
 34 35  1  0
 26 36  2  0
 36 37  1  0
 37 38  2  0
 19  3  1  0
 38 20  1  0
 15  6  1  0
 38 24  1  0
 35 31  2  0
  1 39  1  0
  1 40  1  0
  1 41  1  0
  4 42  1  0
  7 43  1  0
  8 44  1  0
  9 45  1  0
 15 46  1  0
 18 47  1  0
 22 48  1  0
 23 49  1  0
 25 50  1  0
 30 51  1  0
 32 52  1  0
 33 53  1  0
 36 54  1  0
 37 55  1  0
M  END
$$$$
