@<TRIPOS>MOLECULE
*****
 55 59 0 0 0
SMALL
GASTEIGER

@<TRIPOS>ATOM
      1 C          -3.2325   -3.1603   -0.5343 C.3     1  UNL1        0.0788
      2 O          -2.2551   -2.1208   -0.7658 O.3     1  UNL1       -0.4944
      3 C          -2.0561   -1.1857    0.2244 C.ar    1  UNL1        0.1300
      4 C          -2.6475   -1.1096    1.4416 C.ar    1  UNL1       -0.0088
      5 C          -2.3180   -0.0765    2.3459 C.ar    1  UNL1        0.0208
      6 C          -3.0083    0.0819    3.6064 C.ar    1  UNL1       -0.0145
      7 C          -3.1126   -0.8259    4.5972 C.ar    1  UNL1       -0.0539
      8 C          -3.8457   -0.5794    5.7822 C.ar    1  UNL1       -0.0607
      9 C          -4.4598    0.6531    5.8812 C.ar    1  UNL1       -0.0501
     10 C          -4.3629    1.5616    4.9026 C.ar    1  UNL1        0.0554
     11 C          -5.0233    2.9102    5.0387 C.3     1  UNL1        0.4174
     12 F          -5.6865    3.2395    3.8967 F       1  UNL1       -0.1659
     13 F          -5.8256    2.8592    6.1479 F       1  UNL1       -0.1659
     14 F          -4.0493    3.8934    5.2646 F       1  UNL1       -0.1659
     15 C          -3.6529    1.3215    3.7570 C.ar    1  UNL1       -0.0423
     16 C          -1.3777    0.8255    1.9269 C.ar    1  UNL1        0.1319
     17 F          -1.0553    1.8619    2.7793 F       1  UNL1       -0.2048
     18 C          -0.7508    0.7917    0.7089 C.ar    1  UNL1       -0.0131
     19 C          -1.0920   -0.2081   -0.1393 C.ar    1  UNL1        0.0453
     20 C          -0.6053   -0.2281   -1.5049 C.ar    1  UNL1        0.0822
     21 N          -1.5269   -0.0358   -2.5086 N.ar    1  UNL1       -0.2542
     22 C          -1.2231   -0.0992   -3.7893 C.ar    1  UNL1        0.0289
     23 C           0.0724   -0.3709   -4.1633 C.ar    1  UNL1       -0.0358
     24 C           1.0625   -0.5776   -3.2116 C.ar    1  UNL1       -0.0126
     25 C           2.3629   -0.8678   -3.5490 C.ar    1  UNL1       -0.0272
     26 C           3.3464   -1.0869   -2.5844 C.ar    1  UNL1        0.1091
     27 S           4.9621   -1.5646   -3.0097 S.O2    1  UNL1        0.0736
     28 O           5.7036   -1.8734   -1.7099 O.2     1  UNL1       -0.1499
     29 O           4.8533   -2.8555   -3.8144 O.2     1  UNL1       -0.1499
     30 N           5.8265   -0.3506   -3.8468 N.pl3   1  UNL1       -0.1968
     31 C           6.1542    0.9173   -3.3529 C.ar    1  UNL1        0.1805
     32 C           6.8112    1.9518   -3.9803 C.ar    1  UNL1        0.0203
     33 C           6.8720    3.0022   -3.0595 C.ar    1  UNL1        0.1261
     34 O           6.2890    2.6022   -1.9708 O.2     1  UNL1       -0.3611
     35 N           5.8538    1.3756   -2.1103 N.ar    1  UNL1       -0.0620
     36 C           2.9442   -0.9928   -1.2738 C.ar    1  UNL1       -0.0344
     37 C           1.6421   -0.7039   -0.9385 C.ar    1  UNL1       -0.0501
     38 C           0.6649   -0.4933   -1.8593 C.ar    1  UNL1        0.0083
     39 H          -2.9031   -3.7572    0.3480 H       1  UNL1        0.0660
     40 H          -4.2131   -2.6735   -0.4123 H       1  UNL1        0.0660
     41 H          -3.3123   -3.8546   -1.3958 H       1  UNL1        0.0660
     42 H          -3.3783   -1.8560    1.7211 H       1  UNL1        0.0661
     43 H          -2.6229   -1.7801    4.5145 H       1  UNL1        0.0624
     44 H          -3.9170   -1.3058    6.5543 H       1  UNL1        0.0618
     45 H          -5.0506    0.8971    6.7932 H       1  UNL1        0.0623
     46 H          -3.5932    2.0622    2.9918 H       1  UNL1        0.0629
     47 H          -0.0141    1.5499    0.4531 H       1  UNL1        0.0654
     48 H          -1.9998    0.0734   -4.5710 H       1  UNL1        0.0830
     49 H           0.3193   -0.4217   -5.2081 H       1  UNL1        0.0639
     50 H           2.6304   -0.9340   -4.5788 H       1  UNL1        0.0643
     51 H           6.1507   -0.5634   -4.8398 H       1  UNL1        0.1753
     52 H           7.1880    1.9141   -4.9854 H       1  UNL1        0.0685
     53 H           7.3379    3.9605   -3.2762 H       1  UNL1        0.1058
     54 H           3.7295   -1.1556   -0.5259 H       1  UNL1        0.0637
     55 H           1.3947   -0.6371    0.1188 H       1  UNL1        0.0625
@<TRIPOS>BOND
     1     1     2    1
     2     2     3    1
     3     3     4   ar
     4     4     5   ar
     5     5     6    1
     6     6     7   ar
     7     7     8   ar
     8     8     9   ar
     9     9    10   ar
    10    10    11    1
    11    11    12    1
    12    11    13    1
    13    11    14    1
    14    10    15   ar
    15     5    16   ar
    16    16    17    1
    17    16    18   ar
    18    18    19   ar
    19    19    20    1
    20    20    21   ar
    21    21    22   ar
    22    22    23   ar
    23    23    24   ar
    24    24    25   ar
    25    25    26   ar
    26    26    27    1
    27    27    28    2
    28    27    29    2
    29    27    30    1
    30    30    31    1
    31    31    32   ar
    32    32    33   ar
    33    33    34   ar
    34    34    35   ar
    35    26    36   ar
    36    36    37   ar
    37    37    38   ar
    38    19     3   ar
    39    38    20   ar
    40    15     6   ar
    41    38    24   ar
    42    35    31   ar
    43     1    39    1
    44     1    40    1
    45     1    41    1
    46     4    42    1
    47     7    43    1
    48     8    44    1
    49     9    45    1
    50    15    46    1
    51    18    47    1
    52    22    48    1
    53    23    49    1
    54    25    50    1
    55    30    51    1
    56    32    52    1
    57    33    53    1
    58    36    54    1
    59    37    55    1
