
     RDKit          3D

 52 56  0  0  0  0  0  0  0  0999 V2000
    7.2789   -1.0378   -2.2752 C   0  0  0  0  0  0  0  0  0  0  0  0
    6.5335   -0.7338   -1.0238 C   0  0  0  0  0  0  0  0  0  0  0  0
    6.7269   -1.5474    0.0860 C   0  0  0  0  0  0  0  0  0  0  0  0
    6.0416   -1.2734    1.2451 C   0  0  0  0  0  0  0  0  0  0  0  0
    5.1951   -0.1991    1.2398 C   0  0  0  0  0  0  0  0  0  0  0  0
    5.0164    0.5986    0.1235 C   0  0  0  0  0  0  0  0  0  0  0  0
    4.0594    1.7649    0.1578 C   0  0  0  0  0  0  0  0  0  0  0  0
    2.7121    1.2986   -0.3225 C   0  0  0  0  0  0  0  0  0  0  0  0
    2.7049    0.8792   -1.5112 O   0  0  0  0  0  0  0  0  0  0  0  0
    1.5680    1.3329    0.4970 N   0  0  0  0  0  0  0  0  0  0  0  0
    1.3319    1.7378    1.8524 C   0  0  0  0  0  0  0  0  0  0  0  0
    0.3788    0.6197    2.3040 C   0  0  0  0  0  0  0  0  0  0  0  0
   -0.4606    0.4429    1.0925 C   0  0  0  0  0  0  0  0  0  0  0  0
    0.2799    0.8850    0.0175 C   0  0  0  0  0  0  0  0  0  0  0  0
   -0.3080    0.8137   -1.2289 C   0  0  0  0  0  0  0  0  0  0  0  0
   -1.5862    0.3231   -1.4227 C   0  0  0  0  0  0  0  0  0  0  0  0
   -2.3281   -0.1210   -0.3394 C   0  0  0  0  0  0  0  0  0  0  0  0
   -3.6862   -0.6606   -0.5244 C   0  0  0  0  0  0  0  0  0  0  0  0
   -4.0409   -1.9667   -0.7947 C   0  0  0  0  0  0  0  0  0  0  0  0
   -5.3815   -2.0367   -0.8958 N   0  0  0  0  0  0  0  0  0  0  0  0
   -6.1862   -3.2358   -1.1740 C   0  0  0  0  0  0  0  0  0  0  0  0
   -5.9153   -0.8236   -0.7005 C   0  0  0  0  0  0  0  0  0  0  0  0
   -7.1531   -0.2834   -0.6788 N   0  0  0  0  0  0  0  0  0  0  0  0
   -7.3445    1.0281   -0.4419 C   0  0  0  0  0  0  0  0  0  0  0  0
   -6.3397    1.8981   -0.2110 N   0  0  0  0  0  0  0  0  0  0  0  0
   -5.0790    1.3992   -0.2238 C   0  0  0  0  0  0  0  0  0  0  0  0
   -3.9619    2.2375    0.0104 N   0  0  0  0  0  0  0  0  0  0  0  0
   -4.8602    0.0577   -0.4648 C   0  0  0  0  0  0  0  0  0  0  0  0
   -1.7369   -0.0475    0.9047 C   0  0  0  0  0  0  0  0  0  0  0  0
   -2.4626   -0.4837    1.9714 F   0  0  0  0  0  0  0  0  0  0  0  0
    5.6857    0.3270   -0.9990 N   0  0  0  0  0  0  0  0  0  0  0  0
    7.1869   -0.2238   -3.0016 H   0  0  0  0  0  0  0  0  0  0  0  0
    6.8286   -1.9791   -2.6839 H   0  0  0  0  0  0  0  0  0  0  0  0
    8.3623   -1.1817   -2.0689 H   0  0  0  0  0  0  0  0  0  0  0  0
    7.3976   -2.3950    0.0789 H   0  0  0  0  0  0  0  0  0  0  0  0
    6.2051   -1.9181    2.0964 H   0  0  0  0  0  0  0  0  0  0  0  0
    4.6371    0.0566    2.1264 H   0  0  0  0  0  0  0  0  0  0  0  0
    4.0327    2.2099    1.1484 H   0  0  0  0  0  0  0  0  0  0  0  0
    4.4410    2.4928   -0.5896 H   0  0  0  0  0  0  0  0  0  0  0  0
    2.2001    1.6827    2.5064 H   0  0  0  0  0  0  0  0  0  0  0  0
    0.8024    2.6991    1.8675 H   0  0  0  0  0  0  0  0  0  0  0  0
   -0.2003    0.9253    3.1910 H   0  0  0  0  0  0  0  0  0  0  0  0
    1.0175   -0.2755    2.4881 H   0  0  0  0  0  0  0  0  0  0  0  0
    0.2759    1.1653   -2.0943 H   0  0  0  0  0  0  0  0  0  0  0  0
   -2.0386    0.2711   -2.4087 H   0  0  0  0  0  0  0  0  0  0  0  0
   -3.3255   -2.7716   -0.8998 H   0  0  0  0  0  0  0  0  0  0  0  0
   -6.9067   -3.3816   -0.3482 H   0  0  0  0  0  0  0  0  0  0  0  0
   -6.6829   -3.0879   -2.1571 H   0  0  0  0  0  0  0  0  0  0  0  0
   -5.4981   -4.0738   -1.2926 H   0  0  0  0  0  0  0  0  0  0  0  0
   -8.3441    1.4655   -0.4239 H   0  0  0  0  0  0  0  0  0  0  0  0
   -3.5780    2.7935   -0.7821 H   0  0  0  0  0  0  0  0  0  0  0  0
   -3.4950    2.3326    0.9363 H   0  0  0  0  0  0  0  0  0  0  0  0
  1  2  1  0
  2  3  2  0
  3  4  1  0
  4  5  2  0
  5  6  1  0
  6  7  1  0
  7  8  1  0
  8  9  2  0
  8 10  1  0
 10 11  1  0
 11 12  1  0
 12 13  1  0
 13 14  2  0
 14 15  1  0
 15 16  2  0
 16 17  1  0
 17 18  1  0
 18 19  2  0
 19 20  1  0
 20 21  1  0
 20 22  1  0
 22 23  2  0
 23 24  1  0
 24 25  2  0
 25 26  1  0
 26 27  1  0
 26 28  2  0
 17 29  2  0
 29 30  1  0
  6 31  2  0
 31  2  1  0
 14 10  1  0
 28 18  1  0
 29 13  1  0
 28 22  1  0
  1 32  1  0
  1 33  1  0
  1 34  1  0
  3 35  1  0
  4 36  1  0
  5 37  1  0
  7 38  1  0
  7 39  1  0
 11 40  1  0
 11 41  1  0
 12 42  1  0
 12 43  1  0
 15 44  1  0
 16 45  1  0
 19 46  1  0
 21 47  1  0
 21 48  1  0
 21 49  1  0
 24 50  1  0
 27 51  1  0
 27 52  1  0
M  END
$$$$
