@<TRIPOS>MOLECULE
*****
 52 56 0 0 0
SMALL
GASTEIGER

@<TRIPOS>ATOM
      1 C           7.2789   -1.0378   -2.2752 C.3     1  UNL1       -0.0224
      2 C           6.5335   -0.7338   -1.0238 C.ar    1  UNL1        0.0385
      3 C           6.7269   -1.5474    0.0860 C.ar    1  UNL1       -0.0406
      4 C           6.0416   -1.2734    1.2451 C.ar    1  UNL1       -0.0584
      5 C           5.1951   -0.1991    1.2398 C.ar    1  UNL1       -0.0399
      6 C           5.0164    0.5986    0.1235 C.ar    1  UNL1        0.0503
      7 C           4.0594    1.7649    0.1578 C.3     1  UNL1        0.0668
      8 C           2.7121    1.2986   -0.3225 C.2     1  UNL1        0.2256
      9 O           2.7049    0.8792   -1.5112 O.2     1  UNL1       -0.2748
     10 N           1.5680    1.3329    0.4970 N.am    1  UNL1       -0.2704
     11 C           1.3319    1.7378    1.8524 C.3     1  UNL1        0.0239
     12 C           0.3788    0.6197    2.3040 C.3     1  UNL1       -0.0069
     13 C          -0.4606    0.4429    1.0925 C.ar    1  UNL1        0.0113
     14 C           0.2799    0.8850    0.0175 C.ar    1  UNL1        0.0422
     15 C          -0.3080    0.8137   -1.2289 C.ar    1  UNL1       -0.0393
     16 C          -1.5862    0.3231   -1.4227 C.ar    1  UNL1       -0.0494
     17 C          -2.3281   -0.1210   -0.3394 C.ar    1  UNL1        0.0199
     18 C          -3.6862   -0.6606   -0.5244 C.ar    1  UNL1        0.0150
     19 C          -4.0409   -1.9667   -0.7947 C.ar    1  UNL1        0.0147
     20 N          -5.3815   -2.0367   -0.8958 N.ar    1  UNL1       -0.3342
     21 C          -6.1862   -3.2358   -1.1740 C.3     1  UNL1        0.0132
     22 C          -5.9153   -0.8236   -0.7005 C.ar    1  UNL1        0.1461
     23 N          -7.1531   -0.2834   -0.6788 N.ar    1  UNL1       -0.2176
     24 C          -7.3445    1.0281   -0.4419 C.ar    1  UNL1        0.1204
     25 N          -6.3397    1.8981   -0.2110 N.ar    1  UNL1       -0.2204
     26 C          -5.0790    1.3992   -0.2238 C.ar    1  UNL1        0.1292
     27 N          -3.9619    2.2375    0.0104 N.pl3   1  UNL1       -0.3425
     28 C          -4.8602    0.0577   -0.4648 C.ar    1  UNL1        0.0661
     29 C          -1.7369   -0.0475    0.9047 C.ar    1  UNL1        0.1361
     30 F          -2.4626   -0.4837    1.9714 F       1  UNL1       -0.2045
     31 N           5.6857    0.3270   -0.9990 N.ar    1  UNL1       -0.2563
     32 H           7.1869   -0.2238   -3.0016 H       1  UNL1        0.0292
     33 H           6.8286   -1.9791   -2.6839 H       1  UNL1        0.0292
     34 H           8.3623   -1.1817   -2.0689 H       1  UNL1        0.0292
     35 H           7.3976   -2.3950    0.0789 H       1  UNL1        0.0635
     36 H           6.2051   -1.9181    2.0964 H       1  UNL1        0.0619
     37 H           4.6371    0.0566    2.1264 H       1  UNL1        0.0636
     38 H           4.0327    2.2099    1.1484 H       1  UNL1        0.0422
     39 H           4.4410    2.4928   -0.5896 H       1  UNL1        0.0422
     40 H           2.2001    1.6827    2.5064 H       1  UNL1        0.0472
     41 H           0.8024    2.6991    1.8675 H       1  UNL1        0.0472
     42 H          -0.2003    0.9253    3.1910 H       1  UNL1        0.0330
     43 H           1.0175   -0.2755    2.4881 H       1  UNL1        0.0330
     44 H           0.2759    1.1653   -2.0943 H       1  UNL1        0.0636
     45 H          -2.0386    0.2711   -2.4087 H       1  UNL1        0.0625
     46 H          -3.3255   -2.7716   -0.8998 H       1  UNL1        0.0816
     47 H          -6.9067   -3.3816   -0.3482 H       1  UNL1        0.0456
     48 H          -6.6829   -3.0879   -2.1571 H       1  UNL1        0.0456
     49 H          -5.4981   -4.0738   -1.2926 H       1  UNL1        0.0456
     50 H          -8.3441    1.4655   -0.4239 H       1  UNL1        0.1048
     51 H          -3.5780    2.7935   -0.7821 H       1  UNL1        0.1437
     52 H          -3.4950    2.3326    0.9363 H       1  UNL1        0.1437
@<TRIPOS>BOND
     1     1     2    1
     2     2     3   ar
     3     3     4   ar
     4     4     5   ar
     5     5     6   ar
     6     6     7    1
     7     7     8    1
     8     8     9    2
     9     8    10   am
    10    10    11    1
    11    11    12    1
    12    12    13    1
    13    13    14   ar
    14    14    15   ar
    15    15    16   ar
    16    16    17   ar
    17    17    18    1
    18    18    19   ar
    19    19    20   ar
    20    20    21    1
    21    20    22   ar
    22    22    23   ar
    23    23    24   ar
    24    24    25   ar
    25    25    26   ar
    26    26    27    1
    27    26    28   ar
    28    17    29   ar
    29    29    30    1
    30     6    31   ar
    31    31     2   ar
    32    14    10    1
    33    28    18   ar
    34    29    13   ar
    35    28    22   ar
    36     1    32    1
    37     1    33    1
    38     1    34    1
    39     3    35    1
    40     4    36    1
    41     5    37    1
    42     7    38    1
    43     7    39    1
    44    11    40    1
    45    11    41    1
    46    12    42    1
    47    12    43    1
    48    15    44    1
    49    16    45    1
    50    19    46    1
    51    21    47    1
    52    21    48    1
    53    21    49    1
    54    24    50    1
    55    27    51    1
    56    27    52    1
