@<TRIPOS>MOLECULE
*****
 59 62 0 0 0
SMALL
GASTEIGER

@<TRIPOS>ATOM
      1 O          -3.5549   -1.9308   -1.9600 O.2     1  UNL1       -0.2752
      2 C          -3.8390   -1.1609   -0.9851 C.2     1  UNL1        0.2223
      3 C          -5.0858   -0.4263   -1.2146 C.3     1  UNL1        0.0306
      4 C          -5.4861    0.2362    0.0788 C.3     1  UNL1       -0.0127
      5 C          -6.9795    0.3077    0.2249 C.3     1  UNL1       -0.0465
      6 C          -7.3539    1.5975   -0.4606 C.3     1  UNL1       -0.0525
      7 C          -6.1992    2.5269   -0.2593 C.3     1  UNL1       -0.0525
      8 C          -5.0023    1.6796    0.0222 C.3     1  UNL1       -0.0465
      9 C          -4.9586   -0.4553    1.3106 C.3     1  UNL1        0.0306
     10 C          -3.4630   -0.6031    1.2914 C.2     1  UNL1        0.2223
     11 O          -2.7231   -0.2505    2.2636 O.2     1  UNL1       -0.2752
     12 N          -2.9151   -1.1732    0.0929 N.am    1  UNL1       -0.2421
     13 C          -1.5889   -1.6655    0.0996 C.3     1  UNL1        0.0224
     14 C          -0.5252   -0.6777   -0.2865 C.3     1  UNL1       -0.0355
     15 C           0.7969   -1.4186   -0.1907 C.3     1  UNL1       -0.0388
     16 C           1.9850   -0.5513   -0.5666 C.3     1  UNL1       -0.0010
     17 N           3.1489   -1.3339   -0.4290 N.3     1  UNL1       -0.2994
     18 C           3.5635   -1.7204    0.8591 C.3     1  UNL1        0.0148
     19 C           4.8355   -1.0708    1.3406 C.3     1  UNL1        0.0277
     20 N           5.5643   -0.4957    0.2542 N.pl3   1  UNL1       -0.2972
     21 C           5.5280   -1.2604   -1.0050 C.3     1  UNL1        0.0277
     22 C           4.0912   -1.3701   -1.4741 C.3     1  UNL1        0.0148
     23 C           6.2894    0.7248    0.3150 C.ar    1  UNL1        0.2178
     24 N           6.3212    1.4540    1.4324 N.ar    1  UNL1       -0.2228
     25 C           7.0087    2.5934    1.4487 C.ar    1  UNL1        0.0326
     26 C           7.7111    3.0766    0.3422 C.ar    1  UNL1       -0.0253
     27 C           7.6379    2.2664   -0.7960 C.ar    1  UNL1        0.0326
     28 N           6.9526    1.1345   -0.8065 N.ar    1  UNL1       -0.2228
     29 H          -5.0072    0.3613   -1.9931 H       1  UNL1        0.0364
     30 H          -5.9186   -1.1033   -1.5282 H       1  UNL1        0.0364
     31 H          -7.2474    0.3537    1.3218 H       1  UNL1        0.0271
     32 H          -7.5074   -0.5601   -0.1904 H       1  UNL1        0.0271
     33 H          -8.3039    1.9664    0.0265 H       1  UNL1        0.0265
     34 H          -7.5505    1.3643   -1.5246 H       1  UNL1        0.0265
     35 H          -6.0930    3.1712   -1.1662 H       1  UNL1        0.0265
     36 H          -6.3556    3.1700    0.6544 H       1  UNL1        0.0265
     37 H          -4.2805    1.8115   -0.8112 H       1  UNL1        0.0271
     38 H          -4.4797    1.9577    0.9623 H       1  UNL1        0.0271
     39 H          -5.4518   -1.3963    1.5382 H       1  UNL1        0.0364
     40 H          -5.1793    0.2452    2.1678 H       1  UNL1        0.0364
     41 H          -1.3407   -2.0619    1.0950 H       1  UNL1        0.0469
     42 H          -1.5322   -2.5188   -0.6246 H       1  UNL1        0.0469
     43 H          -0.5918   -0.3298   -1.3237 H       1  UNL1        0.0281
     44 H          -0.5051    0.1268    0.4588 H       1  UNL1        0.0281
     45 H           0.9335   -1.8892    0.8006 H       1  UNL1        0.0278
     46 H           0.7732   -2.2828   -0.9107 H       1  UNL1        0.0278
     47 H           1.8441   -0.2181   -1.6304 H       1  UNL1        0.0427
     48 H           2.0171    0.3757    0.0279 H       1  UNL1        0.0427
     49 H           3.7182   -2.8311    0.9275 H       1  UNL1        0.0442
     50 H           2.7653   -1.4978    1.5963 H       1  UNL1        0.0442
     51 H           5.4716   -1.7758    1.9193 H       1  UNL1        0.0477
     52 H           4.5852   -0.2555    2.0464 H       1  UNL1        0.0477
     53 H           6.2035   -0.8179   -1.7430 H       1  UNL1        0.0477
     54 H           5.8685   -2.2835   -0.7318 H       1  UNL1        0.0477
     55 H           3.9747   -2.3272   -2.0627 H       1  UNL1        0.0442
     56 H           3.9083   -0.5330   -2.1783 H       1  UNL1        0.0442
     57 H           7.0979    3.2618    2.3075 H       1  UNL1        0.0831
     58 H           8.2887    3.9625    0.2372 H       1  UNL1        0.0648
     59 H           8.1353    2.5210   -1.7238 H       1  UNL1        0.0831
@<TRIPOS>BOND
     1     1     2    2
     2     2     3    1
     3     3     4    1
     4     4     5    1
     5     5     6    1
     6     6     7    1
     7     7     8    1
     8     4     9    1
     9     9    10    1
    10    10    11    2
    11    10    12   am
    12    12    13    1
    13    13    14    1
    14    14    15    1
    15    15    16    1
    16    16    17    1
    17    17    18    1
    18    18    19    1
    19    19    20    1
    20    20    21    1
    21    21    22    1
    22    20    23    1
    23    23    24   ar
    24    24    25   ar
    25    25    26   ar
    26    26    27   ar
    27    27    28   ar
    28    12     2   am
    29    22    17    1
    30    28    23   ar
    31     8     4    1
    32     3    29    1
    33     3    30    1
    34     5    31    1
    35     5    32    1
    36     6    33    1
    37     6    34    1
    38     7    35    1
    39     7    36    1
    40     8    37    1
    41     8    38    1
    42     9    39    1
    43     9    40    1
    44    13    41    1
    45    13    42    1
    46    14    43    1
    47    14    44    1
    48    15    45    1
    49    15    46    1
    50    16    47    1
    51    16    48    1
    52    18    49    1
    53    18    50    1
    54    19    51    1
    55    19    52    1
    56    21    53    1
    57    21    54    1
    58    22    55    1
    59    22    56    1
    60    25    57    1
    61    26    58    1
    62    27    59    1
