
     RDKit          3D

 49 51  0  0  0  0  0  0  0  0999 V2000
    2.0446   -0.6915    3.4647 C   0  0  0  0  0  0  0  0  0  0  0  0
    1.4774    0.2754    2.5096 C   0  0  0  0  0  0  0  0  0  0  0  0
    0.4554    0.9395    2.8073 O   0  0  0  0  0  0  0  0  0  0  0  0
    2.0865    0.4783    1.2099 C   0  0  0  0  0  0  0  0  0  0  0  0
    1.5243    1.3998    0.3149 C   0  0  0  0  0  0  0  0  0  0  0  0
    0.3668    2.1302    0.6945 N   0  0  0  0  0  0  0  0  0  0  0  0
   -0.9064    1.5375    0.4717 C   0  0  0  0  0  0  0  0  0  0  0  0
   -1.0293    0.2613   -0.0471 C   0  0  0  0  0  0  0  0  0  0  0  0
   -2.2640   -0.3304   -0.2670 C   0  0  0  0  0  0  0  0  0  0  0  0
   -3.4188    0.3597    0.0347 C   0  0  0  0  0  0  0  0  0  0  0  0
   -4.7097   -0.3224   -0.2185 C   0  0  0  0  0  0  0  0  0  0  0  0
   -5.1100    0.0036   -1.6494 C   0  0  0  0  0  0  0  0  0  0  0  0
   -5.7962    0.1728    0.7085 C   0  0  0  0  0  0  0  0  0  0  0  0
   -4.4952   -1.8072   -0.0296 C   0  0  0  0  0  0  0  0  0  0  0  0
   -3.3240    1.6268    0.5501 C   0  0  0  0  0  0  0  0  0  0  0  0
   -2.0797    2.1984    0.7616 C   0  0  0  0  0  0  0  0  0  0  0  0
    2.1265    1.5444   -0.8702 N   0  0  0  0  0  0  0  0  0  0  0  0
    3.2254    0.8605   -1.2366 C   0  0  0  0  0  0  0  0  0  0  0  0
    3.7633    1.1014   -2.5031 C   0  0  0  0  0  0  0  0  0  0  0  0
    3.0255    2.2626   -3.5836 Cl  0  0  0  0  0  0  0  0  0  0  0  0
    4.8878    0.3824   -2.8390 C   0  0  0  0  0  0  0  0  0  0  0  0
    5.4648   -0.5274   -1.9884 C   0  0  0  0  0  0  0  0  0  0  0  0
    6.6265   -1.2423   -2.3872 N   0  0  0  0  0  4  0  0  0  0  0  0
    7.1339   -1.0481   -3.5208 O   0  0  0  0  0  0  0  0  0  0  0  0
    7.2224   -2.1492   -1.5694 O   0  0  0  0  0  1  0  0  0  0  0  0
    4.9312   -0.7589   -0.7456 C   0  0  0  0  0  0  0  0  0  0  0  0
    3.7978   -0.0510   -0.3756 C   0  0  0  0  0  0  0  0  0  0  0  0
    3.2074   -0.2421    0.8791 C   0  0  0  0  0  0  0  0  0  0  0  0
    3.8287   -1.1704    1.6978 O   0  0  0  0  0  0  0  0  0  0  0  0
    1.4023   -0.7149    4.3811 H   0  0  0  0  0  0  0  0  0  0  0  0
    3.0892   -0.4610    3.7733 H   0  0  0  0  0  0  0  0  0  0  0  0
    2.0543   -1.7373    3.0726 H   0  0  0  0  0  0  0  0  0  0  0  0
    0.3897    3.0799    1.1289 H   0  0  0  0  0  0  0  0  0  0  0  0
   -0.1356   -0.3055   -0.2939 H   0  0  0  0  0  0  0  0  0  0  0  0
   -2.2762   -1.3357   -0.6767 H   0  0  0  0  0  0  0  0  0  0  0  0
   -4.5592   -0.6955   -2.3218 H   0  0  0  0  0  0  0  0  0  0  0  0
   -4.7471    1.0265   -1.8577 H   0  0  0  0  0  0  0  0  0  0  0  0
   -6.1929   -0.1257   -1.8171 H   0  0  0  0  0  0  0  0  0  0  0  0
   -6.0990    1.1971    0.4080 H   0  0  0  0  0  0  0  0  0  0  0  0
   -6.6573   -0.5133    0.6012 H   0  0  0  0  0  0  0  0  0  0  0  0
   -5.4181    0.2222    1.7458 H   0  0  0  0  0  0  0  0  0  0  0  0
   -5.4217   -2.2618    0.3795 H   0  0  0  0  0  0  0  0  0  0  0  0
   -3.6925   -2.0052    0.7357 H   0  0  0  0  0  0  0  0  0  0  0  0
   -4.1503   -2.3025   -0.9597 H   0  0  0  0  0  0  0  0  0  0  0  0
   -4.2334    2.1540    0.7804 H   0  0  0  0  0  0  0  0  0  0  0  0
   -2.0581    3.1994    1.1686 H   0  0  0  0  0  0  0  0  0  0  0  0
    5.3369    0.5491   -3.8298 H   0  0  0  0  0  0  0  0  0  0  0  0
    5.3474   -1.4572   -0.0516 H   0  0  0  0  0  0  0  0  0  0  0  0
    3.9588   -2.1220    1.3603 H   0  0  0  0  0  0  0  0  0  0  0  0
  1  2  1  0
  2  3  2  0
  2  4  1  0
  4  5  2  0
  5  6  1  0
  6  7  1  0
  7  8  2  0
  8  9  1  0
  9 10  2  0
 10 11  1  0
 11 12  1  0
 11 13  1  0
 11 14  1  0
 10 15  1  0
 15 16  2  0
  5 17  1  0
 17 18  2  0
 18 19  1  0
 19 20  1  0
 19 21  2  0
 21 22  1  0
 22 23  1  0
 23 24  2  0
 23 25  1  0
 22 26  2  0
 26 27  1  0
 27 28  2  0
 28 29  1  0
 28  4  1  0
 16  7  1  0
 27 18  1  0
  1 30  1  0
  1 31  1  0
  1 32  1  0
  6 33  1  0
  8 34  1  0
  9 35  1  0
 12 36  1  0
 12 37  1  0
 12 38  1  0
 13 39  1  0
 13 40  1  0
 13 41  1  0
 14 42  1  0
 14 43  1  0
 14 44  1  0
 15 45  1  0
 16 46  1  0
 21 47  1  0
 26 48  1  0
 29 49  1  0
M  CHG  2  23   1  25  -1
M  END
$$$$
