@<TRIPOS>MOLECULE
*****
 49 51 0 0 0
SMALL
GASTEIGER

@<TRIPOS>ATOM
      1 C           2.0446   -0.6915    3.4647 C.3     1  UNL1       -0.0012
      2 C           1.4774    0.2754    2.5096 C.2     1  UNL1        0.1669
      3 O           0.4554    0.9395    2.8073 O.2     1  UNL1       -0.2921
      4 C           2.0865    0.4783    1.2099 C.ar    1  UNL1        0.0990
      5 C           1.5243    1.3998    0.3149 C.ar    1  UNL1        0.1377
      6 N           0.3668    2.1302    0.6945 N.pl3   1  UNL1       -0.2988
      7 C          -0.9064    1.5375    0.4717 C.ar    1  UNL1        0.0324
      8 C          -1.0293    0.2613   -0.0471 C.ar    1  UNL1       -0.0402
      9 C          -2.2640   -0.3304   -0.2670 C.ar    1  UNL1       -0.0563
     10 C          -3.4188    0.3597    0.0347 C.ar    1  UNL1       -0.0419
     11 C          -4.7097   -0.3224   -0.2185 C.3     1  UNL1       -0.0127
     12 C          -5.1100    0.0036   -1.6494 C.3     1  UNL1       -0.0560
     13 C          -5.7962    0.1728    0.7085 C.3     1  UNL1       -0.0560
     14 C          -4.4952   -1.8072   -0.0296 C.3     1  UNL1       -0.0560
     15 C          -3.3240    1.6268    0.5501 C.ar    1  UNL1       -0.0563
     16 C          -2.0797    2.1984    0.7616 C.ar    1  UNL1       -0.0402
     17 N           2.1265    1.5444   -0.8702 N.ar    1  UNL1       -0.2295
     18 C           3.2254    0.8605   -1.2366 C.ar    1  UNL1        0.0953
     19 C           3.7633    1.1014   -2.5031 C.ar    1  UNL1        0.0734
     20 CL          3.0255    2.2626   -3.5836 Cl      1  UNL1       -0.0811
     21 C           4.8878    0.3824   -2.8390 C.ar    1  UNL1        0.0360
     22 C           5.4648   -0.5274   -1.9884 C.ar    1  UNL1        0.2753
     23 N           6.6265   -1.2423   -2.3872 N.pl3   1  UNL1        0.0797
     24 O           7.1339   -1.0481   -3.5208 O.2     1  UNL1        0.0414
     25 O           7.2224   -2.1492   -1.5694 O.co2   1  UNL1       -0.5760
     26 C           4.9312   -0.7589   -0.7456 C.ar    1  UNL1        0.0284
     27 C           3.7978   -0.0510   -0.3756 C.ar    1  UNL1        0.0505
     28 C           3.2074   -0.2421    0.8791 C.ar    1  UNL1        0.1400
     29 O           3.8287   -1.1704    1.6978 O.3     1  UNL1       -0.5053
     30 H           1.4023   -0.7149    4.3811 H       1  UNL1        0.0309
     31 H           3.0892   -0.4610    3.7733 H       1  UNL1        0.0309
     32 H           2.0543   -1.7373    3.0726 H       1  UNL1        0.0309
     33 H           0.3897    3.0799    1.1289 H       1  UNL1        0.1536
     34 H          -0.1356   -0.3055   -0.2939 H       1  UNL1        0.0636
     35 H          -2.2762   -1.3357   -0.6767 H       1  UNL1        0.0621
     36 H          -4.5592   -0.6955   -2.3218 H       1  UNL1        0.0238
     37 H          -4.7471    1.0265   -1.8577 H       1  UNL1        0.0238
     38 H          -6.1929   -0.1257   -1.8171 H       1  UNL1        0.0238
     39 H          -6.0990    1.1971    0.4080 H       1  UNL1        0.0238
     40 H          -6.6573   -0.5133    0.6012 H       1  UNL1        0.0238
     41 H          -5.4181    0.2222    1.7458 H       1  UNL1        0.0238
     42 H          -5.4217   -2.2618    0.3795 H       1  UNL1        0.0238
     43 H          -3.6925   -2.0052    0.7357 H       1  UNL1        0.0238
     44 H          -4.1503   -2.3025   -0.9597 H       1  UNL1        0.0238
     45 H          -4.2334    2.1540    0.7804 H       1  UNL1        0.0621
     46 H          -2.0581    3.1994    1.1686 H       1  UNL1        0.0636
     47 H           5.3369    0.5491   -3.8298 H       1  UNL1        0.0701
     48 H           5.3474   -1.4572   -0.0516 H       1  UNL1        0.0693
     49 H           3.9588   -2.1220    1.3603 H       1  UNL1        0.2922
@<TRIPOS>UNITY_ATOM_ATTR
23 1
charge 1
25 1
charge -1
@<TRIPOS>BOND
     1     1     2    1
     2     2     3    2
     3     2     4    1
     4     4     5   ar
     5     5     6    1
     6     6     7    1
     7     7     8   ar
     8     8     9   ar
     9     9    10   ar
    10    10    11    1
    11    11    12    1
    12    11    13    1
    13    11    14    1
    14    10    15   ar
    15    15    16   ar
    16     5    17   ar
    17    17    18   ar
    18    18    19   ar
    19    19    20    1
    20    19    21   ar
    21    21    22   ar
    22    22    23    1
    23    23    24    2
    24    23    25    1
    25    22    26   ar
    26    26    27   ar
    27    27    28   ar
    28    28    29    1
    29    28     4   ar
    30    16     7   ar
    31    27    18   ar
    32     1    30    1
    33     1    31    1
    34     1    32    1
    35     6    33    1
    36     8    34    1
    37     9    35    1
    38    12    36    1
    39    12    37    1
    40    12    38    1
    41    13    39    1
    42    13    40    1
    43    13    41    1
    44    14    42    1
    45    14    43    1
    46    14    44    1
    47    15    45    1
    48    16    46    1
    49    21    47    1
    50    26    48    1
    51    29    49    1
