@<TRIPOS>MOLECULE
*****
 51 51 0 0 0
SMALL
GASTEIGER

@<TRIPOS>ATOM
      1 C           6.1913   -0.0749   -1.2673 C.3     1  UNL1       -0.0653
      2 C           6.1091    0.5581    0.0680 C.3     1  UNL1       -0.0559
      3 C           5.1737   -0.0150    1.0656 C.3     1  UNL1       -0.0533
      4 C           3.7108    0.0160    0.7902 C.3     1  UNL1       -0.0531
      5 C           3.3406   -0.7106   -0.4400 C.3     1  UNL1       -0.0531
      6 C           1.8341   -0.7446   -0.7253 C.3     1  UNL1       -0.0530
      7 C           1.1421   -1.4257    0.3806 C.3     1  UNL1       -0.0519
      8 C          -0.3433   -1.5302    0.1231 C.3     1  UNL1       -0.0402
      9 C          -0.9430   -0.1845    0.0115 C.3     1  UNL1       -0.0006
     10 N          -2.3687   -0.1423   -0.2209 N.3     1  UNL1       -0.2923
     11 C          -3.0452   -0.5988    0.9480 C.3     1  UNL1        0.0279
     12 C          -4.5020   -0.9673    0.7189 C.3     1  UNL1        0.0962
     13 O          -4.5296   -2.2940    0.2954 O.3     1  UNL1       -0.3879
     14 C          -4.9729   -0.1290   -0.4699 C.3     1  UNL1        0.1095
     15 O          -6.3422   -0.0799   -0.4896 O.3     1  UNL1       -0.3866
     16 C          -4.3330    1.2147   -0.3025 C.3     1  UNL1        0.1011
     17 O          -4.9220    2.1835   -1.1270 O.3     1  UNL1       -0.3875
     18 C          -2.8632    1.1070   -0.6481 C.3     1  UNL1        0.0621
     19 C          -2.2054    2.3192   -0.0462 C.3     1  UNL1        0.0622
     20 O          -2.3315    2.3462    1.3414 O.3     1  UNL1       -0.3934
     21 H           7.3081   -0.1349   -1.5488 H       1  UNL1        0.0230
     22 H           5.8356   -1.1149   -1.2564 H       1  UNL1        0.0230
     23 H           5.7881    0.5133   -2.1156 H       1  UNL1        0.0230
     24 H           7.1413    0.4788    0.5481 H       1  UNL1        0.0263
     25 H           5.9637    1.6838   -0.0330 H       1  UNL1        0.0263
     26 H           5.4226   -1.0931    1.2976 H       1  UNL1        0.0265
     27 H           5.3208    0.4920    2.0763 H       1  UNL1        0.0265
     28 H           3.1965   -0.4950    1.6543 H       1  UNL1        0.0265
     29 H           3.3203    1.0774    0.7911 H       1  UNL1        0.0265
     30 H           3.7425   -0.1751   -1.3609 H       1  UNL1        0.0265
     31 H           3.6792   -1.7576   -0.3812 H       1  UNL1        0.0265
     32 H           1.7459   -1.4068   -1.6370 H       1  UNL1        0.0265
     33 H           1.4798    0.2485   -1.0090 H       1  UNL1        0.0265
     34 H           1.3259   -0.9825    1.3891 H       1  UNL1        0.0266
     35 H           1.5952   -2.4630    0.4712 H       1  UNL1        0.0266
     36 H          -0.5272   -2.0924   -0.8448 H       1  UNL1        0.0278
     37 H          -0.7230   -2.1691    0.9473 H       1  UNL1        0.0278
     38 H          -0.7699    0.3410    0.9954 H       1  UNL1        0.0427
     39 H          -0.3854    0.4164   -0.7168 H       1  UNL1        0.0427
     40 H          -3.0732    0.1771    1.7623 H       1  UNL1        0.0453
     41 H          -2.5662   -1.5317    1.3069 H       1  UNL1        0.0453
     42 H          -5.1302   -0.7930    1.6093 H       1  UNL1        0.0633
     43 H          -4.0128   -2.3305   -0.5657 H       1  UNL1        0.2099
     44 H          -4.5922   -0.6283   -1.3826 H       1  UNL1        0.0646
     45 H          -6.7171   -0.6596    0.2349 H       1  UNL1        0.2100
     46 H          -4.4401    1.5455    0.7670 H       1  UNL1        0.0636
     47 H          -4.8180    1.8419   -2.0670 H       1  UNL1        0.2100
     48 H          -2.7975    1.1694   -1.7541 H       1  UNL1        0.0511
     49 H          -1.1609    2.4728   -0.3640 H       1  UNL1        0.0573
     50 H          -2.7730    3.2128   -0.4266 H       1  UNL1        0.0573
     51 H          -2.1782    3.3092    1.6067 H       1  UNL1        0.2095
@<TRIPOS>BOND
     1     1     2    1
     2     2     3    1
     3     3     4    1
     4     4     5    1
     5     5     6    1
     6     6     7    1
     7     7     8    1
     8     8     9    1
     9     9    10    1
    10    10    11    1
    11    11    12    1
    12    12    13    1
    13    12    14    1
    14    14    15    1
    15    14    16    1
    16    16    17    1
    17    16    18    1
    18    18    19    1
    19    19    20    1
    20    18    10    1
    21     1    21    1
    22     1    22    1
    23     1    23    1
    24     2    24    1
    25     2    25    1
    26     3    26    1
    27     3    27    1
    28     4    28    1
    29     4    29    1
    30     5    30    1
    31     5    31    1
    32     6    32    1
    33     6    33    1
    34     7    34    1
    35     7    35    1
    36     8    36    1
    37     8    37    1
    38     9    38    1
    39     9    39    1
    40    11    40    1
    41    11    41    1
    42    12    42    1
    43    13    43    1
    44    14    44    1
    45    15    45    1
    46    16    46    1
    47    17    47    1
    48    18    48    1
    49    19    49    1
    50    19    50    1
    51    20    51    1
