
     RDKit          3D

 52 56  0  0  0  0  0  0  0  0999 V2000
   -2.2155    0.9701    0.1383 C   0  0  0  0  0  0  0  0  0  0  0  0
   -3.2720    0.5164   -0.7864 C   0  0  0  0  0  0  0  0  0  0  0  0
   -3.3575   -0.7620   -1.2836 C   0  0  0  0  0  0  0  0  0  0  0  0
   -2.4213   -1.7471   -0.9407 N   0  0  0  0  0  0  0  0  0  0  0  0
   -2.1214   -2.2306    0.3464 C   0  0  0  0  0  0  0  0  0  0  0  0
   -3.0840   -2.9264    1.0288 C   0  0  0  0  0  0  0  0  0  0  0  0
   -4.4100   -3.1337    0.4334 C   0  0  0  0  0  0  0  0  0  0  0  0
   -5.4561   -3.2851   -0.0223 N   0  0  0  0  0  0  0  0  0  0  0  0
   -2.8605   -3.4591    2.2732 C   0  0  0  0  0  0  0  0  0  0  0  0
   -1.6612   -3.2854    2.8225 N   0  0  0  0  0  0  0  0  0  0  0  0
   -0.6900   -2.5938    2.1532 C   0  0  0  0  0  0  0  0  0  0  0  0
    0.9973   -2.1775    2.5484 S   0  0  0  0  0  0  0  0  0  0  0  0
    1.3581   -1.3325    1.1014 C   0  0  0  0  0  0  0  0  0  0  0  0
    2.6562   -0.7009    0.7703 C   0  0  0  0  0  0  0  0  0  0  0  0
    3.6652   -0.7603    1.5786 C   0  0  0  0  0  0  0  0  0  0  0  0
    4.9844   -0.2443    1.4899 C   0  0  0  0  0  0  0  0  0  0  0  0
    5.8186   -0.4813    2.4724 O   0  0  0  0  0  0  0  0  0  0  0  0
    5.5234    0.5126    0.4467 N   0  0  0  0  0  0  0  0  0  0  0  0
    6.9306    0.9486    0.4632 C   0  0  0  0  0  0  0  0  0  0  0  0
    6.9420    2.1684   -0.3958 C   0  0  0  0  0  0  0  0  0  0  0  0
    5.8847    1.9233   -1.4366 C   0  0  0  0  0  0  0  0  0  0  0  0
    4.9064    0.9990   -0.7305 C   0  0  0  0  0  0  0  0  0  0  0  0
    0.2027   -1.3899    0.3693 C   0  0  0  0  0  0  0  0  0  0  0  0
   -0.8421   -2.0296    0.8990 C   0  0  0  0  0  0  0  0  0  0  0  0
   -4.4059   -1.0655   -2.1522 C   0  0  0  0  0  0  0  0  0  0  0  0
   -5.3317   -0.1410   -2.5136 C   0  0  0  0  0  0  0  0  0  0  0  0
   -5.2522    1.1332   -2.0223 C   0  0  0  0  0  0  0  0  0  0  0  0
   -6.0183    2.2293   -2.2141 N   0  0  0  0  0  0  0  0  0  0  0  0
   -5.5031    3.2374   -1.4984 C   0  0  0  0  0  0  0  0  0  0  0  0
   -4.3792    2.8042   -0.8223 C   0  0  0  0  0  0  0  0  0  0  0  0
   -4.2337    1.4677   -1.1652 C   0  0  0  0  0  0  0  0  0  0  0  0
   -1.2307    0.9670   -0.3506 H   0  0  0  0  0  0  0  0  0  0  0  0
   -2.3735    2.0488    0.4226 H   0  0  0  0  0  0  0  0  0  0  0  0
   -2.2419    0.4207    1.0966 H   0  0  0  0  0  0  0  0  0  0  0  0
   -1.8793   -2.1745   -1.7482 H   0  0  0  0  0  0  0  0  0  0  0  0
   -3.6484   -3.9921    2.7592 H   0  0  0  0  0  0  0  0  0  0  0  0
    2.7387   -0.2056   -0.1496 H   0  0  0  0  0  0  0  0  0  0  0  0
    3.4432   -1.3297    2.5234 H   0  0  0  0  0  0  0  0  0  0  0  0
    7.5093    0.1199    0.0008 H   0  0  0  0  0  0  0  0  0  0  0  0
    7.2077    1.1333    1.5068 H   0  0  0  0  0  0  0  0  0  0  0  0
    6.6863    3.0590    0.2005 H   0  0  0  0  0  0  0  0  0  0  0  0
    7.9669    2.2453   -0.8472 H   0  0  0  0  0  0  0  0  0  0  0  0
    6.3068    1.4696   -2.3331 H   0  0  0  0  0  0  0  0  0  0  0  0
    5.3776    2.8747   -1.7062 H   0  0  0  0  0  0  0  0  0  0  0  0
    4.0123    1.6025   -0.4360 H   0  0  0  0  0  0  0  0  0  0  0  0
    4.6128    0.1716   -1.4030 H   0  0  0  0  0  0  0  0  0  0  0  0
    0.2165   -0.8965   -0.6314 H   0  0  0  0  0  0  0  0  0  0  0  0
   -4.4289   -2.0853   -2.5158 H   0  0  0  0  0  0  0  0  0  0  0  0
   -6.1288   -0.4471   -3.1998 H   0  0  0  0  0  0  0  0  0  0  0  0
   -6.8573    2.2081   -2.8346 H   0  0  0  0  0  0  0  0  0  0  0  0
   -5.9015    4.2601   -1.4453 H   0  0  0  0  0  0  0  0  0  0  0  0
   -3.7418    3.3855   -0.1613 H   0  0  0  0  0  0  0  0  0  0  0  0
  1  2  1  0
  2  3  2  0
  3  4  1  0
  4  5  1  0
  5  6  2  0
  6  7  1  0
  7  8  3  0
  6  9  1  0
  9 10  2  0
 10 11  1  0
 11 12  1  0
 12 13  1  0
 13 14  1  0
 14 15  2  0
 15 16  1  0
 16 17  2  0
 16 18  1  0
 18 19  1  0
 19 20  1  0
 20 21  1  0
 21 22  1  0
 13 23  2  0
 23 24  1  0
  3 25  1  0
 25 26  2  0
 26 27  1  0
 27 28  1  0
 28 29  1  0
 29 30  2  0
 30 31  1  0
 31  2  1  0
 24  5  1  0
 31 27  2  0
 24 11  2  0
 22 18  1  0
  1 32  1  0
  1 33  1  0
  1 34  1  0
  4 35  1  0
  9 36  1  0
 14 37  1  0
 15 38  1  0
 19 39  1  0
 19 40  1  0
 20 41  1  0
 20 42  1  0
 21 43  1  0
 21 44  1  0
 22 45  1  0
 22 46  1  0
 23 47  1  0
 25 48  1  0
 26 49  1  0
 28 50  1  0
 29 51  1  0
 30 52  1  0
M  END
$$$$
