@<TRIPOS>MOLECULE
*****
 52 56 0 0 0
SMALL
GASTEIGER

@<TRIPOS>ATOM
      1 C          -2.2155    0.9701    0.1383 C.3     1  UNL1       -0.0373
      2 C          -3.2720    0.5164   -0.7864 C.ar    1  UNL1       -0.0202
      3 C          -3.3575   -0.7620   -1.2836 C.ar    1  UNL1        0.0350
      4 N          -2.4213   -1.7471   -0.9407 N.pl3   1  UNL1       -0.3127
      5 C          -2.1214   -2.2306    0.3464 C.ar    1  UNL1        0.0602
      6 C          -3.0840   -2.9264    1.0288 C.ar    1  UNL1        0.0915
      7 C          -4.4100   -3.1337    0.4334 C.1     1  UNL1        0.1026
      8 N          -5.4561   -3.2851   -0.0223 N.1     1  UNL1       -0.1908
      9 C          -2.8605   -3.4591    2.2732 C.ar    1  UNL1        0.0480
     10 N          -1.6612   -3.2854    2.8225 N.ar    1  UNL1       -0.2464
     11 C          -0.6900   -2.5938    2.1532 C.ar    1  UNL1        0.1106
     12 S           0.9973   -2.1775    2.5484 S.2     1  UNL1       -0.0692
     13 C           1.3581   -1.3325    1.1014 C.ar    1  UNL1        0.0150
     14 C           2.6562   -0.7009    0.7703 C.2     1  UNL1       -0.0430
     15 C           3.6652   -0.7603    1.5786 C.2     1  UNL1        0.0014
     16 C           4.9844   -0.2443    1.4899 C.2     1  UNL1        0.2395
     17 O           5.8186   -0.4813    2.4724 O.2     1  UNL1       -0.2706
     18 N           5.5234    0.5126    0.4467 N.am    1  UNL1       -0.2980
     19 C           6.9306    0.9486    0.4632 C.3     1  UNL1        0.0150
     20 C           6.9420    2.1684   -0.3958 C.3     1  UNL1       -0.0357
     21 C           5.8847    1.9233   -1.4366 C.3     1  UNL1       -0.0357
     22 C           4.9064    0.9990   -0.7305 C.3     1  UNL1        0.0150
     23 C           0.2027   -1.3899    0.3693 C.ar    1  UNL1       -0.0364
     24 C          -0.8421   -2.0296    0.8990 C.ar    1  UNL1        0.0306
     25 C          -4.4059   -1.0655   -2.1522 C.ar    1  UNL1       -0.0383
     26 C          -5.3317   -0.1410   -2.5136 C.ar    1  UNL1       -0.0360
     27 C          -5.2522    1.1332   -2.0223 C.ar    1  UNL1        0.0468
     28 N          -6.0183    2.2293   -2.2141 N.ar    1  UNL1       -0.3606
     29 C          -5.5031    3.2374   -1.4984 C.ar    1  UNL1        0.0027
     30 C          -4.3792    2.8042   -0.8223 C.ar    1  UNL1       -0.0364
     31 C          -4.2337    1.4677   -1.1652 C.ar    1  UNL1        0.0043
     32 H          -1.2307    0.9670   -0.3506 H       1  UNL1        0.0278
     33 H          -2.3735    2.0488    0.4226 H       1  UNL1        0.0278
     34 H          -2.2419    0.4207    1.0966 H       1  UNL1        0.0278
     35 H          -1.8793   -2.1745   -1.7482 H       1  UNL1        0.1522
     36 H          -3.6484   -3.9921    2.7592 H       1  UNL1        0.0843
     37 H           2.7387   -0.2056   -0.1496 H       1  UNL1        0.0630
     38 H           3.4432   -1.3297    2.5234 H       1  UNL1        0.0670
     39 H           7.5093    0.1199    0.0008 H       1  UNL1        0.0465
     40 H           7.2077    1.1333    1.5068 H       1  UNL1        0.0465
     41 H           6.6863    3.0590    0.2005 H       1  UNL1        0.0281
     42 H           7.9669    2.2453   -0.8472 H       1  UNL1        0.0281
     43 H           6.3068    1.4696   -2.3331 H       1  UNL1        0.0281
     44 H           5.3776    2.8747   -1.7062 H       1  UNL1        0.0281
     45 H           4.0123    1.6025   -0.4360 H       1  UNL1        0.0465
     46 H           4.6128    0.1716   -1.4030 H       1  UNL1        0.0465
     47 H           0.2165   -0.8965   -0.6314 H       1  UNL1        0.0636
     48 H          -4.4289   -2.0853   -2.5158 H       1  UNL1        0.0637
     49 H          -6.1288   -0.4471   -3.1998 H       1  UNL1        0.0639
     50 H          -6.8573    2.2081   -2.8346 H       1  UNL1        0.1653
     51 H          -5.9015    4.2601   -1.4453 H       1  UNL1        0.0807
     52 H          -3.7418    3.3855   -0.1613 H       1  UNL1        0.0639
@<TRIPOS>BOND
     1     1     2    1
     2     2     3   ar
     3     3     4    1
     4     4     5    1
     5     5     6   ar
     6     6     7    1
     7     7     8    3
     8     6     9   ar
     9     9    10   ar
    10    10    11   ar
    11    11    12   ar
    12    12    13   ar
    13    13    14    1
    14    14    15    2
    15    15    16    1
    16    16    17    2
    17    16    18   am
    18    18    19    1
    19    19    20    1
    20    20    21    1
    21    21    22    1
    22    13    23   ar
    23    23    24   ar
    24     3    25   ar
    25    25    26   ar
    26    26    27   ar
    27    27    28   ar
    28    28    29   ar
    29    29    30   ar
    30    30    31   ar
    31    31     2   ar
    32    24     5   ar
    33    31    27   ar
    34    24    11   ar
    35    22    18    1
    36     1    32    1
    37     1    33    1
    38     1    34    1
    39     4    35    1
    40     9    36    1
    41    14    37    1
    42    15    38    1
    43    19    39    1
    44    19    40    1
    45    20    41    1
    46    20    42    1
    47    21    43    1
    48    21    44    1
    49    22    45    1
    50    22    46    1
    51    23    47    1
    52    25    48    1
    53    26    49    1
    54    28    50    1
    55    29    51    1
    56    30    52    1
