@<TRIPOS>MOLECULE
*****
 40 42 0 0 0
SMALL
GASTEIGER

@<TRIPOS>ATOM
      1 C          -2.2812   -2.7763   -0.3270 C.3     1  UNL1       -0.0445
      2 C          -2.7376   -1.3915    0.0677 C.3     1  UNL1        0.0437
      3 C          -4.0108   -0.9947   -0.6520 C.3     1  UNL1       -0.0058
      4 C          -3.8563    0.4823   -0.7313 C.ar    1  UNL1       -0.0230
      5 C          -4.7651    1.5204   -0.9512 C.ar    1  UNL1       -0.0567
      6 C          -4.3927    2.8355   -0.9840 C.ar    1  UNL1       -0.0614
      7 C          -3.0661    3.1807   -0.7944 C.ar    1  UNL1       -0.0599
      8 C          -2.1232    2.1766   -0.5715 C.ar    1  UNL1       -0.0389
      9 C          -2.5401    0.8540   -0.5453 C.ar    1  UNL1        0.0511
     10 N          -1.8270   -0.3607   -0.3445 N.pl3   1  UNL1       -0.2474
     11 N          -0.4303   -0.4732   -0.5382 N.am    1  UNL1       -0.2297
     12 C           0.2101   -0.1764    0.6832 C.2     1  UNL1        0.2603
     13 O          -0.6259    0.1059    1.6080 O.2     1  UNL1       -0.2687
     14 C           1.6703   -0.1846    0.8920 C.ar    1  UNL1        0.0401
     15 C           2.5427   -0.4872   -0.1036 C.ar    1  UNL1       -0.0218
     16 C           3.8910   -0.4666    0.1954 C.ar    1  UNL1        0.1239
     17 C           4.3628   -0.1531    1.4526 C.ar    1  UNL1        0.0673
     18 CL          6.0613   -0.1129    1.8824 Cl      1  UNL1       -0.0815
     19 C           3.4474    0.1492    2.4398 C.ar    1  UNL1       -0.0408
     20 C           2.0961    0.1350    2.1646 C.ar    1  UNL1       -0.0481
     21 S           5.0729   -0.8417   -1.0223 S.O2    1  UNL1        0.0574
     22 N           6.1324    0.5238   -1.2515 N.3     1  UNL1       -0.2035
     23 O           4.4339   -1.1428   -2.3480 O.2     1  UNL1       -0.1532
     24 O           5.9362   -1.9737   -0.5331 O.2     1  UNL1       -0.1532
     25 H          -3.1512   -3.4617   -0.3612 H       1  UNL1        0.0248
     26 H          -1.7401   -2.6947   -1.2747 H       1  UNL1        0.0248
     27 H          -1.5984   -3.1444    0.4503 H       1  UNL1        0.0248
     28 H          -2.9680   -1.3171    1.1485 H       1  UNL1        0.0518
     29 H          -4.0544   -1.3964   -1.6853 H       1  UNL1        0.0332
     30 H          -4.9216   -1.2578   -0.0764 H       1  UNL1        0.0332
     31 H          -5.8157    1.3198   -1.1065 H       1  UNL1        0.0621
     32 H          -5.1056    3.6237   -1.1547 H       1  UNL1        0.0618
     33 H          -2.6796    4.2081   -0.8046 H       1  UNL1        0.0618
     34 H          -1.0626    2.3933   -0.4157 H       1  UNL1        0.0637
     35 H           0.1864   -0.7209   -1.3687 H       1  UNL1        0.1733
     36 H           2.2073   -0.7329   -1.0831 H       1  UNL1        0.0645
     37 H           3.7369    0.4081    3.4616 H       1  UNL1        0.0633
     38 H           1.3858    0.3754    2.9525 H       1  UNL1        0.0625
     39 H           5.5544    1.3935   -1.2124 H       1  UNL1        0.1442
     40 H           6.8257    0.5761   -0.4544 H       1  UNL1        0.1442
@<TRIPOS>BOND
     1     1     2    1
     2     2     3    1
     3     3     4    1
     4     4     5   ar
     5     5     6   ar
     6     6     7   ar
     7     7     8   ar
     8     8     9   ar
     9     9    10    1
    10    10    11    1
    11    11    12   am
    12    12    13    2
    13    12    14    1
    14    14    15   ar
    15    15    16   ar
    16    16    17   ar
    17    17    18    1
    18    17    19   ar
    19    19    20   ar
    20    16    21    1
    21    21    22    1
    22    21    23    2
    23    21    24    2
    24    10     2    1
    25    20    14   ar
    26     9     4   ar
    27     1    25    1
    28     1    26    1
    29     1    27    1
    30     2    28    1
    31     3    29    1
    32     3    30    1
    33     5    31    1
    34     6    32    1
    35     7    33    1
    36     8    34    1
    37    11    35    1
    38    15    36    1
    39    19    37    1
    40    20    38    1
    41    22    39    1
    42    22    40    1
