@<TRIPOS>MOLECULE
*****
 43 45 0 0 0
SMALL
GASTEIGER

@<TRIPOS>ATOM
      1 C          -5.4524    0.4970   -0.6948 C.3     1  UNL1       -0.0638
      2 C          -4.6209    0.2014    0.5217 C.3     1  UNL1       -0.0350
      3 C          -4.1433   -1.2280    0.5518 C.3     1  UNL1        0.0815
      4 S          -3.1431   -1.6215   -0.8598 S.O2    1  UNL1        0.0296
      5 O          -3.9277   -1.4933   -2.1159 O.2     1  UNL1       -0.1582
      6 O          -2.6952   -3.0501   -0.7149 O.2     1  UNL1       -0.1582
      7 N          -1.7372   -0.6057   -0.9301 N.3     1  UNL1       -0.1913
      8 C          -0.9251   -0.8037    0.2242 C.3     1  UNL1        0.0318
      9 C           0.5789   -0.9393   -0.0562 C.3     1  UNL1       -0.0172
     10 C           0.8050   -0.1826    1.2156 C.3     1  UNL1        0.0275
     11 N           1.8547    0.7859    1.2165 N.pl3   1  UNL1       -0.3145
     12 C           2.0806    1.5321    2.4479 C.3     1  UNL1        0.0023
     13 C           2.7009    1.0875    0.1237 C.ar    1  UNL1        0.1337
     14 N           2.7099    2.3324   -0.3769 N.ar    1  UNL1       -0.2200
     15 C           3.5000    2.6812   -1.4257 C.ar    1  UNL1        0.1204
     16 N           4.3079    1.7672   -1.9976 N.ar    1  UNL1       -0.2178
     17 C           4.3482    0.5062   -1.5475 C.ar    1  UNL1        0.1432
     18 N           5.0695   -0.5388   -1.9672 N.ar    1  UNL1       -0.3457
     19 C           4.7313   -1.5804   -1.1664 C.ar    1  UNL1        0.0042
     20 C           3.7778   -1.1543   -0.2348 C.ar    1  UNL1       -0.0318
     21 C           3.5364    0.1737   -0.4801 C.ar    1  UNL1        0.0585
     22 C          -0.5523    0.4761    0.9846 C.3     1  UNL1       -0.0172
     23 H          -6.2939    1.1932   -0.4431 H       1  UNL1        0.0230
     24 H          -4.8139    0.9803   -1.4505 H       1  UNL1        0.0230
     25 H          -5.9319   -0.4401   -1.0516 H       1  UNL1        0.0230
     26 H          -3.7852    0.9095    0.5598 H       1  UNL1        0.0279
     27 H          -5.2385    0.3540    1.4306 H       1  UNL1        0.0279
     28 H          -3.5552   -1.3884    1.4575 H       1  UNL1        0.0515
     29 H          -5.0189   -1.9051    0.5235 H       1  UNL1        0.0515
     30 H          -1.9950    0.3777   -1.1207 H       1  UNL1        0.1479
     31 H          -1.3258   -1.5405    0.9254 H       1  UNL1        0.0478
     32 H           0.8413   -2.0081    0.0072 H       1  UNL1        0.0299
     33 H           0.8637   -0.4335   -0.9886 H       1  UNL1        0.0299
     34 H           0.7904   -0.8798    2.0899 H       1  UNL1        0.0501
     35 H           1.4855    1.1539    3.2853 H       1  UNL1        0.0428
     36 H           1.8598    2.6092    2.3275 H       1  UNL1        0.0428
     37 H           3.1475    1.4604    2.7526 H       1  UNL1        0.0428
     38 H           3.5189    3.6729   -1.8380 H       1  UNL1        0.1048
     39 H           5.7681   -0.6301   -2.7371 H       1  UNL1        0.1668
     40 H           5.1062   -2.5932   -1.1995 H       1  UNL1        0.0807
     41 H           3.3038   -1.7240    0.5371 H       1  UNL1        0.0640
     42 H          -1.1186    0.6378    1.9015 H       1  UNL1        0.0299
     43 H          -0.4124    1.3506    0.3133 H       1  UNL1        0.0299
@<TRIPOS>BOND
     1     1     2    1
     2     2     3    1
     3     3     4    1
     4     4     5    2
     5     4     6    2
     6     4     7    1
     7     7     8    1
     8     8     9    1
     9     9    10    1
    10    10    11    1
    11    11    12    1
    12    11    13    1
    13    13    14   ar
    14    14    15   ar
    15    15    16   ar
    16    16    17   ar
    17    17    18   ar
    18    18    19   ar
    19    19    20   ar
    20    20    21   ar
    21    10    22    1
    22    22     8    1
    23    21    13   ar
    24    21    17   ar
    25     1    23    1
    26     1    24    1
    27     1    25    1
    28     2    26    1
    29     2    27    1
    30     3    28    1
    31     3    29    1
    32     7    30    1
    33     8    31    1
    34     9    32    1
    35     9    33    1
    36    10    34    1
    37    12    35    1
    38    12    36    1
    39    12    37    1
    40    15    38    1
    41    18    39    1
    42    19    40    1
    43    20    41    1
    44    22    42    1
    45    22    43    1
