
     RDKit          3D

 23 23  0  0  0  0  0  0  0  0999 V2000
   -0.9655   -0.6973    0.0085 C   0  0  1  0  0  0  0  0  0  0  0  0
   -2.3807   -1.1763    0.0299 C   0  0  0  0  0  0  0  0  0  0  0  0
   -0.1776   -1.2888   -0.9653 O   0  0  0  0  0  0  0  0  0  0  0  0
    1.1430   -1.0543   -0.6362 C   0  0  2  0  0  0  0  0  0  0  0  0
    1.4516   -1.8448    0.4660 O   0  0  0  0  0  0  0  0  0  0  0  0
    1.5144    0.3782   -0.4716 C   0  0  2  0  0  0  0  0  0  0  0  0
    2.7224    0.4176    0.2363 O   0  0  0  0  0  0  0  0  0  0  0  0
    0.4975    1.1516    0.3756 C   0  0  1  0  0  0  0  0  0  0  0  0
    0.7684    2.4895    0.3567 O   0  0  0  0  0  0  0  0  0  0  0  0
   -0.8523    0.7935   -0.2435 C   0  0  2  0  0  0  0  0  0  0  0  0
   -1.8903    1.5250    0.2814 O   0  0  0  0  0  0  0  0  0  0  0  0
   -0.5085   -0.9636    0.9953 H   0  0  0  0  0  0  0  0  0  0  0  0
   -2.8290   -0.8320    0.9964 H   0  0  0  0  0  0  0  0  0  0  0  0
   -2.9850   -0.8302   -0.8233 H   0  0  0  0  0  0  0  0  0  0  0  0
   -2.3495   -2.2737    0.0959 H   0  0  0  0  0  0  0  0  0  0  0  0
    1.7545   -1.4495   -1.4894 H   0  0  0  0  0  0  0  0  0  0  0  0
    1.5740   -1.3225    1.2881 H   0  0  0  0  0  0  0  0  0  0  0  0
    1.6576    0.8794   -1.4373 H   0  0  0  0  0  0  0  0  0  0  0  0
    3.2610   -0.3933    0.0735 H   0  0  0  0  0  0  0  0  0  0  0  0
    0.5058    0.7178    1.3996 H   0  0  0  0  0  0  0  0  0  0  0  0
    1.1704    2.7257    1.2449 H   0  0  0  0  0  0  0  0  0  0  0  0
   -0.7343    1.0079   -1.3375 H   0  0  0  0  0  0  0  0  0  0  0  0
   -2.3480    2.0402   -0.4443 H   0  0  0  0  0  0  0  0  0  0  0  0
  1  2  1  0
  1  3  1  0
  3  4  1  0
  4  5  1  0
  4  6  1  0
  6  7  1  0
  6  8  1  0
  8  9  1  0
  8 10  1  0
 10 11  1  0
 10  1  1  0
  1 12  1  1
  2 13  1  0
  2 14  1  0
  2 15  1  0
  4 16  1  6
  5 17  1  0
  6 18  1  6
  7 19  1  0
  8 20  1  1
  9 21  1  0
 10 22  1  6
 11 23  1  0
M  END
$$$$
