@<TRIPOS>MOLECULE
*****
 23 23 0 0 0
SMALL
GASTEIGER

@<TRIPOS>ATOM
      1 C          -0.9655   -0.6973    0.0085 C.3     1  UNL1        0.0873
      2 C          -2.3807   -1.1763    0.0299 C.3     1  UNL1       -0.0361
      3 O          -0.1776   -1.2888   -0.9653 O.3     1  UNL1       -0.3433
      4 C           1.1430   -1.0543   -0.6362 C.3     1  UNL1        0.1853
      5 O           1.4516   -1.8448    0.4660 O.3     1  UNL1       -0.3649
      6 C           1.5144    0.3782   -0.4716 C.3     1  UNL1        0.1339
      7 O           2.7224    0.4176    0.2363 O.3     1  UNL1       -0.3841
      8 C           0.4975    1.1516    0.3756 C.3     1  UNL1        0.1140
      9 O           0.7684    2.4895    0.3567 O.3     1  UNL1       -0.3864
     10 C          -0.8523    0.7935   -0.2435 C.3     1  UNL1        0.1095
     11 O          -1.8903    1.5250    0.2814 O.3     1  UNL1       -0.3866
     12 H          -0.5085   -0.9636    0.9953 H       1  UNL1        0.0621
     13 H          -2.8290   -0.8320    0.9964 H       1  UNL1        0.0255
     14 H          -2.9850   -0.8302   -0.8233 H       1  UNL1        0.0255
     15 H          -2.3495   -2.2737    0.0959 H       1  UNL1        0.0255
     16 H           1.7545   -1.4495   -1.4894 H       1  UNL1        0.0935
     17 H           1.5740   -1.3225    1.2881 H       1  UNL1        0.2126
     18 H           1.6576    0.8794   -1.4373 H       1  UNL1        0.0671
     19 H           3.2610   -0.3933    0.0735 H       1  UNL1        0.2101
     20 H           0.5058    0.7178    1.3996 H       1  UNL1        0.0648
     21 H           1.1704    2.7257    1.2449 H       1  UNL1        0.2100
     22 H          -0.7343    1.0079   -1.3375 H       1  UNL1        0.0646
     23 H          -2.3480    2.0402   -0.4443 H       1  UNL1        0.2100
@<TRIPOS>BOND
     1     1     2    1
     2     1     3    1
     3     3     4    1
     4     4     5    1
     5     4     6    1
     6     6     7    1
     7     6     8    1
     8     8     9    1
     9     8    10    1
    10    10    11    1
    11    10     1    1
    12     1    12    1
    13     2    13    1
    14     2    14    1
    15     2    15    1
    16     4    16    1
    17     5    17    1
    18     6    18    1
    19     7    19    1
    20     8    20    1
    21     9    21    1
    22    10    22    1
    23    11    23    1
