
     RDKit          3D

 74 76  0  0  0  0  0  0  0  0999 V2000
    6.8545    1.9460   -1.7309 C   0  0  0  0  0  0  0  0  0  0  0  0
    5.6307    2.3186   -0.8820 C   0  0  0  0  0  0  0  0  0  0  0  0
    4.4264    2.0403   -1.7133 C   0  0  0  0  0  0  0  0  0  0  0  0
    3.1132    2.3222   -1.0751 C   0  0  0  0  0  0  0  0  0  0  0  0
    2.7411    1.5413    0.1247 C   0  0  0  0  0  0  0  0  0  0  0  0
    2.5530    0.1322   -0.0479 N   0  0  0  0  0  0  0  0  0  0  0  0
    3.7477   -0.7608    0.1568 C   0  0  0  0  0  0  0  0  0  0  0  0
    3.8418   -1.1556    1.5856 C   0  0  0  0  0  0  0  0  0  0  0  0
    5.0109   -2.0619    1.8435 C   0  0  0  0  0  0  0  0  0  0  0  0
    6.3163   -1.4144    1.4974 C   0  0  0  0  0  0  0  0  0  0  0  0
    7.4451   -2.3946    1.8054 C   0  0  0  0  0  0  0  0  0  0  0  0
    1.3855   -0.5819   -0.3708 C   0  0  0  0  0  0  0  0  0  0  0  0
    1.5093   -1.8949   -0.4544 O   0  0  0  0  0  0  0  0  0  0  0  0
    0.1230   -0.1268   -0.6127 N   0  0  0  0  0  0  0  0  0  0  0  0
   -0.9491   -1.1503   -0.8825 C   0  0  0  0  0  0  0  0  0  0  0  0
   -1.9407   -0.9891    0.2662 C   0  0  0  0  0  0  0  0  0  0  0  0
   -2.3468    0.3791    0.4027 N   0  0  0  0  0  0  0  0  0  0  0  0
   -3.6435    0.8734    0.3478 C   0  0  0  0  0  0  0  0  0  0  0  0
   -3.7133    2.1729    0.5109 O   0  0  0  0  0  0  0  0  0  0  0  0
   -4.8283    0.1799    0.1479 N   0  0  0  0  0  0  0  0  0  0  0  0
   -5.0589   -1.1980   -0.0508 C   0  0  0  0  0  0  0  0  0  0  0  0
   -5.0445   -1.7245   -1.3383 C   0  0  0  0  0  0  0  0  0  0  0  0
   -5.3076   -3.0647   -1.4909 C   0  0  0  0  0  0  0  0  0  0  0  0
   -5.5778   -3.8670   -0.4053 C   0  0  0  0  0  0  0  0  0  0  0  0
   -5.5881   -3.3320    0.8586 C   0  0  0  0  0  0  0  0  0  0  0  0
   -5.3322   -2.0140    1.0371 C   0  0  0  0  0  0  0  0  0  0  0  0
   -6.0398    0.9895    0.1385 C   0  0  0  0  0  0  0  0  0  0  0  0
   -6.4354    1.4840   -1.0717 C   0  0  0  0  0  0  0  0  0  0  0  0
   -7.5854    2.2663   -1.1544 C   0  0  0  0  0  0  0  0  0  0  0  0
   -8.3208    2.5376   -0.0061 C   0  0  0  0  0  0  0  0  0  0  0  0
   -7.9136    2.0345    1.2087 C   0  0  0  0  0  0  0  0  0  0  0  0
   -6.7631    1.2556    1.2711 C   0  0  0  0  0  0  0  0  0  0  0  0
   -1.2351    1.3566    0.6203 C   0  0  0  0  0  0  0  0  0  0  0  0
   -0.3712    1.2054   -0.6513 C   0  0  0  0  0  0  0  0  0  0  0  0
    6.5763    0.9862   -2.2425 H   0  0  0  0  0  0  0  0  0  0  0  0
    7.0538    2.6799   -2.5134 H   0  0  0  0  0  0  0  0  0  0  0  0
    7.7191    1.7167   -1.0789 H   0  0  0  0  0  0  0  0  0  0  0  0
    5.6616    3.4118   -0.6384 H   0  0  0  0  0  0  0  0  0  0  0  0
    5.7275    1.8020    0.0622 H   0  0  0  0  0  0  0  0  0  0  0  0
    4.4941    2.7406   -2.6001 H   0  0  0  0  0  0  0  0  0  0  0  0
    4.4881    1.0298   -2.1739 H   0  0  0  0  0  0  0  0  0  0  0  0
    2.3348    2.1664   -1.8669 H   0  0  0  0  0  0  0  0  0  0  0  0
    3.0255    3.4159   -0.8337 H   0  0  0  0  0  0  0  0  0  0  0  0
    3.5724    1.6861    0.9404 H   0  0  0  0  0  0  0  0  0  0  0  0
    1.8872    1.9882    0.6405 H   0  0  0  0  0  0  0  0  0  0  0  0
    3.6309   -1.6485   -0.4791 H   0  0  0  0  0  0  0  0  0  0  0  0
    4.6628   -0.2613   -0.1614 H   0  0  0  0  0  0  0  0  0  0  0  0
    2.9317   -1.7427    1.9141 H   0  0  0  0  0  0  0  0  0  0  0  0
    3.8789   -0.2395    2.2494 H   0  0  0  0  0  0  0  0  0  0  0  0
    4.8600   -2.9566    1.1888 H   0  0  0  0  0  0  0  0  0  0  0  0
    5.0501   -2.3970    2.9101 H   0  0  0  0  0  0  0  0  0  0  0  0
    6.4305   -0.4914    2.0621 H   0  0  0  0  0  0  0  0  0  0  0  0
    6.3335   -1.1594    0.4044 H   0  0  0  0  0  0  0  0  0  0  0  0
    8.4038   -2.0358    1.3770 H   0  0  0  0  0  0  0  0  0  0  0  0
    7.2353   -3.3887    1.3813 H   0  0  0  0  0  0  0  0  0  0  0  0
    7.5056   -2.4702    2.8995 H   0  0  0  0  0  0  0  0  0  0  0  0
   -1.3950   -0.8539   -1.8222 H   0  0  0  0  0  0  0  0  0  0  0  0
   -0.4999   -2.1339   -0.8314 H   0  0  0  0  0  0  0  0  0  0  0  0
   -2.7042   -1.7237    0.1870 H   0  0  0  0  0  0  0  0  0  0  0  0
   -1.3262   -1.2730    1.1902 H   0  0  0  0  0  0  0  0  0  0  0  0
   -4.8317   -1.0935   -2.1949 H   0  0  0  0  0  0  0  0  0  0  0  0
   -5.3120   -3.5433   -2.4784 H   0  0  0  0  0  0  0  0  0  0  0  0
   -5.7791   -4.9156   -0.5710 H   0  0  0  0  0  0  0  0  0  0  0  0
   -5.8016   -3.9719    1.7030 H   0  0  0  0  0  0  0  0  0  0  0  0
   -5.3346   -1.5711    2.0203 H   0  0  0  0  0  0  0  0  0  0  0  0
   -5.9187    1.3176   -2.0055 H   0  0  0  0  0  0  0  0  0  0  0  0
   -7.9184    2.6643   -2.0768 H   0  0  0  0  0  0  0  0  0  0  0  0
   -9.2211    3.1588   -0.1167 H   0  0  0  0  0  0  0  0  0  0  0  0
   -8.4787    2.2434    2.0888 H   0  0  0  0  0  0  0  0  0  0  0  0
   -6.4494    0.8648    2.2241 H   0  0  0  0  0  0  0  0  0  0  0  0
   -1.6530    2.3586    0.6903 H   0  0  0  0  0  0  0  0  0  0  0  0
   -0.6712    1.0979    1.5101 H   0  0  0  0  0  0  0  0  0  0  0  0
    0.2927    2.0227   -0.8243 H   0  0  0  0  0  0  0  0  0  0  0  0
   -1.1646    1.2144   -1.4973 H   0  0  0  0  0  0  0  0  0  0  0  0
  1  2  1  0
  2  3  1  0
  3  4  1  0
  4  5  1  0
  5  6  1  0
  6  7  1  0
  7  8  1  0
  8  9  1  0
  9 10  1  0
 10 11  1  0
  6 12  1  0
 12 13  2  0
 12 14  1  0
 14 15  1  0
 15 16  1  0
 16 17  1  0
 17 18  1  0
 18 19  2  0
 18 20  1  0
 20 21  1  0
 21 22  2  0
 22 23  1  0
 23 24  2  0
 24 25  1  0
 25 26  2  0
 20 27  1  0
 27 28  2  0
 28 29  1  0
 29 30  2  0
 30 31  1  0
 31 32  2  0
 17 33  1  0
 33 34  1  0
 34 14  1  0
 26 21  1  0
 32 27  1  0
  1 35  1  0
  1 36  1  0
  1 37  1  0
  2 38  1  0
  2 39  1  0
  3 40  1  0
  3 41  1  0
  4 42  1  0
  4 43  1  0
  5 44  1  0
  5 45  1  0
  7 46  1  0
  7 47  1  0
  8 48  1  0
  8 49  1  0
  9 50  1  0
  9 51  1  0
 10 52  1  0
 10 53  1  0
 11 54  1  0
 11 55  1  0
 11 56  1  0
 15 57  1  0
 15 58  1  0
 16 59  1  0
 16 60  1  0
 22 61  1  0
 23 62  1  0
 24 63  1  0
 25 64  1  0
 26 65  1  0
 28 66  1  0
 29 67  1  0
 30 68  1  0
 31 69  1  0
 32 70  1  0
 33 71  1  0
 33 72  1  0
 34 73  1  0
 34 74  1  0
M  END
$$$$
