@<TRIPOS>MOLECULE
*****
 74 76 0 0 0
SMALL
GASTEIGER

@<TRIPOS>ATOM
      1 C           6.8545    1.9460   -1.7309 C.3     1  UNL1       -0.0653
      2 C           5.6307    2.3186   -0.8820 C.3     1  UNL1       -0.0559
      3 C           4.4264    2.0403   -1.7133 C.3     1  UNL1       -0.0519
      4 C           3.1132    2.3222   -1.0751 C.3     1  UNL1       -0.0371
      5 C           2.7411    1.5413    0.1247 C.3     1  UNL1        0.0161
      6 N           2.5530    0.1322   -0.0479 N.am    1  UNL1       -0.2855
      7 C           3.7477   -0.7608    0.1568 C.3     1  UNL1        0.0161
      8 C           3.8418   -1.1556    1.5856 C.3     1  UNL1       -0.0371
      9 C           5.0109   -2.0619    1.8435 C.3     1  UNL1       -0.0519
     10 C           6.3163   -1.4144    1.4974 C.3     1  UNL1       -0.0559
     11 C           7.4451   -2.3946    1.8054 C.3     1  UNL1       -0.0653
     12 C           1.3855   -0.5819   -0.3708 C.2     1  UNL1        0.3049
     13 O           1.5093   -1.8949   -0.4544 O.2     1  UNL1       -0.2524
     14 N           0.1230   -0.1268   -0.6127 N.am    1  UNL1       -0.2825
     15 C          -0.9491   -1.1503   -0.8825 C.3     1  UNL1        0.0320
     16 C          -1.9407   -0.9891    0.2662 C.3     1  UNL1        0.0321
     17 N          -2.3468    0.3791    0.4027 N.am    1  UNL1       -0.2819
     18 C          -3.6435    0.8734    0.3478 C.2     1  UNL1        0.3136
     19 O          -3.7133    2.1729    0.5109 O.2     1  UNL1       -0.2517
     20 N          -4.8283    0.1799    0.1479 N.am    1  UNL1       -0.2243
     21 C          -5.0589   -1.1980   -0.0508 C.ar    1  UNL1        0.0428
     22 C          -5.0445   -1.7245   -1.3383 C.ar    1  UNL1       -0.0399
     23 C          -5.3076   -3.0647   -1.4909 C.ar    1  UNL1       -0.0600
     24 C          -5.5778   -3.8670   -0.4053 C.ar    1  UNL1       -0.0616
     25 C          -5.5881   -3.3320    0.8586 C.ar    1  UNL1       -0.0600
     26 C          -5.3322   -2.0140    1.0371 C.ar    1  UNL1       -0.0399
     27 C          -6.0398    0.9895    0.1385 C.ar    1  UNL1        0.0428
     28 C          -6.4354    1.4840   -1.0717 C.ar    1  UNL1       -0.0399
     29 C          -7.5854    2.2663   -1.1544 C.ar    1  UNL1       -0.0600
     30 C          -8.3208    2.5376   -0.0061 C.ar    1  UNL1       -0.0616
     31 C          -7.9136    2.0345    1.2087 C.ar    1  UNL1       -0.0600
     32 C          -6.7631    1.2556    1.2711 C.ar    1  UNL1       -0.0399
     33 C          -1.2351    1.3566    0.6203 C.3     1  UNL1        0.0321
     34 C          -0.3712    1.2054   -0.6513 C.3     1  UNL1        0.0320
     35 H           6.5763    0.9862   -2.2425 H       1  UNL1        0.0230
     36 H           7.0538    2.6799   -2.5134 H       1  UNL1        0.0230
     37 H           7.7191    1.7167   -1.0789 H       1  UNL1        0.0230
     38 H           5.6616    3.4118   -0.6384 H       1  UNL1        0.0263
     39 H           5.7275    1.8020    0.0622 H       1  UNL1        0.0263
     40 H           4.4941    2.7406   -2.6001 H       1  UNL1        0.0266
     41 H           4.4881    1.0298   -2.1739 H       1  UNL1        0.0266
     42 H           2.3348    2.1664   -1.8669 H       1  UNL1        0.0280
     43 H           3.0255    3.4159   -0.8337 H       1  UNL1        0.0280
     44 H           3.5724    1.6861    0.9404 H       1  UNL1        0.0465
     45 H           1.8872    1.9882    0.6405 H       1  UNL1        0.0465
     46 H           3.6309   -1.6485   -0.4791 H       1  UNL1        0.0465
     47 H           4.6628   -0.2613   -0.1614 H       1  UNL1        0.0465
     48 H           2.9317   -1.7427    1.9141 H       1  UNL1        0.0280
     49 H           3.8789   -0.2395    2.2494 H       1  UNL1        0.0280
     50 H           4.8600   -2.9566    1.1888 H       1  UNL1        0.0266
     51 H           5.0501   -2.3970    2.9101 H       1  UNL1        0.0266
     52 H           6.4305   -0.4914    2.0621 H       1  UNL1        0.0263
     53 H           6.3335   -1.1594    0.4044 H       1  UNL1        0.0263
     54 H           8.4038   -2.0358    1.3770 H       1  UNL1        0.0230
     55 H           7.2353   -3.3887    1.3813 H       1  UNL1        0.0230
     56 H           7.5056   -2.4702    2.8995 H       1  UNL1        0.0230
     57 H          -1.3950   -0.8539   -1.8222 H       1  UNL1        0.0480
     58 H          -0.4999   -2.1339   -0.8314 H       1  UNL1        0.0480
     59 H          -2.7042   -1.7237    0.1870 H       1  UNL1        0.0480
     60 H          -1.3262   -1.2730    1.1902 H       1  UNL1        0.0480
     61 H          -4.8317   -1.0935   -2.1949 H       1  UNL1        0.0636
     62 H          -5.3120   -3.5433   -2.4784 H       1  UNL1        0.0618
     63 H          -5.7791   -4.9156   -0.5710 H       1  UNL1        0.0618
     64 H          -5.8016   -3.9719    1.7030 H       1  UNL1        0.0618
     65 H          -5.3346   -1.5711    2.0203 H       1  UNL1        0.0636
     66 H          -5.9187    1.3176   -2.0055 H       1  UNL1        0.0636
     67 H          -7.9184    2.6643   -2.0768 H       1  UNL1        0.0618
     68 H          -9.2211    3.1588   -0.1167 H       1  UNL1        0.0618
     69 H          -8.4787    2.2434    2.0888 H       1  UNL1        0.0618
     70 H          -6.4494    0.8648    2.2241 H       1  UNL1        0.0636
     71 H          -1.6530    2.3586    0.6903 H       1  UNL1        0.0480
     72 H          -0.6712    1.0979    1.5101 H       1  UNL1        0.0480
     73 H           0.2927    2.0227   -0.8243 H       1  UNL1        0.0480
     74 H          -1.1646    1.2144   -1.4973 H       1  UNL1        0.0480
@<TRIPOS>BOND
     1     1     2    1
     2     2     3    1
     3     3     4    1
     4     4     5    1
     5     5     6    1
     6     6     7    1
     7     7     8    1
     8     8     9    1
     9     9    10    1
    10    10    11    1
    11     6    12   am
    12    12    13    2
    13    12    14   am
    14    14    15    1
    15    15    16    1
    16    16    17    1
    17    17    18   am
    18    18    19    2
    19    18    20   am
    20    20    21    1
    21    21    22   ar
    22    22    23   ar
    23    23    24   ar
    24    24    25   ar
    25    25    26   ar
    26    20    27    1
    27    27    28   ar
    28    28    29   ar
    29    29    30   ar
    30    30    31   ar
    31    31    32   ar
    32    17    33    1
    33    33    34    1
    34    34    14    1
    35    26    21   ar
    36    32    27   ar
    37     1    35    1
    38     1    36    1
    39     1    37    1
    40     2    38    1
    41     2    39    1
    42     3    40    1
    43     3    41    1
    44     4    42    1
    45     4    43    1
    46     5    44    1
    47     5    45    1
    48     7    46    1
    49     7    47    1
    50     8    48    1
    51     8    49    1
    52     9    50    1
    53     9    51    1
    54    10    52    1
    55    10    53    1
    56    11    54    1
    57    11    55    1
    58    11    56    1
    59    15    57    1
    60    15    58    1
    61    16    59    1
    62    16    60    1
    63    22    61    1
    64    23    62    1
    65    24    63    1
    66    25    64    1
    67    26    65    1
    68    28    66    1
    69    29    67    1
    70    30    68    1
    71    31    69    1
    72    32    70    1
    73    33    71    1
    74    33    72    1
    75    34    73    1
    76    34    74    1
