@<TRIPOS>MOLECULE
*****
 61 64 0 0 0
SMALL
GASTEIGER

@<TRIPOS>ATOM
      1 N           6.7357   -0.9179   -1.6361 N.am    1  UNL1       -0.3291
      2 C           6.4428    0.3775   -1.1509 C.2     1  UNL1        0.2137
      3 O           5.8461    1.1755   -1.9135 O.2     1  UNL1       -0.2757
      4 C           6.8042    0.8353    0.2064 C.3     1  UNL1        0.0377
      5 C           6.1685    0.0008    1.2850 C.3     1  UNL1       -0.0290
      6 C           4.6496    0.0472    1.2144 C.3     1  UNL1       -0.0001
      7 N           4.1913    1.3793    0.8978 N.3     1  UNL1       -0.2981
      8 C           2.9086    1.6526    1.4873 C.3     1  UNL1        0.0240
      9 C           1.8123    0.7981    0.9742 C.ar    1  UNL1       -0.0333
     10 C           1.4889   -0.3950    1.5751 C.ar    1  UNL1       -0.0566
     11 C           0.4571   -1.1544    1.0585 C.ar    1  UNL1       -0.0493
     12 C          -0.2897   -0.7915   -0.0437 C.ar    1  UNL1        0.0370
     13 C          -1.3732   -1.6393   -0.5386 C.2     1  UNL1        0.2483
     14 O          -1.6070   -2.7159    0.0678 O.2     1  UNL1       -0.2699
     15 N          -2.1724   -1.3250   -1.6528 N.am    1  UNL1       -0.2808
     16 C          -3.2249   -2.1385   -2.1381 C.ar    1  UNL1        0.0459
     17 C          -3.0163   -3.1229   -3.0902 C.ar    1  UNL1       -0.0384
     18 C          -4.0693   -3.8987   -3.5419 C.ar    1  UNL1       -0.0416
     19 C          -5.3263   -3.6754   -3.0291 C.ar    1  UNL1        0.0418
     20 CL         -6.6565   -4.6449   -3.5909 Cl      1  UNL1       -0.0835
     21 C          -5.5761   -2.6910   -2.0669 C.ar    1  UNL1       -0.0295
     22 C          -4.4878   -1.9329   -1.6400 C.ar    1  UNL1        0.0596
     23 C          -4.6725   -0.8916   -0.6443 C.2     1  UNL1        0.2511
     24 O          -3.6976   -0.1908   -0.2431 O.2     1  UNL1       -0.2697
     25 N          -5.9213   -0.5669   -0.0422 N.am    1  UNL1       -0.2663
     26 C          -6.0326    0.4797    0.9396 C.ar    1  UNL1        0.1252
     27 C          -6.3036    1.7391    0.4397 C.ar    1  UNL1       -0.0201
     28 C          -6.4362    2.8429    1.2622 C.ar    1  UNL1       -0.0387
     29 C          -6.2860    2.6365    2.6152 C.ar    1  UNL1        0.0592
     30 CL         -6.4392    3.9912    3.7379 Cl      1  UNL1       -0.0820
     31 C          -6.0162    1.3632    3.0716 C.ar    1  UNL1        0.0480
     32 N          -5.8906    0.2951    2.2435 N.ar    1  UNL1       -0.2387
     33 C           0.0489    0.4082   -0.6334 C.ar    1  UNL1       -0.0493
     34 C           1.0751    1.1978   -0.1475 C.ar    1  UNL1       -0.0566
     35 C           5.1315    2.4089    1.2035 C.3     1  UNL1       -0.0001
     36 C           6.4077    2.2669    0.3956 C.3     1  UNL1       -0.0290
     37 H           6.4792   -1.7653   -1.0466 H       1  UNL1        0.1449
     38 H           7.1885   -1.1309   -2.5353 H       1  UNL1        0.1449
     39 H           7.9145    0.6941    0.2955 H       1  UNL1        0.0395
     40 H           6.4676   -1.0514    1.2796 H       1  UNL1        0.0285
     41 H           6.4621    0.4469    2.2616 H       1  UNL1        0.0285
     42 H           4.3144   -0.2232    2.2491 H       1  UNL1        0.0427
     43 H           4.3115   -0.7206    0.5161 H       1  UNL1        0.0427
     44 H           3.0364    1.4961    2.5948 H       1  UNL1        0.0476
     45 H           2.6284    2.7222    1.3707 H       1  UNL1        0.0476
     46 H           2.0106   -0.7718    2.4471 H       1  UNL1        0.0621
     47 H           0.2090   -2.0932    1.5373 H       1  UNL1        0.0625
     48 H          -1.9879   -0.4345   -2.1654 H       1  UNL1        0.1552
     49 H          -2.0301   -3.2988   -3.4935 H       1  UNL1        0.0637
     50 H          -3.8565   -4.6508   -4.2830 H       1  UNL1        0.0633
     51 H          -6.5718   -2.5595   -1.7022 H       1  UNL1        0.0640
     52 H          -6.7700   -1.1002   -0.3207 H       1  UNL1        0.1566
     53 H          -6.4214    1.9009   -0.6239 H       1  UNL1        0.0652
     54 H          -6.6494    3.8348    0.8793 H       1  UNL1        0.0634
     55 H          -5.9030    1.2287    4.1360 H       1  UNL1        0.0845
     56 H          -0.4918    0.7582   -1.5017 H       1  UNL1        0.0625
     57 H           1.3626    2.1349   -0.5826 H       1  UNL1        0.0621
     58 H           4.6786    3.3777    0.9358 H       1  UNL1        0.0427
     59 H           5.4271    2.4212    2.2769 H       1  UNL1        0.0427
     60 H           6.3103    2.7900   -0.5949 H       1  UNL1        0.0285
     61 H           7.2080    2.7918    0.9520 H       1  UNL1        0.0285
@<TRIPOS>BOND
     1     1     2   am
     2     2     3    2
     3     2     4    1
     4     4     5    1
     5     5     6    1
     6     6     7    1
     7     7     8    1
     8     8     9    1
     9     9    10   ar
    10    10    11   ar
    11    11    12   ar
    12    12    13    1
    13    13    14    2
    14    13    15   am
    15    15    16    1
    16    16    17   ar
    17    17    18   ar
    18    18    19   ar
    19    19    20    1
    20    19    21   ar
    21    21    22   ar
    22    22    23    1
    23    23    24    2
    24    23    25   am
    25    25    26    1
    26    26    27   ar
    27    27    28   ar
    28    28    29   ar
    29    29    30    1
    30    29    31   ar
    31    31    32   ar
    32    12    33   ar
    33    33    34   ar
    34     7    35    1
    35    35    36    1
    36    36     4    1
    37    34     9   ar
    38    22    16   ar
    39    32    26   ar
    40     1    37    1
    41     1    38    1
    42     4    39    1
    43     5    40    1
    44     5    41    1
    45     6    42    1
    46     6    43    1
    47     8    44    1
    48     8    45    1
    49    10    46    1
    50    11    47    1
    51    15    48    1
    52    17    49    1
    53    18    50    1
    54    21    51    1
    55    25    52    1
    56    27    53    1
    57    28    54    1
    58    31    55    1
    59    33    56    1
    60    34    57    1
    61    35    58    1
    62    35    59    1
    63    36    60    1
    64    36    61    1
