
     RDKit          3D

 61 64  0  0  0  0  0  0  0  0999 V2000
    6.7357   -0.9179   -1.6361 N   0  0  0  0  0  0  0  0  0  0  0  0
    6.4428    0.3775   -1.1509 C   0  0  0  0  0  0  0  0  0  0  0  0
    5.8461    1.1755   -1.9135 O   0  0  0  0  0  0  0  0  0  0  0  0
    6.8042    0.8353    0.2064 C   0  0  0  0  0  0  0  0  0  0  0  0
    6.1685    0.0008    1.2850 C   0  0  0  0  0  0  0  0  0  0  0  0
    4.6496    0.0472    1.2144 C   0  0  0  0  0  0  0  0  0  0  0  0
    4.1913    1.3793    0.8978 N   0  0  0  0  0  0  0  0  0  0  0  0
    2.9086    1.6526    1.4873 C   0  0  0  0  0  0  0  0  0  0  0  0
    1.8123    0.7981    0.9742 C   0  0  0  0  0  0  0  0  0  0  0  0
    1.4889   -0.3950    1.5751 C   0  0  0  0  0  0  0  0  0  0  0  0
    0.4571   -1.1544    1.0585 C   0  0  0  0  0  0  0  0  0  0  0  0
   -0.2897   -0.7915   -0.0437 C   0  0  0  0  0  0  0  0  0  0  0  0
   -1.3732   -1.6393   -0.5386 C   0  0  0  0  0  0  0  0  0  0  0  0
   -1.6070   -2.7159    0.0678 O   0  0  0  0  0  0  0  0  0  0  0  0
   -2.1724   -1.3250   -1.6528 N   0  0  0  0  0  0  0  0  0  0  0  0
   -3.2249   -2.1385   -2.1381 C   0  0  0  0  0  0  0  0  0  0  0  0
   -3.0163   -3.1229   -3.0902 C   0  0  0  0  0  0  0  0  0  0  0  0
   -4.0693   -3.8987   -3.5419 C   0  0  0  0  0  0  0  0  0  0  0  0
   -5.3263   -3.6754   -3.0291 C   0  0  0  0  0  0  0  0  0  0  0  0
   -6.6565   -4.6449   -3.5909 Cl  0  0  0  0  0  0  0  0  0  0  0  0
   -5.5761   -2.6910   -2.0669 C   0  0  0  0  0  0  0  0  0  0  0  0
   -4.4878   -1.9329   -1.6400 C   0  0  0  0  0  0  0  0  0  0  0  0
   -4.6725   -0.8916   -0.6443 C   0  0  0  0  0  0  0  0  0  0  0  0
   -3.6976   -0.1908   -0.2431 O   0  0  0  0  0  0  0  0  0  0  0  0
   -5.9213   -0.5669   -0.0422 N   0  0  0  0  0  0  0  0  0  0  0  0
   -6.0326    0.4797    0.9396 C   0  0  0  0  0  0  0  0  0  0  0  0
   -6.3036    1.7391    0.4397 C   0  0  0  0  0  0  0  0  0  0  0  0
   -6.4362    2.8429    1.2622 C   0  0  0  0  0  0  0  0  0  0  0  0
   -6.2860    2.6365    2.6152 C   0  0  0  0  0  0  0  0  0  0  0  0
   -6.4392    3.9912    3.7379 Cl  0  0  0  0  0  0  0  0  0  0  0  0
   -6.0162    1.3632    3.0716 C   0  0  0  0  0  0  0  0  0  0  0  0
   -5.8906    0.2951    2.2435 N   0  0  0  0  0  0  0  0  0  0  0  0
    0.0489    0.4082   -0.6334 C   0  0  0  0  0  0  0  0  0  0  0  0
    1.0751    1.1978   -0.1475 C   0  0  0  0  0  0  0  0  0  0  0  0
    5.1315    2.4089    1.2035 C   0  0  0  0  0  0  0  0  0  0  0  0
    6.4077    2.2669    0.3956 C   0  0  0  0  0  0  0  0  0  0  0  0
    6.4792   -1.7653   -1.0466 H   0  0  0  0  0  0  0  0  0  0  0  0
    7.1885   -1.1309   -2.5353 H   0  0  0  0  0  0  0  0  0  0  0  0
    7.9145    0.6941    0.2955 H   0  0  0  0  0  0  0  0  0  0  0  0
    6.4676   -1.0514    1.2796 H   0  0  0  0  0  0  0  0  0  0  0  0
    6.4621    0.4469    2.2616 H   0  0  0  0  0  0  0  0  0  0  0  0
    4.3144   -0.2232    2.2491 H   0  0  0  0  0  0  0  0  0  0  0  0
    4.3115   -0.7206    0.5161 H   0  0  0  0  0  0  0  0  0  0  0  0
    3.0364    1.4961    2.5948 H   0  0  0  0  0  0  0  0  0  0  0  0
    2.6284    2.7222    1.3707 H   0  0  0  0  0  0  0  0  0  0  0  0
    2.0106   -0.7718    2.4471 H   0  0  0  0  0  0  0  0  0  0  0  0
    0.2090   -2.0932    1.5373 H   0  0  0  0  0  0  0  0  0  0  0  0
   -1.9879   -0.4345   -2.1654 H   0  0  0  0  0  0  0  0  0  0  0  0
   -2.0301   -3.2988   -3.4935 H   0  0  0  0  0  0  0  0  0  0  0  0
   -3.8565   -4.6508   -4.2830 H   0  0  0  0  0  0  0  0  0  0  0  0
   -6.5718   -2.5595   -1.7022 H   0  0  0  0  0  0  0  0  0  0  0  0
   -6.7700   -1.1002   -0.3207 H   0  0  0  0  0  0  0  0  0  0  0  0
   -6.4214    1.9009   -0.6239 H   0  0  0  0  0  0  0  0  0  0  0  0
   -6.6494    3.8348    0.8793 H   0  0  0  0  0  0  0  0  0  0  0  0
   -5.9030    1.2287    4.1360 H   0  0  0  0  0  0  0  0  0  0  0  0
   -0.4918    0.7582   -1.5017 H   0  0  0  0  0  0  0  0  0  0  0  0
    1.3626    2.1349   -0.5826 H   0  0  0  0  0  0  0  0  0  0  0  0
    4.6786    3.3777    0.9358 H   0  0  0  0  0  0  0  0  0  0  0  0
    5.4271    2.4212    2.2769 H   0  0  0  0  0  0  0  0  0  0  0  0
    6.3103    2.7900   -0.5949 H   0  0  0  0  0  0  0  0  0  0  0  0
    7.2080    2.7918    0.9520 H   0  0  0  0  0  0  0  0  0  0  0  0
  1  2  1  0
  2  3  2  0
  2  4  1  0
  4  5  1  0
  5  6  1  0
  6  7  1  0
  7  8  1  0
  8  9  1  0
  9 10  2  0
 10 11  1  0
 11 12  2  0
 12 13  1  0
 13 14  2  0
 13 15  1  0
 15 16  1  0
 16 17  2  0
 17 18  1  0
 18 19  2  0
 19 20  1  0
 19 21  1  0
 21 22  2  0
 22 23  1  0
 23 24  2  0
 23 25  1  0
 25 26  1  0
 26 27  2  0
 27 28  1  0
 28 29  2  0
 29 30  1  0
 29 31  1  0
 31 32  2  0
 12 33  1  0
 33 34  2  0
  7 35  1  0
 35 36  1  0
 36  4  1  0
 34  9  1  0
 22 16  1  0
 32 26  1  0
  1 37  1  0
  1 38  1  0
  4 39  1  0
  5 40  1  0
  5 41  1  0
  6 42  1  0
  6 43  1  0
  8 44  1  0
  8 45  1  0
 10 46  1  0
 11 47  1  0
 15 48  1  0
 17 49  1  0
 18 50  1  0
 21 51  1  0
 25 52  1  0
 27 53  1  0
 28 54  1  0
 31 55  1  0
 33 56  1  0
 34 57  1  0
 35 58  1  0
 35 59  1  0
 36 60  1  0
 36 61  1  0
M  END
$$$$
