
     RDKit          3D

 50 52  0  0  0  0  0  0  0  0999 V2000
    2.8065    2.3480   -0.7561 C   0  0  0  0  0  0  0  0  0  0  0  0
    2.6340    0.8874   -1.0823 C   0  0  1  0  0  0  0  0  0  0  0  0
    3.6642    0.0962   -0.3886 C   0  0  0  0  0  0  0  0  0  0  0  0
    4.7172    0.6859    0.2736 C   0  0  0  0  0  0  0  0  0  0  0  0
    5.6611   -0.0863    0.9110 C   0  0  0  0  0  0  0  0  0  0  0  0
    5.5425   -1.4492    0.8802 C   0  0  0  0  0  0  0  0  0  0  0  0
    6.8141   -2.5430    1.7408 Br  0  0  0  0  0  0  0  0  0  0  0  0
    4.4773   -2.0577    0.2108 C   0  0  0  0  0  0  0  0  0  0  0  0
    3.5281   -1.2948   -0.4298 C   0  0  0  0  0  0  0  0  0  0  0  0
    1.3548    0.3669   -0.7691 N   0  0  0  0  0  0  0  0  0  0  0  0
    0.5075   -0.1898   -1.8042 C   0  0  0  0  0  0  0  0  0  0  0  0
   -0.8623    0.4273   -1.6074 C   0  0  0  0  0  0  0  0  0  0  0  0
   -1.4331   -0.0248   -0.2801 C   0  0  2  0  0  0  0  0  0  0  0  0
   -2.1005   -1.3551   -0.5323 C   0  0  0  0  0  0  0  0  0  0  0  0
   -2.7268   -1.9571    0.6739 C   0  0  0  0  0  0  0  0  0  0  0  0
   -3.3434   -3.2450    0.3094 C   0  0  0  0  0  0  0  0  0  0  0  0
   -4.0050   -4.0088    1.2983 N   0  0  0  0  0  0  0  0  0  0  0  0
   -3.2825   -3.6598   -0.8643 O   0  0  0  0  0  0  0  0  0  0  0  0
   -2.3848    1.0270    0.1560 C   0  0  0  0  0  0  0  0  0  0  0  0
   -1.8900    2.0623    0.9236 C   0  0  0  0  0  0  0  0  0  0  0  0
   -2.6734    3.0931    1.3863 C   0  0  0  0  0  0  0  0  0  0  0  0
   -4.0292    3.0900    1.0639 C   0  0  0  0  0  0  0  0  0  0  0  0
   -4.7832    4.1067    1.5247 F   0  0  0  0  0  0  0  0  0  0  0  0
   -4.5323    2.0606    0.2980 C   0  0  0  0  0  0  0  0  0  0  0  0
   -3.7238    1.0206   -0.1646 C   0  0  0  0  0  0  0  0  0  0  0  0
   -0.4385   -0.1315    0.7346 O   0  0  0  0  0  0  0  0  0  0  0  0
    0.8417    0.3646    0.5568 C   0  0  0  0  0  0  0  0  0  0  0  0
    1.5718    0.8050    1.4601 O   0  0  0  0  0  0  0  0  0  0  0  0
    2.0174    2.9809   -1.2156 H   0  0  0  0  0  0  0  0  0  0  0  0
    3.7605    2.6806   -1.2131 H   0  0  0  0  0  0  0  0  0  0  0  0
    2.8927    2.4961    0.3318 H   0  0  0  0  0  0  0  0  0  0  0  0
    2.8238    0.7820   -2.1834 H   0  0  0  0  0  0  0  0  0  0  0  0
    4.7896    1.7668    0.2836 H   0  0  0  0  0  0  0  0  0  0  0  0
    6.4811    0.3911    1.4260 H   0  0  0  0  0  0  0  0  0  0  0  0
    4.4215   -3.1366    0.2111 H   0  0  0  0  0  0  0  0  0  0  0  0
    2.7071   -1.7437   -0.9466 H   0  0  0  0  0  0  0  0  0  0  0  0
    0.4462   -1.2911   -1.6020 H   0  0  0  0  0  0  0  0  0  0  0  0
    0.9026    0.0129   -2.8188 H   0  0  0  0  0  0  0  0  0  0  0  0
   -1.4900    0.0756   -2.4431 H   0  0  0  0  0  0  0  0  0  0  0  0
   -0.7173    1.5252   -1.6225 H   0  0  0  0  0  0  0  0  0  0  0  0
   -1.3115   -2.0408   -0.9001 H   0  0  0  0  0  0  0  0  0  0  0  0
   -2.8369   -1.2099   -1.3454 H   0  0  0  0  0  0  0  0  0  0  0  0
   -3.5271   -1.3275    1.1136 H   0  0  0  0  0  0  0  0  0  0  0  0
   -1.9240   -2.1277    1.4466 H   0  0  0  0  0  0  0  0  0  0  0  0
   -3.5645   -4.8369    1.7601 H   0  0  0  0  0  0  0  0  0  0  0  0
   -4.9856   -3.7476    1.5962 H   0  0  0  0  0  0  0  0  0  0  0  0
   -0.8319    2.1133    1.2057 H   0  0  0  0  0  0  0  0  0  0  0  0
   -2.2406    3.8893    1.9890 H   0  0  0  0  0  0  0  0  0  0  0  0
   -5.5867    2.0786    0.0600 H   0  0  0  0  0  0  0  0  0  0  0  0
   -4.1384    0.2305   -0.7592 H   0  0  0  0  0  0  0  0  0  0  0  0
  1  2  1  0
  2  3  1  0
  3  4  2  0
  4  5  1  0
  5  6  2  0
  6  7  1  0
  6  8  1  0
  8  9  2  0
  2 10  1  0
 10 11  1  0
 11 12  1  0
 12 13  1  0
 13 14  1  6
 14 15  1  0
 15 16  1  0
 16 17  1  0
 16 18  2  0
 13 19  1  0
 19 20  2  0
 20 21  1  0
 21 22  2  0
 22 23  1  0
 22 24  1  0
 24 25  2  0
 13 26  1  0
 26 27  1  0
 27 28  2  0
  9  3  1  0
 27 10  1  0
 25 19  1  0
  1 29  1  0
  1 30  1  0
  1 31  1  0
  2 32  1  6
  4 33  1  0
  5 34  1  0
  8 35  1  0
  9 36  1  0
 11 37  1  0
 11 38  1  0
 12 39  1  0
 12 40  1  0
 14 41  1  0
 14 42  1  0
 15 43  1  0
 15 44  1  0
 17 45  1  0
 17 46  1  0
 20 47  1  0
 21 48  1  0
 24 49  1  0
 25 50  1  0
M  END
$$$$
