@<TRIPOS>MOLECULE
*****
 50 52 0 0 0
SMALL
GASTEIGER

@<TRIPOS>ATOM
      1 C           2.8065    2.3480   -0.7561 C.3     1  UNL1       -0.0421
      2 C           2.6340    0.8874   -1.0823 C.3     1  UNL1        0.0515
      3 C           3.6642    0.0962   -0.3886 C.ar    1  UNL1       -0.0271
      4 C           4.7172    0.6859    0.2736 C.ar    1  UNL1       -0.0558
      5 C           5.6611   -0.0863    0.9110 C.ar    1  UNL1       -0.0474
      6 C           5.5425   -1.4492    0.8802 C.ar    1  UNL1        0.0179
      7 BR          6.8141   -2.5430    1.7408 Br      1  UNL1       -0.0503
      8 C           4.4773   -2.0577    0.2108 C.ar    1  UNL1       -0.0474
      9 C           3.5281   -1.2948   -0.4298 C.ar    1  UNL1       -0.0558
     10 N           1.3548    0.3669   -0.7691 N.am    1  UNL1       -0.2605
     11 C           0.5075   -0.1898   -1.8042 C.3     1  UNL1        0.0224
     12 C          -0.8623    0.4273   -1.6074 C.3     1  UNL1        0.0075
     13 C          -1.4331   -0.0248   -0.2801 C.3     1  UNL1        0.1418
     14 C          -2.1005   -1.3551   -0.5323 C.3     1  UNL1       -0.0002
     15 C          -2.7268   -1.9571    0.6739 C.3     1  UNL1        0.0277
     16 C          -3.3434   -3.2450    0.3094 C.2     1  UNL1        0.2106
     17 N          -4.0050   -4.0088    1.2983 N.am    1  UNL1       -0.3293
     18 O          -3.2825   -3.6598   -0.8643 O.2     1  UNL1       -0.2760
     19 C          -2.3848    1.0270    0.1560 C.ar    1  UNL1       -0.0039
     20 C          -1.8900    2.0623    0.9236 C.ar    1  UNL1       -0.0521
     21 C          -2.6734    3.0931    1.3863 C.ar    1  UNL1       -0.0261
     22 C          -4.0292    3.0900    1.0639 C.ar    1  UNL1        0.1234
     23 F          -4.7832    4.1067    1.5247 F       1  UNL1       -0.2055
     24 C          -4.5323    2.0606    0.2980 C.ar    1  UNL1       -0.0261
     25 C          -3.7238    1.0206   -0.1646 C.ar    1  UNL1       -0.0521
     26 O          -0.4385   -0.1315    0.7346 O.3     1  UNL1       -0.4388
     27 C           0.8417    0.3646    0.5568 C.2     1  UNL1        0.4042
     28 O           1.5718    0.8050    1.4601 O.2     1  UNL1       -0.2262
     29 H           2.0174    2.9809   -1.2156 H       1  UNL1        0.0251
     30 H           3.7605    2.6806   -1.2131 H       1  UNL1        0.0251
     31 H           2.8927    2.4961    0.3318 H       1  UNL1        0.0251
     32 H           2.8238    0.7820   -2.1834 H       1  UNL1        0.0549
     33 H           4.7896    1.7668    0.2836 H       1  UNL1        0.0621
     34 H           6.4811    0.3911    1.4260 H       1  UNL1        0.0629
     35 H           4.4215   -3.1366    0.2111 H       1  UNL1        0.0629
     36 H           2.7071   -1.7437   -0.9466 H       1  UNL1        0.0621
     37 H           0.4462   -1.2911   -1.6020 H       1  UNL1        0.0467
     38 H           0.9026    0.0129   -2.8188 H       1  UNL1        0.0467
     39 H          -1.4900    0.0756   -2.4431 H       1  UNL1        0.0322
     40 H          -0.7173    1.5252   -1.6225 H       1  UNL1        0.0322
     41 H          -1.3115   -2.0408   -0.9001 H       1  UNL1        0.0312
     42 H          -2.8369   -1.2099   -1.3454 H       1  UNL1        0.0312
     43 H          -3.5271   -1.3275    1.1136 H       1  UNL1        0.0360
     44 H          -1.9240   -2.1277    1.4466 H       1  UNL1        0.0360
     45 H          -3.5645   -4.8369    1.7601 H       1  UNL1        0.1449
     46 H          -4.9856   -3.7476    1.5962 H       1  UNL1        0.1449
     47 H          -0.8319    2.1133    1.2057 H       1  UNL1        0.0622
     48 H          -2.2406    3.8893    1.9890 H       1  UNL1        0.0646
     49 H          -5.5867    2.0786    0.0600 H       1  UNL1        0.0646
     50 H          -4.1384    0.2305   -0.7592 H       1  UNL1        0.0622
@<TRIPOS>BOND
     1     1     2    1
     2     2     3    1
     3     3     4   ar
     4     4     5   ar
     5     5     6   ar
     6     6     7    1
     7     6     8   ar
     8     8     9   ar
     9     2    10    1
    10    10    11    1
    11    11    12    1
    12    12    13    1
    13    13    14    1
    14    14    15    1
    15    15    16    1
    16    16    17   am
    17    16    18    2
    18    13    19    1
    19    19    20   ar
    20    20    21   ar
    21    21    22   ar
    22    22    23    1
    23    22    24   ar
    24    24    25   ar
    25    13    26    1
    26    26    27    1
    27    27    28    2
    28     9     3   ar
    29    27    10   am
    30    25    19   ar
    31     1    29    1
    32     1    30    1
    33     1    31    1
    34     2    32    1
    35     4    33    1
    36     5    34    1
    37     8    35    1
    38     9    36    1
    39    11    37    1
    40    11    38    1
    41    12    39    1
    42    12    40    1
    43    14    41    1
    44    14    42    1
    45    15    43    1
    46    15    44    1
    47    17    45    1
    48    17    46    1
    49    20    47    1
    50    21    48    1
    51    24    49    1
    52    25    50    1
