@<TRIPOS>MOLECULE
*****
 49 51 0 0 0
SMALL
GASTEIGER

@<TRIPOS>ATOM
      1 C          -3.8957    0.5436    0.4851 C.3     1  UNL1       -0.0121
      2 N          -4.3265   -0.6583   -0.1339 N.3     1  UNL1       -0.2923
      3 C          -3.6525   -1.0346   -1.3361 C.3     1  UNL1        0.0334
      4 C          -2.2306   -1.4532   -1.1576 C.3     1  UNL1        0.1023
      5 O          -1.4266   -0.4091   -0.5968 O.3     1  UNL1       -0.4900
      6 C          -0.0583   -0.6525   -0.3738 C.ar    1  UNL1        0.1314
      7 C           0.5202   -1.8495   -0.6740 C.ar    1  UNL1       -0.0187
      8 C           1.8691   -2.0561   -0.4415 C.ar    1  UNL1       -0.0505
      9 C           2.6751   -1.0738    0.0959 C.ar    1  UNL1       -0.0169
     10 C           4.0937   -1.2537    0.3517 C.ar    1  UNL1       -0.0165
     11 C           4.7649   -0.6389    1.3648 C.ar    1  UNL1       -0.0539
     12 C           6.1175   -0.8152    1.5951 C.ar    1  UNL1       -0.0598
     13 C           6.8169   -1.6554    0.7570 C.ar    1  UNL1       -0.0434
     14 C           6.1458   -2.2872   -0.2770 C.ar    1  UNL1        0.0416
     15 CL          7.0564   -3.3542   -1.3376 Cl      1  UNL1       -0.0835
     16 C           4.7995   -2.1082   -0.5031 C.ar    1  UNL1       -0.0357
     17 C           2.0729    0.1384    0.3959 C.ar    1  UNL1       -0.0396
     18 C           0.7205    0.3556    0.1668 C.ar    1  UNL1        0.0649
     19 C           0.1160    1.6378    0.4935 C.2     1  UNL1        0.2032
     20 O          -0.9722    1.6858    1.1086 O.2     1  UNL1       -0.2860
     21 C           0.7695    2.8518    0.1062 C.ar    1  UNL1        0.0595
     22 C           0.3701    4.1637    0.2095 C.ar    1  UNL1       -0.0438
     23 C           1.1731    5.1398   -0.2171 C.ar    1  UNL1       -0.0540
     24 C           2.4128    4.8027   -0.7651 C.ar    1  UNL1       -0.0236
     25 S           2.3886    2.9948   -0.6443 S.2     1  UNL1       -0.0934
     26 C          -5.7416   -0.7771   -0.3114 C.3     1  UNL1        0.0966
     27 C          -6.4848   -0.9331    0.9381 C.2     1  UNL1        0.3189
     28 O          -5.8866   -0.9958    2.0301 O.2     1  UNL1       -0.2496
     29 O          -7.8629   -1.0122    0.9197 O.3     1  UNL1       -0.4797
     30 H          -3.3309    0.3115    1.4089 H       1  UNL1        0.0391
     31 H          -4.7048    1.2423    0.7851 H       1  UNL1        0.0391
     32 H          -3.2800    1.1110   -0.2479 H       1  UNL1        0.0391
     33 H          -3.6547   -0.1371   -2.0231 H       1  UNL1        0.0460
     34 H          -4.2553   -1.8084   -1.8606 H       1  UNL1        0.0460
     35 H          -2.1167   -2.3728   -0.5472 H       1  UNL1        0.0709
     36 H          -1.7948   -1.6888   -2.1570 H       1  UNL1        0.0709
     37 H          -0.1098   -2.6284   -1.0997 H       1  UNL1        0.0654
     38 H           2.2784   -3.0055   -0.6920 H       1  UNL1        0.0625
     39 H           4.2285    0.0168    2.0202 H       1  UNL1        0.0624
     40 H           6.5878   -0.3003    2.4117 H       1  UNL1        0.0618
     41 H           7.8802   -1.8304    0.8938 H       1  UNL1        0.0632
     42 H           4.2748   -2.5958   -1.3022 H       1  UNL1        0.0638
     43 H           2.6470    0.9263    0.8137 H       1  UNL1        0.0632
     44 H          -0.6572    4.3319    0.6715 H       1  UNL1        0.0630
     45 H           0.8764    6.2357   -0.1472 H       1  UNL1        0.0623
     46 H           3.2238    5.4234   -1.1751 H       1  UNL1        0.0693
     47 H          -5.9218   -1.6157   -1.0387 H       1  UNL1        0.0541
     48 H          -6.0789    0.1478   -0.8639 H       1  UNL1        0.0541
     49 H          -8.4364   -1.0594    1.7441 H       1  UNL1        0.2951
@<TRIPOS>BOND
     1     1     2    1
     2     2     3    1
     3     3     4    1
     4     4     5    1
     5     5     6    1
     6     6     7   ar
     7     7     8   ar
     8     8     9   ar
     9     9    10    1
    10    10    11   ar
    11    11    12   ar
    12    12    13   ar
    13    13    14   ar
    14    14    15    1
    15    14    16   ar
    16     9    17   ar
    17    17    18   ar
    18    18    19    1
    19    19    20    2
    20    19    21    1
    21    21    22   ar
    22    22    23   ar
    23    23    24   ar
    24    24    25   ar
    25     2    26    1
    26    26    27    1
    27    27    28    2
    28    27    29    1
    29    18     6   ar
    30    25    21   ar
    31    16    10   ar
    32     1    30    1
    33     1    31    1
    34     1    32    1
    35     3    33    1
    36     3    34    1
    37     4    35    1
    38     4    36    1
    39     7    37    1
    40     8    38    1
    41    11    39    1
    42    12    40    1
    43    13    41    1
    44    16    42    1
    45    17    43    1
    46    22    44    1
    47    23    45    1
    48    24    46    1
    49    26    47    1
    50    26    48    1
    51    29    49    1
