@<TRIPOS>MOLECULE
*****
 45 47 0 0 0
SMALL
GASTEIGER

@<TRIPOS>ATOM
      1 C           7.5486   -0.0478    0.6862 C.3     1  UNL1        0.0788
      2 O           6.2879    0.5646    0.5356 O.3     1  UNL1       -0.4951
      3 C           5.1420   -0.1570    0.2505 C.ar    1  UNL1        0.1207
      4 C           3.9308    0.5056    0.1138 C.ar    1  UNL1       -0.0122
      5 C           2.7442   -0.1498   -0.1705 C.ar    1  UNL1       -0.0144
      6 C           2.7808   -1.5149   -0.3214 C.ar    1  UNL1       -0.0538
      7 C           3.9690   -2.2408   -0.1961 C.ar    1  UNL1       -0.0577
      8 C           5.1316   -1.5201    0.0915 C.ar    1  UNL1       -0.0199
      9 C           1.5212    0.6394   -0.2965 C.ar    1  UNL1       -0.0174
     10 C           0.3019    0.0982    0.0566 C.ar    1  UNL1       -0.0472
     11 C          -0.8671    0.8212   -0.0528 C.ar    1  UNL1       -0.0036
     12 C          -0.7822    2.1230   -0.5334 C.ar    1  UNL1       -0.0549
     13 C           0.4270    2.6911   -0.8950 C.ar    1  UNL1       -0.0608
     14 C           1.5939    1.9408   -0.7754 C.ar    1  UNL1       -0.0540
     15 C          -2.2263    0.3557    0.2906 C.3     1  UNL1        0.1568
     16 C          -2.4629    0.7046    1.7652 C.3     1  UNL1       -0.0201
     17 C          -2.3551   -1.1365    0.1954 C.3     1  UNL1        0.0831
     18 C          -3.7470   -1.5056    0.6327 C.2     1  UNL1        0.2814
     19 O          -4.2180   -2.2949    1.5210 O.2     1  UNL1       -0.2571
     20 N          -4.7458   -0.8010   -0.1336 N.am    1  UNL1       -0.1652
     21 C          -6.0892   -1.3392   -0.3972 C.3     1  UNL1        0.0571
     22 C          -4.3824    0.4932   -0.6530 C.2     1  UNL1        0.3721
     23 N          -5.3572    1.2231   -1.4241 N.pl3   1  UNL1       -0.2512
     24 N          -3.2331    1.0461   -0.4726 N.2     1  UNL1       -0.1051
     25 H           8.3771    0.6837    0.6276 H       1  UNL1        0.0660
     26 H           7.6643   -0.8506   -0.0909 H       1  UNL1        0.0660
     27 H           7.5716   -0.5018    1.7133 H       1  UNL1        0.0660
     28 H           3.9288    1.5658    0.2355 H       1  UNL1        0.0660
     29 H           1.8559   -2.0287   -0.5436 H       1  UNL1        0.0624
     30 H           4.0063   -3.3028   -0.3123 H       1  UNL1        0.0619
     31 H           6.0603   -2.0923    0.1888 H       1  UNL1        0.0654
     32 H           0.1890   -0.8953    0.4298 H       1  UNL1        0.0628
     33 H          -1.6243    2.7893   -0.6653 H       1  UNL1        0.0622
     34 H           0.5045    3.7178   -1.2757 H       1  UNL1        0.0618
     35 H           2.5439    2.3750   -1.0548 H       1  UNL1        0.0624
     36 H          -1.6236    0.3723    2.3919 H       1  UNL1        0.0270
     37 H          -2.4636    1.8287    1.7746 H       1  UNL1        0.0270
     38 H          -3.4547    0.3618    2.1009 H       1  UNL1        0.0270
     39 H          -1.6628   -1.5598    0.9781 H       1  UNL1        0.0415
     40 H          -2.1787   -1.5621   -0.7930 H       1  UNL1        0.0415
     41 H          -6.2711   -1.4793   -1.4831 H       1  UNL1        0.0602
     42 H          -6.8157   -0.6116    0.0505 H       1  UNL1        0.0602
     43 H          -6.1812   -2.2894    0.1325 H       1  UNL1        0.0602
     44 H          -5.6071    2.1286   -0.9703 H       1  UNL1        0.2412
     45 H          -5.7315    0.8515   -2.3112 H       1  UNL1        0.2412
@<TRIPOS>BOND
     1     1     2    1
     2     2     3    1
     3     3     4   ar
     4     4     5   ar
     5     5     6   ar
     6     6     7   ar
     7     7     8   ar
     8     5     9    1
     9     9    10   ar
    10    10    11   ar
    11    11    12   ar
    12    12    13   ar
    13    13    14   ar
    14    11    15    1
    15    15    16    1
    16    15    17    1
    17    17    18    1
    18    18    19    2
    19    18    20   am
    20    20    21    1
    21    20    22    1
    22    22    23    1
    23    22    24    2
    24     8     3   ar
    25    14     9   ar
    26    24    15    1
    27     1    25    1
    28     1    26    1
    29     1    27    1
    30     4    28    1
    31     6    29    1
    32     7    30    1
    33     8    31    1
    34    10    32    1
    35    12    33    1
    36    13    34    1
    37    14    35    1
    38    16    36    1
    39    16    37    1
    40    16    38    1
    41    17    39    1
    42    17    40    1
    43    21    41    1
    44    21    42    1
    45    21    43    1
    46    23    44    1
    47    23    45    1
