@<TRIPOS>MOLECULE
*****
 80 84 0 0 0
SMALL
GASTEIGER

@<TRIPOS>ATOM
      1 C           2.3660   -4.6230   -2.1358 C.3     1  UNL1        0.0789
      2 O           1.6778   -3.7021   -1.2996 O.3     1  UNL1       -0.4932
      3 C           2.4245   -2.7116   -0.6826 C.ar    1  UNL1        0.1415
      4 C           3.7962   -2.6345   -0.8845 C.ar    1  UNL1       -0.0146
      5 C           4.4758   -1.6239   -0.2398 C.ar    1  UNL1       -0.0394
      6 C           3.8052   -0.7253    0.5742 C.ar    1  UNL1       -0.0410
      7 C           2.4462   -0.8243    0.7578 C.ar    1  UNL1       -0.0334
      8 C           1.7345   -1.8134    0.1372 C.ar    1  UNL1        0.0760
      9 N           0.3516   -1.9619    0.3062 N.pl3   1  UNL1       -0.2806
     10 C          -0.5283   -1.1894    1.0886 C.ar    1  UNL1        0.2213
     11 N          -0.1930   -0.1111    1.7823 N.ar    1  UNL1       -0.2211
     12 C          -1.0104    0.6214    2.5447 C.ar    1  UNL1        0.0528
     13 C          -2.3554    0.2369    2.6387 C.ar    1  UNL1        0.0991
     14 CL         -3.5298    1.0885    3.5810 Cl      1  UNL1       -0.0784
     15 C          -2.7207   -0.8720    1.9315 C.ar    1  UNL1        0.1466
     16 N          -4.0588   -1.3464    1.9905 N.pl3   1  UNL1       -0.2953
     17 C          -5.0724   -0.7185    1.2258 C.ar    1  UNL1        0.0748
     18 C          -4.7727    0.3525    0.4270 C.ar    1  UNL1       -0.0352
     19 C          -5.7264    1.0094   -0.3337 C.ar    1  UNL1       -0.0387
     20 C          -7.0384    0.5881   -0.3039 C.ar    1  UNL1        0.0334
     21 N          -8.0504    1.2516   -1.0515 N.pl3   1  UNL1       -0.3254
     22 C          -9.3319    0.6468   -1.3579 C.3     1  UNL1        0.0357
     23 C         -10.3931    1.5503   -0.7953 C.3     1  UNL1        0.0634
     24 O          -9.8294    2.6436   -0.1098 O.3     1  UNL1       -0.3767
     25 C          -9.1117    3.3893   -1.0624 C.3     1  UNL1        0.0634
     26 C          -7.8844    2.6156   -1.5557 C.3     1  UNL1        0.0357
     27 C          -7.3373   -0.5011    0.5088 C.ar    1  UNL1        0.0029
     28 C          -6.3960   -1.1567    1.2652 C.ar    1  UNL1        0.1429
     29 O          -6.6610   -2.2463    2.0858 O.3     1  UNL1       -0.4932
     30 C          -7.9189   -2.8309    2.2563 C.3     1  UNL1        0.0789
     31 N          -1.8420   -1.5550    1.1872 N.ar    1  UNL1       -0.1977
     32 C           4.4477    0.4376    1.2937 C.3     1  UNL1       -0.0145
     33 C           5.0631    1.2557    0.2209 C.3     1  UNL1        0.0034
     34 N           6.2491    0.8711   -0.4025 N.3     1  UNL1       -0.2934
     35 C           7.4066    1.5994    0.0837 C.3     1  UNL1        0.0759
     36 C           8.5275    1.4759   -0.8505 C.2     1  UNL1        0.2292
     37 O           8.4745    0.8758   -1.9513 O.2     1  UNL1       -0.2742
     38 N           9.8163    2.0544   -0.5610 N.am    1  UNL1       -0.3065
     39 C           9.9539    2.7718    0.6820 C.3     1  UNL1        0.0029
     40 C          10.9463    1.9372   -1.4456 C.3     1  UNL1        0.0029
     41 C           6.5025   -0.3849   -0.9104 C.3     1  UNL1        0.0034
     42 C           5.9138   -1.6503   -0.4684 C.3     1  UNL1       -0.0145
     43 H           1.7051   -5.4134   -2.5301 H       1  UNL1        0.0660
     44 H           3.1932   -5.1288   -1.6079 H       1  UNL1        0.0660
     45 H           2.7839   -4.0849   -3.0051 H       1  UNL1        0.0660
     46 H           4.2930   -3.3469   -1.5247 H       1  UNL1        0.0657
     47 H           1.9878   -0.0952    1.3998 H       1  UNL1        0.0640
     48 H          -0.1371   -2.7740   -0.2282 H       1  UNL1        0.1551
     49 H          -0.7298    1.4969    3.1055 H       1  UNL1        0.0847
     50 H          -4.2520   -2.1627    2.6062 H       1  UNL1        0.1537
     51 H          -3.7477    0.7109    0.3812 H       1  UNL1        0.0638
     52 H          -5.4378    1.8567   -0.9606 H       1  UNL1        0.0637
     53 H          -9.4306   -0.3948   -1.0627 H       1  UNL1        0.0486
     54 H          -9.3979    0.7053   -2.4899 H       1  UNL1        0.0486
     55 H         -11.1070    1.0330   -0.1406 H       1  UNL1        0.0575
     56 H         -10.9865    2.0285   -1.6298 H       1  UNL1        0.0575
     57 H          -9.8176    3.6244   -1.8783 H       1  UNL1        0.0575
     58 H          -8.7728    4.3098   -0.5403 H       1  UNL1        0.0575
     59 H          -7.9531    2.6033   -2.6637 H       1  UNL1        0.0486
     60 H          -6.9581    3.1002   -1.2183 H       1  UNL1        0.0486
     61 H          -8.3553   -0.8381    0.5470 H       1  UNL1        0.0673
     62 H          -8.3638   -2.4632    3.2196 H       1  UNL1        0.0660
     63 H          -8.6500   -2.6115    1.4617 H       1  UNL1        0.0660
     64 H          -7.8545   -3.9565    2.3075 H       1  UNL1        0.0660
     65 H           3.6310    1.0436    1.7460 H       1  UNL1        0.0326
     66 H           5.1334    0.0241    2.0293 H       1  UNL1        0.0326
     67 H           5.1794    2.2943    0.6168 H       1  UNL1        0.0430
     68 H           4.2674    1.3681   -0.5779 H       1  UNL1        0.0430
     69 H           7.1482    2.6964    0.1293 H       1  UNL1        0.0522
     70 H           7.7006    1.2573    1.1102 H       1  UNL1        0.0522
     71 H           9.3640    3.7162    0.7047 H       1  UNL1        0.0428
     72 H          11.0229    2.9665    0.8724 H       1  UNL1        0.0428
     73 H           9.5175    2.1134    1.4706 H       1  UNL1        0.0428
     74 H          10.6164    1.6858   -2.4776 H       1  UNL1        0.0428
     75 H          11.5160    2.8872   -1.4274 H       1  UNL1        0.0428
     76 H          11.5739    1.0893   -1.0395 H       1  UNL1        0.0428
     77 H           6.4967   -0.3568   -2.0318 H       1  UNL1        0.0430
     78 H           7.6499   -0.5692   -0.7029 H       1  UNL1        0.0430
     79 H           6.1829   -2.4629   -1.2152 H       1  UNL1        0.0326
     80 H           6.3716   -2.0428    0.4904 H       1  UNL1        0.0326
@<TRIPOS>BOND
     1     1     2    1
     2     2     3    1
     3     3     4   ar
     4     4     5   ar
     5     5     6   ar
     6     6     7   ar
     7     7     8   ar
     8     8     9    1
     9     9    10    1
    10    10    11   ar
    11    11    12   ar
    12    12    13   ar
    13    13    14    1
    14    13    15   ar
    15    15    16    1
    16    16    17    1
    17    17    18   ar
    18    18    19   ar
    19    19    20   ar
    20    20    21    1
    21    21    22    1
    22    22    23    1
    23    23    24    1
    24    24    25    1
    25    25    26    1
    26    20    27   ar
    27    27    28   ar
    28    28    29    1
    29    29    30    1
    30    15    31   ar
    31     6    32    1
    32    32    33    1
    33    33    34    1
    34    34    35    1
    35    35    36    1
    36    36    37    2
    37    36    38   am
    38    38    39    1
    39    38    40    1
    40    34    41    1
    41    41    42    1
    42     8     3   ar
    43    31    10   ar
    44    42     5    1
    45    28    17   ar
    46    26    21    1
    47     1    43    1
    48     1    44    1
    49     1    45    1
    50     4    46    1
    51     7    47    1
    52     9    48    1
    53    12    49    1
    54    16    50    1
    55    18    51    1
    56    19    52    1
    57    22    53    1
    58    22    54    1
    59    23    55    1
    60    23    56    1
    61    25    57    1
    62    25    58    1
    63    26    59    1
    64    26    60    1
    65    27    61    1
    66    30    62    1
    67    30    63    1
    68    30    64    1
    69    32    65    1
    70    32    66    1
    71    33    67    1
    72    33    68    1
    73    35    69    1
    74    35    70    1
    75    39    71    1
    76    39    72    1
    77    39    73    1
    78    40    74    1
    79    40    75    1
    80    40    76    1
    81    41    77    1
    82    41    78    1
    83    42    79    1
    84    42    80    1
