
     RDKit          3D

 80 84  0  0  0  0  0  0  0  0999 V2000
    2.3660   -4.6230   -2.1358 C   0  0  0  0  0  0  0  0  0  0  0  0
    1.6778   -3.7021   -1.2996 O   0  0  0  0  0  0  0  0  0  0  0  0
    2.4245   -2.7116   -0.6826 C   0  0  0  0  0  0  0  0  0  0  0  0
    3.7962   -2.6345   -0.8845 C   0  0  0  0  0  0  0  0  0  0  0  0
    4.4758   -1.6239   -0.2398 C   0  0  0  0  0  0  0  0  0  0  0  0
    3.8052   -0.7253    0.5742 C   0  0  0  0  0  0  0  0  0  0  0  0
    2.4462   -0.8243    0.7578 C   0  0  0  0  0  0  0  0  0  0  0  0
    1.7345   -1.8134    0.1372 C   0  0  0  0  0  0  0  0  0  0  0  0
    0.3516   -1.9619    0.3062 N   0  0  0  0  0  0  0  0  0  0  0  0
   -0.5283   -1.1894    1.0886 C   0  0  0  0  0  0  0  0  0  0  0  0
   -0.1930   -0.1111    1.7823 N   0  0  0  0  0  0  0  0  0  0  0  0
   -1.0104    0.6214    2.5447 C   0  0  0  0  0  0  0  0  0  0  0  0
   -2.3554    0.2369    2.6387 C   0  0  0  0  0  0  0  0  0  0  0  0
   -3.5298    1.0885    3.5810 Cl  0  0  0  0  0  0  0  0  0  0  0  0
   -2.7207   -0.8720    1.9315 C   0  0  0  0  0  0  0  0  0  0  0  0
   -4.0588   -1.3464    1.9905 N   0  0  0  0  0  0  0  0  0  0  0  0
   -5.0724   -0.7185    1.2258 C   0  0  0  0  0  0  0  0  0  0  0  0
   -4.7727    0.3525    0.4270 C   0  0  0  0  0  0  0  0  0  0  0  0
   -5.7264    1.0094   -0.3337 C   0  0  0  0  0  0  0  0  0  0  0  0
   -7.0384    0.5881   -0.3039 C   0  0  0  0  0  0  0  0  0  0  0  0
   -8.0504    1.2516   -1.0515 N   0  0  0  0  0  0  0  0  0  0  0  0
   -9.3319    0.6468   -1.3579 C   0  0  0  0  0  0  0  0  0  0  0  0
  -10.3931    1.5503   -0.7953 C   0  0  0  0  0  0  0  0  0  0  0  0
   -9.8294    2.6436   -0.1098 O   0  0  0  0  0  0  0  0  0  0  0  0
   -9.1117    3.3893   -1.0624 C   0  0  0  0  0  0  0  0  0  0  0  0
   -7.8844    2.6156   -1.5557 C   0  0  0  0  0  0  0  0  0  0  0  0
   -7.3373   -0.5011    0.5088 C   0  0  0  0  0  0  0  0  0  0  0  0
   -6.3960   -1.1567    1.2652 C   0  0  0  0  0  0  0  0  0  0  0  0
   -6.6610   -2.2463    2.0858 O   0  0  0  0  0  0  0  0  0  0  0  0
   -7.9189   -2.8309    2.2563 C   0  0  0  0  0  0  0  0  0  0  0  0
   -1.8420   -1.5550    1.1872 N   0  0  0  0  0  0  0  0  0  0  0  0
    4.4477    0.4376    1.2937 C   0  0  0  0  0  0  0  0  0  0  0  0
    5.0631    1.2557    0.2209 C   0  0  0  0  0  0  0  0  0  0  0  0
    6.2491    0.8711   -0.4025 N   0  0  0  0  0  0  0  0  0  0  0  0
    7.4066    1.5994    0.0837 C   0  0  0  0  0  0  0  0  0  0  0  0
    8.5275    1.4759   -0.8505 C   0  0  0  0  0  0  0  0  0  0  0  0
    8.4745    0.8758   -1.9513 O   0  0  0  0  0  0  0  0  0  0  0  0
    9.8163    2.0544   -0.5610 N   0  0  0  0  0  0  0  0  0  0  0  0
    9.9539    2.7718    0.6820 C   0  0  0  0  0  0  0  0  0  0  0  0
   10.9463    1.9372   -1.4456 C   0  0  0  0  0  0  0  0  0  0  0  0
    6.5025   -0.3849   -0.9104 C   0  0  0  0  0  0  0  0  0  0  0  0
    5.9138   -1.6503   -0.4684 C   0  0  0  0  0  0  0  0  0  0  0  0
    1.7051   -5.4134   -2.5301 H   0  0  0  0  0  0  0  0  0  0  0  0
    3.1932   -5.1288   -1.6079 H   0  0  0  0  0  0  0  0  0  0  0  0
    2.7839   -4.0849   -3.0051 H   0  0  0  0  0  0  0  0  0  0  0  0
    4.2930   -3.3469   -1.5247 H   0  0  0  0  0  0  0  0  0  0  0  0
    1.9878   -0.0952    1.3998 H   0  0  0  0  0  0  0  0  0  0  0  0
   -0.1371   -2.7740   -0.2282 H   0  0  0  0  0  0  0  0  0  0  0  0
   -0.7298    1.4969    3.1055 H   0  0  0  0  0  0  0  0  0  0  0  0
   -4.2520   -2.1627    2.6062 H   0  0  0  0  0  0  0  0  0  0  0  0
   -3.7477    0.7109    0.3812 H   0  0  0  0  0  0  0  0  0  0  0  0
   -5.4378    1.8567   -0.9606 H   0  0  0  0  0  0  0  0  0  0  0  0
   -9.4306   -0.3948   -1.0627 H   0  0  0  0  0  0  0  0  0  0  0  0
   -9.3979    0.7053   -2.4899 H   0  0  0  0  0  0  0  0  0  0  0  0
  -11.1070    1.0330   -0.1406 H   0  0  0  0  0  0  0  0  0  0  0  0
  -10.9865    2.0285   -1.6298 H   0  0  0  0  0  0  0  0  0  0  0  0
   -9.8176    3.6244   -1.8783 H   0  0  0  0  0  0  0  0  0  0  0  0
   -8.7728    4.3098   -0.5403 H   0  0  0  0  0  0  0  0  0  0  0  0
   -7.9531    2.6033   -2.6637 H   0  0  0  0  0  0  0  0  0  0  0  0
   -6.9581    3.1002   -1.2183 H   0  0  0  0  0  0  0  0  0  0  0  0
   -8.3553   -0.8381    0.5470 H   0  0  0  0  0  0  0  0  0  0  0  0
   -8.3638   -2.4632    3.2196 H   0  0  0  0  0  0  0  0  0  0  0  0
   -8.6500   -2.6115    1.4617 H   0  0  0  0  0  0  0  0  0  0  0  0
   -7.8545   -3.9565    2.3075 H   0  0  0  0  0  0  0  0  0  0  0  0
    3.6310    1.0436    1.7460 H   0  0  0  0  0  0  0  0  0  0  0  0
    5.1334    0.0241    2.0293 H   0  0  0  0  0  0  0  0  0  0  0  0
    5.1794    2.2943    0.6168 H   0  0  0  0  0  0  0  0  0  0  0  0
    4.2674    1.3681   -0.5779 H   0  0  0  0  0  0  0  0  0  0  0  0
    7.1482    2.6964    0.1293 H   0  0  0  0  0  0  0  0  0  0  0  0
    7.7006    1.2573    1.1102 H   0  0  0  0  0  0  0  0  0  0  0  0
    9.3640    3.7162    0.7047 H   0  0  0  0  0  0  0  0  0  0  0  0
   11.0229    2.9665    0.8724 H   0  0  0  0  0  0  0  0  0  0  0  0
    9.5175    2.1134    1.4706 H   0  0  0  0  0  0  0  0  0  0  0  0
   10.6164    1.6858   -2.4776 H   0  0  0  0  0  0  0  0  0  0  0  0
   11.5160    2.8872   -1.4274 H   0  0  0  0  0  0  0  0  0  0  0  0
   11.5739    1.0893   -1.0395 H   0  0  0  0  0  0  0  0  0  0  0  0
    6.4967   -0.3568   -2.0318 H   0  0  0  0  0  0  0  0  0  0  0  0
    7.6499   -0.5692   -0.7029 H   0  0  0  0  0  0  0  0  0  0  0  0
    6.1829   -2.4629   -1.2152 H   0  0  0  0  0  0  0  0  0  0  0  0
    6.3716   -2.0428    0.4904 H   0  0  0  0  0  0  0  0  0  0  0  0
  1  2  1  0
  2  3  1  0
  3  4  2  0
  4  5  1  0
  5  6  2  0
  6  7  1  0
  7  8  2  0
  8  9  1  0
  9 10  1  0
 10 11  2  0
 11 12  1  0
 12 13  2  0
 13 14  1  0
 13 15  1  0
 15 16  1  0
 16 17  1  0
 17 18  2  0
 18 19  1  0
 19 20  2  0
 20 21  1  0
 21 22  1  0
 22 23  1  0
 23 24  1  0
 24 25  1  0
 25 26  1  0
 20 27  1  0
 27 28  2  0
 28 29  1  0
 29 30  1  0
 15 31  2  0
  6 32  1  0
 32 33  1  0
 33 34  1  0
 34 35  1  0
 35 36  1  0
 36 37  2  0
 36 38  1  0
 38 39  1  0
 38 40  1  0
 34 41  1  0
 41 42  1  0
  8  3  1  0
 31 10  1  0
 42  5  1  0
 28 17  1  0
 26 21  1  0
  1 43  1  0
  1 44  1  0
  1 45  1  0
  4 46  1  0
  7 47  1  0
  9 48  1  0
 12 49  1  0
 16 50  1  0
 18 51  1  0
 19 52  1  0
 22 53  1  0
 22 54  1  0
 23 55  1  0
 23 56  1  0
 25 57  1  0
 25 58  1  0
 26 59  1  0
 26 60  1  0
 27 61  1  0
 30 62  1  0
 30 63  1  0
 30 64  1  0
 32 65  1  0
 32 66  1  0
 33 67  1  0
 33 68  1  0
 35 69  1  0
 35 70  1  0
 39 71  1  0
 39 72  1  0
 39 73  1  0
 40 74  1  0
 40 75  1  0
 40 76  1  0
 41 77  1  0
 41 78  1  0
 42 79  1  0
 42 80  1  0
M  END
$$$$
