@<TRIPOS>MOLECULE
*****
 64 67 0 0 0
SMALL
GASTEIGER

@<TRIPOS>ATOM
      1 C           9.6593    2.6114   -0.3052 C.2     1  UNL1       -0.0938
      2 C           8.5161    2.6648   -0.9573 C.2     1  UNL1       -0.0066
      3 C           7.3397    1.9045   -0.6038 C.2     1  UNL1        0.2405
      4 O           6.2553    1.9988   -1.2760 O.2     1  UNL1       -0.2705
      5 N           7.2821    1.0116    0.4875 N.am    1  UNL1       -0.2820
      6 C           6.0864    0.2757    0.8029 C.ar    1  UNL1        0.0338
      7 C           5.1417    0.7880    1.6650 C.ar    1  UNL1       -0.0386
      8 C           3.9958    0.0797    1.9657 C.ar    1  UNL1       -0.0336
      9 C           3.7353   -1.1654    1.4265 C.ar    1  UNL1        0.1056
     10 S           2.2749   -2.0465    1.8221 S.O2    1  UNL1        0.0609
     11 O           2.5296   -3.5475    1.8175 O.2     1  UNL1       -0.1528
     12 O           1.8201   -1.7263    3.2334 O.2     1  UNL1       -0.1528
     13 N           0.9808   -1.7355    0.7603 N.3     1  UNL1       -0.1736
     14 C           0.6261   -0.3572    0.8097 C.3     1  UNL1        0.0364
     15 C           0.1249    0.1062   -0.5840 C.3     1  UNL1        0.0306
     16 N          -0.8133   -0.9011   -0.9896 N.am    1  UNL1       -0.2829
     17 C          -2.1819   -0.9241   -1.0743 C.2     1  UNL1        0.3051
     18 O          -2.6942   -2.0701   -1.4340 O.2     1  UNL1       -0.2524
     19 N          -3.1893    0.0741   -0.8401 N.am    1  UNL1       -0.2822
     20 C          -2.7787    1.4047   -0.5755 C.3     1  UNL1        0.0165
     21 C          -3.8363    2.4485   -0.6478 C.3     1  UNL1       -0.0368
     22 C          -5.1430    1.9393   -0.1243 C.3     1  UNL1       -0.0471
     23 C          -5.5643    0.7188   -0.9463 C.3     1  UNL1       -0.0223
     24 C          -6.9556    0.3574   -0.5721 C.3     1  UNL1       -0.0485
     25 C          -6.9963   -0.1971    0.8376 C.3     1  UNL1       -0.0527
     26 C          -6.1479   -1.4380    0.8244 C.3     1  UNL1       -0.0514
     27 C          -4.7305   -1.2069    0.4122 C.3     1  UNL1       -0.0340
     28 C          -4.5764   -0.3596   -0.8378 C.3     1  UNL1        0.0303
     29 C          -0.0747   -2.1684   -1.4021 C.3     1  UNL1        0.0306
     30 C           1.1874   -2.2513   -0.5762 C.3     1  UNL1        0.0364
     31 C           4.6855   -1.6717    0.5644 C.ar    1  UNL1       -0.0336
     32 C           5.8319   -0.9667    0.2616 C.ar    1  UNL1       -0.0386
     33 H           9.7451    1.9626    0.5541 H       1  UNL1        0.0536
     34 H          10.5257    3.1716   -0.5659 H       1  UNL1        0.0536
     35 H           8.4813    3.3373   -1.8199 H       1  UNL1        0.0663
     36 H           8.1249    0.8770    1.0853 H       1  UNL1        0.1551
     37 H           5.3293    1.7651    2.0979 H       1  UNL1        0.0637
     38 H           3.2566    0.5026    2.6550 H       1  UNL1        0.0638
     39 H           1.4989    0.2730    1.0496 H       1  UNL1        0.0459
     40 H          -0.2092   -0.2162    1.5181 H       1  UNL1        0.0459
     41 H          -0.1857    1.1260   -0.5095 H       1  UNL1        0.0478
     42 H           1.0042    0.0609   -1.2930 H       1  UNL1        0.0478
     43 H          -2.2953    1.5173    0.4338 H       1  UNL1        0.0465
     44 H          -2.0338    1.7482   -1.3821 H       1  UNL1        0.0465
     45 H          -3.9766    2.8054   -1.7053 H       1  UNL1        0.0280
     46 H          -3.5502    3.3293   -0.0200 H       1  UNL1        0.0280
     47 H          -5.9127    2.7159   -0.3105 H       1  UNL1        0.0269
     48 H          -5.1113    1.7324    0.9439 H       1  UNL1        0.0269
     49 H          -5.5774    1.0788   -2.0168 H       1  UNL1        0.0319
     50 H          -7.6021    1.2551   -0.6504 H       1  UNL1        0.0269
     51 H          -7.3835   -0.4200   -1.2348 H       1  UNL1        0.0269
     52 H          -6.6423    0.5109    1.5972 H       1  UNL1        0.0265
     53 H          -8.0237   -0.5001    1.1056 H       1  UNL1        0.0265
     54 H          -6.6415   -2.2417    0.2333 H       1  UNL1        0.0266
     55 H          -6.1190   -1.8234    1.8750 H       1  UNL1        0.0266
     56 H          -4.1528   -0.7813    1.2573 H       1  UNL1        0.0283
     57 H          -4.2967   -2.2010    0.1917 H       1  UNL1        0.0283
     58 H          -4.6886   -1.0420   -1.7303 H       1  UNL1        0.0504
     59 H          -0.7505   -2.9724   -1.0998 H       1  UNL1        0.0478
     60 H           0.1988   -2.1102   -2.4512 H       1  UNL1        0.0478
     61 H           2.0592   -1.7633   -1.0811 H       1  UNL1        0.0459
     62 H           1.4461   -3.3242   -0.4753 H       1  UNL1        0.0459
     63 H           4.5066   -2.6596    0.1193 H       1  UNL1        0.0638
     64 H           6.5861   -1.3644   -0.4201 H       1  UNL1        0.0637
@<TRIPOS>BOND
     1     1     2    2
     2     2     3    1
     3     3     4    2
     4     3     5   am
     5     5     6    1
     6     6     7   ar
     7     7     8   ar
     8     8     9   ar
     9     9    10    1
    10    10    11    2
    11    10    12    2
    12    10    13    1
    13    13    14    1
    14    14    15    1
    15    15    16    1
    16    16    17   am
    17    17    18    2
    18    17    19   am
    19    19    20    1
    20    20    21    1
    21    21    22    1
    22    22    23    1
    23    23    24    1
    24    24    25    1
    25    25    26    1
    26    26    27    1
    27    27    28    1
    28    16    29    1
    29    29    30    1
    30     9    31   ar
    31    31    32   ar
    32    32     6   ar
    33    30    13    1
    34    28    19    1
    35    28    23    1
    36     1    33    1
    37     1    34    1
    38     2    35    1
    39     5    36    1
    40     7    37    1
    41     8    38    1
    42    14    39    1
    43    14    40    1
    44    15    41    1
    45    15    42    1
    46    20    43    1
    47    20    44    1
    48    21    45    1
    49    21    46    1
    50    22    47    1
    51    22    48    1
    52    23    49    1
    53    24    50    1
    54    24    51    1
    55    25    52    1
    56    25    53    1
    57    26    54    1
    58    26    55    1
    59    27    56    1
    60    27    57    1
    61    28    58    1
    62    29    59    1
    63    29    60    1
    64    30    61    1
    65    30    62    1
    66    31    63    1
    67    32    64    1
