
     RDKit          3D

 54 58  0  0  0  0  0  0  0  0999 V2000
   -3.9482   -2.6337   -1.8224 C   0  0  0  0  0  0  0  0  0  0  0  0
   -3.9636   -1.3871   -2.6389 C   0  0  0  0  0  0  0  0  0  0  0  0
   -2.9094   -0.3682   -2.3005 C   0  0  0  0  0  0  0  0  0  0  0  0
   -2.9953    0.0858   -0.8885 C   0  0  0  0  0  0  0  0  0  0  0  0
   -3.7994    1.1163   -0.4928 N   0  0  0  0  0  0  0  0  0  0  0  0
   -3.6931    1.3365    0.8068 C   0  0  0  0  0  0  0  0  0  0  0  0
   -4.2849    2.2452    1.6960 C   0  0  0  0  0  0  0  0  0  0  0  0
   -5.2563    3.2232    1.1642 C   0  0  0  0  0  0  0  0  0  0  0  0
   -3.9260    2.1751    3.0224 C   0  0  0  0  0  0  0  0  0  0  0  0
   -3.0152    1.2438    3.4655 C   0  0  0  0  0  0  0  0  0  0  0  0
   -2.4582    0.3834    2.6054 N   0  0  0  0  0  0  0  0  0  0  0  0
   -2.7921    0.4309    1.3017 C   0  0  0  0  0  0  0  0  0  0  0  0
   -2.3838   -0.3208    0.2249 N   0  0  0  0  0  0  0  0  0  0  0  0
   -1.4022   -1.3713    0.3455 C   0  0  0  0  0  0  0  0  0  0  0  0
    0.0017   -0.8836    0.1756 C   0  0  0  0  0  0  0  0  0  0  0  0
    0.6926   -0.9363   -1.0092 C   0  0  0  0  0  0  0  0  0  0  0  0
    1.9887   -0.4648   -1.1637 C   0  0  0  0  0  0  0  0  0  0  0  0
    2.6312    0.0885   -0.0819 C   0  0  0  0  0  0  0  0  0  0  0  0
    3.9758    0.6338   -0.0936 C   0  0  0  0  0  0  0  0  0  0  0  0
    4.1836    2.0173   -0.0237 C   0  0  0  0  0  0  0  0  0  0  0  0
    5.4519    2.5494   -0.0391 C   0  0  0  0  0  0  0  0  0  0  0  0
    6.5377    1.7122   -0.1248 C   0  0  0  0  0  0  0  0  0  0  0  0
    6.3634    0.3446   -0.1949 C   0  0  0  0  0  0  0  0  0  0  0  0
    5.0608   -0.1877   -0.1782 C   0  0  0  0  0  0  0  0  0  0  0  0
    4.8811   -1.6217   -0.2394 C   0  0  0  0  0  0  0  0  0  0  0  0
    3.7694   -2.3614   -0.2116 N   0  0  0  0  0  0  0  0  0  0  0  0
    4.0884   -3.6419   -0.2875 N   0  0  0  0  0  0  0  0  0  0  0  0
    5.3964   -3.7562   -0.3652 N   0  0  0  0  0  0  0  0  0  0  0  0
    5.8913   -2.5089   -0.3358 N   0  0  0  0  0  0  0  0  0  0  0  0
    1.9601    0.1547    1.1291 C   0  0  0  0  0  0  0  0  0  0  0  0
    0.6764   -0.3185    1.2601 C   0  0  0  0  0  0  0  0  0  0  0  0
   -3.2131   -3.3934   -2.1575 H   0  0  0  0  0  0  0  0  0  0  0  0
   -4.9536   -3.1464   -1.9522 H   0  0  0  0  0  0  0  0  0  0  0  0
   -3.8793   -2.3871   -0.7400 H   0  0  0  0  0  0  0  0  0  0  0  0
   -3.9415   -1.6379   -3.7395 H   0  0  0  0  0  0  0  0  0  0  0  0
   -4.9720   -0.9017   -2.4900 H   0  0  0  0  0  0  0  0  0  0  0  0
   -3.1286    0.5236   -2.9607 H   0  0  0  0  0  0  0  0  0  0  0  0
   -1.8995   -0.6873   -2.5845 H   0  0  0  0  0  0  0  0  0  0  0  0
   -6.1935    2.7396    0.8912 H   0  0  0  0  0  0  0  0  0  0  0  0
   -4.8679    3.7967    0.2934 H   0  0  0  0  0  0  0  0  0  0  0  0
   -5.4721    3.9699    1.9609 H   0  0  0  0  0  0  0  0  0  0  0  0
   -4.3609    2.8568    3.7282 H   0  0  0  0  0  0  0  0  0  0  0  0
   -2.7309    1.1910    4.5284 H   0  0  0  0  0  0  0  0  0  0  0  0
   -1.5188   -1.8408    1.3609 H   0  0  0  0  0  0  0  0  0  0  0  0
   -1.5468   -2.2028   -0.3651 H   0  0  0  0  0  0  0  0  0  0  0  0
    0.2174   -1.3728   -1.8727 H   0  0  0  0  0  0  0  0  0  0  0  0
    2.5195   -0.5137   -2.1032 H   0  0  0  0  0  0  0  0  0  0  0  0
    3.3000    2.6704    0.0442 H   0  0  0  0  0  0  0  0  0  0  0  0
    5.6313    3.6127    0.0143 H   0  0  0  0  0  0  0  0  0  0  0  0
    7.5548    2.1237   -0.1375 H   0  0  0  0  0  0  0  0  0  0  0  0
    7.2035   -0.3430   -0.2630 H   0  0  0  0  0  0  0  0  0  0  0  0
    6.9241   -2.3573   -0.3865 H   0  0  0  0  0  0  0  0  0  0  0  0
    2.4282    0.5812    2.0041 H   0  0  0  0  0  0  0  0  0  0  0  0
    0.1769   -0.2600    2.2213 H   0  0  0  0  0  0  0  0  0  0  0  0
  1  2  1  0
  2  3  1  0
  3  4  1  0
  4  5  2  0
  5  6  1  0
  6  7  2  0
  7  8  1  0
  7  9  1  0
  9 10  2  0
 10 11  1  0
 11 12  2  0
 12 13  1  0
 13 14  1  0
 14 15  1  0
 15 16  2  0
 16 17  1  0
 17 18  2  0
 18 19  1  0
 19 20  2  0
 20 21  1  0
 21 22  2  0
 22 23  1  0
 23 24  2  0
 24 25  1  0
 25 26  2  0
 26 27  1  0
 27 28  2  0
 28 29  1  0
 18 30  1  0
 30 31  2  0
 13  4  1  0
 31 15  1  0
 12  6  1  0
 24 19  1  0
 29 25  1  0
  1 32  1  0
  1 33  1  0
  1 34  1  0
  2 35  1  0
  2 36  1  0
  3 37  1  0
  3 38  1  0
  8 39  1  0
  8 40  1  0
  8 41  1  0
  9 42  1  0
 10 43  1  0
 14 44  1  0
 14 45  1  0
 16 46  1  0
 17 47  1  0
 20 48  1  0
 21 49  1  0
 22 50  1  0
 23 51  1  0
 29 52  1  0
 30 53  1  0
 31 54  1  0
M  END
$$$$
