@<TRIPOS>MOLECULE
*****
 54 58 0 0 0
SMALL
GASTEIGER

@<TRIPOS>ATOM
      1 C          -3.9482   -2.6337   -1.8224 C.3     1  UNL1       -0.0649
      2 C          -3.9636   -1.3871   -2.6389 C.3     1  UNL1       -0.0491
      3 C          -2.9094   -0.3682   -2.3005 C.3     1  UNL1        0.0054
      4 C          -2.9953    0.0858   -0.8885 C.ar    1  UNL1        0.1122
      5 N          -3.7994    1.1163   -0.4928 N.ar    1  UNL1       -0.2304
      6 C          -3.6931    1.3365    0.8068 C.ar    1  UNL1        0.1111
      7 C          -4.2849    2.2452    1.6960 C.ar    1  UNL1       -0.0200
      8 C          -5.2563    3.2232    1.1642 C.3     1  UNL1       -0.0375
      9 C          -3.9260    2.1751    3.0224 C.ar    1  UNL1       -0.0385
     10 C          -3.0152    1.2438    3.4655 C.ar    1  UNL1        0.0303
     11 N          -2.4582    0.3834    2.6054 N.ar    1  UNL1       -0.2357
     12 C          -2.7921    0.4309    1.3017 C.ar    1  UNL1        0.1610
     13 N          -2.3838   -0.3208    0.2249 N.ar    1  UNL1       -0.3081
     14 C          -1.4022   -1.3713    0.3455 C.3     1  UNL1        0.0513
     15 C           0.0017   -0.8836    0.1756 C.ar    1  UNL1       -0.0276
     16 C           0.6926   -0.9363   -1.0092 C.ar    1  UNL1       -0.0563
     17 C           1.9887   -0.4648   -1.1637 C.ar    1  UNL1       -0.0537
     18 C           2.6312    0.0885   -0.0819 C.ar    1  UNL1       -0.0172
     19 C           3.9758    0.6338   -0.0936 C.ar    1  UNL1       -0.0072
     20 C           4.1836    2.0173   -0.0237 C.ar    1  UNL1       -0.0534
     21 C           5.4519    2.5494   -0.0391 C.ar    1  UNL1       -0.0611
     22 C           6.5377    1.7122   -0.1248 C.ar    1  UNL1       -0.0611
     23 C           6.3634    0.3446   -0.1949 C.ar    1  UNL1       -0.0504
     24 C           5.0608   -0.1877   -0.1782 C.ar    1  UNL1        0.0282
     25 C           4.8811   -1.6217   -0.2394 C.ar    1  UNL1        0.1799
     26 N           3.7694   -2.3614   -0.2116 N.ar    1  UNL1       -0.1084
     27 N           4.0884   -3.6419   -0.2875 N.ar    1  UNL1       -0.0229
     28 N           5.3964   -3.7562   -0.3652 N.ar    1  UNL1       -0.0464
     29 N           5.8913   -2.5089   -0.3358 N.ar    1  UNL1       -0.2388
     30 C           1.9601    0.1547    1.1291 C.ar    1  UNL1       -0.0537
     31 C           0.6764   -0.3185    1.2601 C.ar    1  UNL1       -0.0563
     32 H          -3.2131   -3.3934   -2.1575 H       1  UNL1        0.0230
     33 H          -4.9536   -3.1464   -1.9522 H       1  UNL1        0.0230
     34 H          -3.8793   -2.3871   -0.7400 H       1  UNL1        0.0230
     35 H          -3.9415   -1.6379   -3.7395 H       1  UNL1        0.0267
     36 H          -4.9720   -0.9017   -2.4900 H       1  UNL1        0.0267
     37 H          -3.1286    0.5236   -2.9607 H       1  UNL1        0.0343
     38 H          -1.8995   -0.6873   -2.5845 H       1  UNL1        0.0343
     39 H          -6.1935    2.7396    0.8912 H       1  UNL1        0.0278
     40 H          -4.8679    3.7967    0.2934 H       1  UNL1        0.0278
     41 H          -5.4721    3.9699    1.9609 H       1  UNL1        0.0278
     42 H          -4.3609    2.8568    3.7282 H       1  UNL1        0.0636
     43 H          -2.7309    1.1910    4.5284 H       1  UNL1        0.0830
     44 H          -1.5188   -1.8408    1.3609 H       1  UNL1        0.0542
     45 H          -1.5468   -2.2028   -0.3651 H       1  UNL1        0.0542
     46 H           0.2174   -1.3728   -1.8727 H       1  UNL1        0.0621
     47 H           2.5195   -0.5137   -2.1032 H       1  UNL1        0.0624
     48 H           3.3000    2.6704    0.0442 H       1  UNL1        0.0624
     49 H           5.6313    3.6127    0.0143 H       1  UNL1        0.0618
     50 H           7.5548    2.1237   -0.1375 H       1  UNL1        0.0618
     51 H           7.2035   -0.3430   -0.2630 H       1  UNL1        0.0625
     52 H           6.9241   -2.3573   -0.3865 H       1  UNL1        0.1923
     53 H           2.4282    0.5812    2.0041 H       1  UNL1        0.0624
     54 H           0.1769   -0.2600    2.2213 H       1  UNL1        0.0621
@<TRIPOS>BOND
     1     1     2    1
     2     2     3    1
     3     3     4    1
     4     4     5   ar
     5     5     6   ar
     6     6     7   ar
     7     7     8    1
     8     7     9   ar
     9     9    10   ar
    10    10    11   ar
    11    11    12   ar
    12    12    13   ar
    13    13    14    1
    14    14    15    1
    15    15    16   ar
    16    16    17   ar
    17    17    18   ar
    18    18    19    1
    19    19    20   ar
    20    20    21   ar
    21    21    22   ar
    22    22    23   ar
    23    23    24   ar
    24    24    25    1
    25    25    26   ar
    26    26    27   ar
    27    27    28   ar
    28    28    29   ar
    29    18    30   ar
    30    30    31   ar
    31    13     4   ar
    32    31    15   ar
    33    12     6   ar
    34    24    19   ar
    35    29    25   ar
    36     1    32    1
    37     1    33    1
    38     1    34    1
    39     2    35    1
    40     2    36    1
    41     3    37    1
    42     3    38    1
    43     8    39    1
    44     8    40    1
    45     8    41    1
    46     9    42    1
    47    10    43    1
    48    14    44    1
    49    14    45    1
    50    16    46    1
    51    17    47    1
    52    20    48    1
    53    21    49    1
    54    22    50    1
    55    23    51    1
    56    29    52    1
    57    30    53    1
    58    31    54    1
