@<TRIPOS>MOLECULE
*****
 31 31 0 0 0
SMALL
GASTEIGER

@<TRIPOS>ATOM
      1 C          -3.2844   -0.9167    0.1940 C.3     1  UNL1       -0.0585
      2 C          -2.6370    0.3580   -0.2870 C.3     1  UNL1       -0.0181
      3 C          -2.7269    1.4685    0.7162 C.3     1  UNL1       -0.0585
      4 C          -1.2896    0.0557   -0.7703 C.ar    1  UNL1       -0.0031
      5 C          -1.0728   -0.2832   -2.1015 C.ar    1  UNL1       -0.0548
      6 C           0.1653   -0.5814   -2.6337 C.ar    1  UNL1       -0.0610
      7 C           1.2615   -0.5359   -1.7686 C.ar    1  UNL1       -0.0548
      8 C           1.1260   -0.2091   -0.4404 C.ar    1  UNL1       -0.0031
      9 C           2.2595   -0.1468    0.5196 C.3     1  UNL1       -0.0181
     10 C           2.8855    1.2289    0.5746 C.3     1  UNL1       -0.0585
     11 C           3.3431   -1.1574    0.2163 C.3     1  UNL1       -0.0585
     12 C          -0.1607    0.0801    0.0236 C.ar    1  UNL1        0.1237
     13 O          -0.3121    0.4078    1.3460 O.3     1  UNL1       -0.5062
     14 H          -3.9982   -0.7428    1.0159 H       1  UNL1        0.0235
     15 H          -3.8300   -1.4263   -0.6268 H       1  UNL1        0.0235
     16 H          -2.4722   -1.5970    0.5485 H       1  UNL1        0.0235
     17 H          -3.2473    0.6870   -1.1758 H       1  UNL1        0.0345
     18 H          -2.5891    1.1089    1.7555 H       1  UNL1        0.0235
     19 H          -2.0710    2.2886    0.4142 H       1  UNL1        0.0235
     20 H          -3.7713    1.8692    0.6724 H       1  UNL1        0.0235
     21 H          -1.9468   -0.3105   -2.7522 H       1  UNL1        0.0622
     22 H           0.2823   -0.8398   -3.6780 H       1  UNL1        0.0618
     23 H           2.2382   -0.7637   -2.1561 H       1  UNL1        0.0622
     24 H           1.8466   -0.3675    1.5329 H       1  UNL1        0.0345
     25 H           4.0022    1.1657    0.5110 H       1  UNL1        0.0235
     26 H           2.5695    1.8645   -0.2791 H       1  UNL1        0.0235
     27 H           2.6754    1.7379    1.5498 H       1  UNL1        0.0235
     28 H           4.2852   -0.6896   -0.1557 H       1  UNL1        0.0235
     29 H           2.9768   -1.8314   -0.5827 H       1  UNL1        0.0235
     30 H           3.6011   -1.7460    1.1260 H       1  UNL1        0.0235
     31 H          -0.1090   -0.1756    2.1288 H       1  UNL1        0.2922
@<TRIPOS>BOND
     1     1     2    1
     2     2     3    1
     3     2     4    1
     4     4     5   ar
     5     5     6   ar
     6     6     7   ar
     7     7     8   ar
     8     8     9    1
     9     9    10    1
    10     9    11    1
    11     8    12   ar
    12    12    13    1
    13    12     4   ar
    14     1    14    1
    15     1    15    1
    16     1    16    1
    17     2    17    1
    18     3    18    1
    19     3    19    1
    20     3    20    1
    21     5    21    1
    22     6    22    1
    23     7    23    1
    24     9    24    1
    25    10    25    1
    26    10    26    1
    27    10    27    1
    28    11    28    1
    29    11    29    1
    30    11    30    1
    31    13    31    1
