
     RDKit          3D

 71 75  0  0  0  0  0  0  0  0999 V2000
   -2.3251   -3.4551    2.6917 C   0  0  0  0  0  0  0  0  0  0  0  0
   -1.8257   -4.0639    1.3788 C   0  0  1  0  0  0  0  0  0  0  0  0
   -2.2144   -5.5328    1.6487 N   0  0  0  0  0  0  0  0  0  0  0  0
   -2.6685   -3.7360    0.2342 C   0  0  0  0  0  0  0  0  0  0  0  0
   -3.1525   -2.4021   -0.1809 C   0  0  0  0  0  0  0  0  0  0  0  0
   -4.5045   -2.5296   -0.6144 C   0  0  0  0  0  0  0  0  0  0  0  0
   -5.2769   -1.5075   -1.1012 C   0  0  0  0  0  0  0  0  0  0  0  0
   -4.6457   -0.2926   -1.1534 C   0  0  0  0  0  0  0  0  0  0  0  0
   -3.3097   -0.1014   -0.7398 C   0  0  0  0  0  0  0  0  0  0  0  0
   -2.5582   -1.1611   -0.2497 C   0  0  0  0  0  0  0  0  0  0  0  0
   -2.8823    1.3203   -0.9831 C   0  0  0  0  0  0  0  0  0  0  0  0
   -2.8162    2.1988    0.2314 C   0  0  0  0  0  0  0  0  0  0  0  0
   -1.5212    3.1499    0.0319 C   0  0  2  0  0  0  0  0  0  0  0  0
   -1.6543    3.8497   -1.2344 C   0  0  0  0  0  0  0  0  0  0  0  0
   -2.9167    4.2981   -1.6590 C   0  0  0  0  0  0  0  0  0  0  0  0
   -3.0734    4.9500   -2.8492 C   0  0  0  0  0  0  0  0  0  0  0  0
   -2.0223    5.2013   -3.6857 C   0  0  0  0  0  0  0  0  0  0  0  0
   -0.7791    4.7524   -3.2588 C   0  0  0  0  0  0  0  0  0  0  0  0
   -0.5885    4.0889   -2.0600 C   0  0  0  0  0  0  0  0  0  0  0  0
   -0.5005    2.1262    0.1019 N   0  0  0  0  0  0  0  0  0  0  0  0
    0.6519    2.0275    0.8574 C   0  0  0  0  0  0  0  0  0  0  0  0
    0.8956    3.0721    1.5056 O   0  0  0  0  0  0  0  0  0  0  0  0
    1.6223    0.8550    1.0243 C   0  0  0  0  0  0  0  0  0  0  0  0
    1.1944   -0.4483    1.3026 C   0  0  0  0  0  0  0  0  0  0  0  0
    2.1148   -1.4283    1.2024 C   0  0  0  0  0  0  0  0  0  0  0  0
    3.4449   -1.1707    0.8594 C   0  0  0  0  0  0  0  0  0  0  0  0
    3.8855    0.1159    0.5993 C   0  0  0  0  0  0  0  0  0  0  0  0
    5.2786    0.4009    0.2839 C   0  0  0  0  0  0  0  0  0  0  0  0
    5.5429    1.2009   -0.7983 C   0  0  0  0  0  0  0  0  0  0  0  0
    6.8223    1.5251   -1.1857 C   0  0  0  0  0  0  0  0  0  0  0  0
    7.8464    0.9998   -0.4226 C   0  0  0  0  0  0  0  0  0  0  0  0
    7.5801    0.1995    0.6604 C   0  0  0  0  0  0  0  0  0  0  0  0
    6.3107   -0.1340    1.0601 C   0  0  0  0  0  0  0  0  0  0  0  0
    5.9440   -0.9599    2.1012 C   0  0  0  0  0  0  0  0  0  0  0  0
    5.6076   -1.6718    3.0240 N   0  0  0  0  0  0  0  0  0  0  0  0
    2.9462    1.1033    0.6892 C   0  0  0  0  0  0  0  0  0  0  0  0
    1.8044   -2.9448    1.2252 C   0  0  0  0  0  0  0  0  0  0  0  0
    0.5051   -3.2121    1.2747 O   0  0  0  0  0  0  0  0  0  0  0  0
   -0.3832   -4.1673    1.2695 C   0  0  0  0  0  0  0  0  0  0  0  0
    0.1486   -5.3569    1.1592 O   0  0  0  0  0  0  0  0  0  0  0  0
   -3.4280   -3.3859    2.6991 H   0  0  0  0  0  0  0  0  0  0  0  0
   -1.8972   -4.0622    3.5102 H   0  0  0  0  0  0  0  0  0  0  0  0
   -1.8956   -2.4452    2.7302 H   0  0  0  0  0  0  0  0  0  0  0  0
   -1.5108   -5.8898    2.3246 H   0  0  0  0  0  0  0  0  0  0  0  0
   -3.1839   -5.4943    2.0052 H   0  0  0  0  0  0  0  0  0  0  0  0
   -2.1833   -4.2762   -0.6667 H   0  0  0  0  0  0  0  0  0  0  0  0
   -3.5750   -4.4554    0.3542 H   0  0  0  0  0  0  0  0  0  0  0  0
   -5.0262   -3.5083   -0.5815 H   0  0  0  0  0  0  0  0  0  0  0  0
   -6.3005   -1.6476   -1.4216 H   0  0  0  0  0  0  0  0  0  0  0  0
   -5.2356    0.5615   -1.5409 H   0  0  0  0  0  0  0  0  0  0  0  0
   -1.4796   -1.0273    0.0798 H   0  0  0  0  0  0  0  0  0  0  0  0
   -3.7419    1.8624   -1.5778 H   0  0  0  0  0  0  0  0  0  0  0  0
   -2.1086    1.4735   -1.7634 H   0  0  0  0  0  0  0  0  0  0  0  0
   -2.6107    1.6217    1.1579 H   0  0  0  0  0  0  0  0  0  0  0  0
   -3.6281    2.8535    0.4100 H   0  0  0  0  0  0  0  0  0  0  0  0
   -1.5962    3.8423    0.8391 H   0  0  0  0  0  0  0  0  0  0  0  0
   -3.7784    4.1461   -1.0539 H   0  0  0  0  0  0  0  0  0  0  0  0
   -4.0863    5.2807   -3.1311 H   0  0  0  0  0  0  0  0  0  0  0  0
   -2.1311    5.7143   -4.6126 H   0  0  0  0  0  0  0  0  0  0  0  0
    0.0688    4.9358   -3.8839 H   0  0  0  0  0  0  0  0  0  0  0  0
    0.4067    3.7735   -1.8127 H   0  0  0  0  0  0  0  0  0  0  0  0
   -0.8111    1.4197   -0.6236 H   0  0  0  0  0  0  0  0  0  0  0  0
    0.1343   -0.6505    1.7136 H   0  0  0  0  0  0  0  0  0  0  0  0
    4.1688   -1.9719    0.7649 H   0  0  0  0  0  0  0  0  0  0  0  0
    4.7140    1.6085   -1.3962 H   0  0  0  0  0  0  0  0  0  0  0  0
    6.9816    2.1569   -2.0414 H   0  0  0  0  0  0  0  0  0  0  0  0
    8.8713    1.2420   -0.7134 H   0  0  0  0  0  0  0  0  0  0  0  0
    8.4029   -0.2174    1.2560 H   0  0  0  0  0  0  0  0  0  0  0  0
    3.2582    2.1478    0.5074 H   0  0  0  0  0  0  0  0  0  0  0  0
    2.3965   -3.4535    1.9846 H   0  0  0  0  0  0  0  0  0  0  0  0
    2.2776   -3.3140    0.2433 H   0  0  0  0  0  0  0  0  0  0  0  0
  1  2  1  0
  2  3  1  1
  2  4  1  0
  4  5  1  0
  5  6  1  0
  6  7  2  0
  7  8  1  0
  8  9  2  0
  9 10  1  0
  9 11  1  0
 11 12  1  0
 12 13  1  0
 13 14  1  0
 14 15  2  0
 15 16  1  0
 16 17  2  0
 17 18  1  0
 18 19  2  0
 13 20  1  0
 20 21  1  0
 21 22  2  0
 21 23  1  0
 23 24  1  0
 24 25  2  0
 25 26  1  0
 26 27  2  0
 27 28  1  0
 28 29  2  0
 29 30  1  0
 30 31  2  0
 31 32  1  0
 32 33  2  0
 33 34  1  0
 34 35  3  0
 27 36  1  0
 25 37  1  0
 37 38  1  0
 38 39  1  0
 39 40  2  0
 39  2  1  0
 10  5  2  0
 19 14  1  0
 36 23  2  0
 33 28  1  0
  1 41  1  0
  1 42  1  0
  1 43  1  0
  3 44  1  0
  3 45  1  0
  4 46  1  0
  4 47  1  0
  6 48  1  0
  7 49  1  0
  8 50  1  0
 10 51  1  0
 11 52  1  0
 11 53  1  0
 12 54  1  0
 12 55  1  0
 13 56  1  1
 15 57  1  0
 16 58  1  0
 17 59  1  0
 18 60  1  0
 19 61  1  0
 20 62  1  0
 24 63  1  0
 26 64  1  0
 29 65  1  0
 30 66  1  0
 31 67  1  0
 32 68  1  0
 36 69  1  0
 37 70  1  0
 37 71  1  0
M  END
$$$$
