@<TRIPOS>MOLECULE
*****
 71 75 0 0 0
SMALL
GASTEIGER

@<TRIPOS>ATOM
      1 C          -2.3251   -3.4551    2.6917 C.3     1  UNL1       -0.0362
      2 C          -1.8257   -4.0639    1.3788 C.3     1  UNL1        0.1158
      3 N          -2.2144   -5.5328    1.6487 N.3     1  UNL1       -0.3158
      4 C          -2.6685   -3.7360    0.2342 C.3     1  UNL1        0.0006
      5 C          -3.1525   -2.4021   -0.1809 C.ar    1  UNL1       -0.0448
      6 C          -4.5045   -2.5296   -0.6144 C.ar    1  UNL1       -0.0585
      7 C          -5.2769   -1.5075   -1.1012 C.ar    1  UNL1       -0.0612
      8 C          -4.6457   -0.2926   -1.1534 C.ar    1  UNL1       -0.0586
      9 C          -3.3097   -0.1014   -0.7398 C.ar    1  UNL1       -0.0470
     10 C          -2.5582   -1.1611   -0.2497 C.ar    1  UNL1       -0.0553
     11 C          -2.8823    1.3203   -0.9831 C.3     1  UNL1       -0.0257
     12 C          -2.8162    2.1988    0.2314 C.3     1  UNL1       -0.0263
     13 C          -1.5212    3.1499    0.0319 C.3     1  UNL1        0.0489
     14 C          -1.6543    3.8497   -1.2344 C.ar    1  UNL1       -0.0272
     15 C          -2.9167    4.2981   -1.6590 C.ar    1  UNL1       -0.0568
     16 C          -3.0734    4.9500   -2.8492 C.ar    1  UNL1       -0.0614
     17 C          -2.0223    5.2013   -3.6857 C.ar    1  UNL1       -0.0617
     18 C          -0.7791    4.7524   -3.2588 C.ar    1  UNL1       -0.0614
     19 C          -0.5885    4.0889   -2.0600 C.ar    1  UNL1       -0.0568
     20 N          -0.5005    2.1262    0.1019 N.am    1  UNL1       -0.3045
     21 C           0.6519    2.0275    0.8574 C.2     1  UNL1        0.2446
     22 O           0.8956    3.0721    1.5056 O.2     1  UNL1       -0.2702
     23 C           1.6223    0.8550    1.0243 C.ar    1  UNL1        0.0376
     24 C           1.1944   -0.4483    1.3026 C.ar    1  UNL1       -0.0432
     25 C           2.1148   -1.4283    1.2024 C.ar    1  UNL1       -0.0090
     26 C           3.4449   -1.1707    0.8594 C.ar    1  UNL1       -0.0476
     27 C           3.8855    0.1159    0.5993 C.ar    1  UNL1       -0.0156
     28 C           5.2786    0.4009    0.2839 C.ar    1  UNL1       -0.0005
     29 C           5.5429    1.2009   -0.7983 C.ar    1  UNL1       -0.0528
     30 C           6.8223    1.5251   -1.1857 C.ar    1  UNL1       -0.0611
     31 C           7.8464    0.9998   -0.4226 C.ar    1  UNL1       -0.0605
     32 C           7.5801    0.1995    0.6604 C.ar    1  UNL1       -0.0438
     33 C           6.3107   -0.1340    1.0601 C.ar    1  UNL1        0.0595
     34 C           5.9440   -0.9599    2.1012 C.1     1  UNL1        0.0998
     35 N           5.6076   -1.6718    3.0240 N.1     1  UNL1       -0.1909
     36 C           2.9462    1.1033    0.6892 C.ar    1  UNL1       -0.0419
     37 C           1.8044   -2.9448    1.2252 C.3     1  UNL1        0.1176
     38 O           0.5051   -3.2121    1.2747 O.3     1  UNL1       -0.4586
     39 C          -0.3832   -4.1673    1.2695 C.2     1  UNL1        0.3276
     40 O           0.1486   -5.3569    1.1592 O.2     1  UNL1       -0.2487
     41 H          -3.4280   -3.3859    2.6991 H       1  UNL1        0.0253
     42 H          -1.8972   -4.0622    3.5102 H       1  UNL1        0.0253
     43 H          -1.8956   -2.4452    2.7302 H       1  UNL1        0.0253
     44 H          -1.5108   -5.8898    2.3246 H       1  UNL1        0.1192
     45 H          -3.1839   -5.4943    2.0052 H       1  UNL1        0.1192
     46 H          -2.1833   -4.2762   -0.6667 H       1  UNL1        0.0336
     47 H          -3.5750   -4.4554    0.3542 H       1  UNL1        0.0336
     48 H          -5.0262   -3.5083   -0.5815 H       1  UNL1        0.0620
     49 H          -6.3005   -1.6476   -1.4216 H       1  UNL1        0.0618
     50 H          -5.2356    0.5615   -1.5409 H       1  UNL1        0.0620
     51 H          -1.4796   -1.0273    0.0798 H       1  UNL1        0.0623
     52 H          -3.7419    1.8624   -1.5778 H       1  UNL1        0.0314
     53 H          -2.1086    1.4735   -1.7634 H       1  UNL1        0.0314
     54 H          -2.6107    1.6217    1.1579 H       1  UNL1        0.0289
     55 H          -3.6281    2.8535    0.4100 H       1  UNL1        0.0289
     56 H          -1.5962    3.8423    0.8391 H       1  UNL1        0.0548
     57 H          -3.7784    4.1461   -1.0539 H       1  UNL1        0.0621
     58 H          -4.0863    5.2807   -3.1311 H       1  UNL1        0.0618
     59 H          -2.1311    5.7143   -4.6126 H       1  UNL1        0.0618
     60 H           0.0688    4.9358   -3.8839 H       1  UNL1        0.0618
     61 H           0.4067    3.7735   -1.8127 H       1  UNL1        0.0621
     62 H          -0.8111    1.4197   -0.6236 H       1  UNL1        0.1496
     63 H           0.1343   -0.6505    1.7136 H       1  UNL1        0.0629
     64 H           4.1688   -1.9719    0.7649 H       1  UNL1        0.0627
     65 H           4.7140    1.6085   -1.3962 H       1  UNL1        0.0624
     66 H           6.9816    2.1569   -2.0414 H       1  UNL1        0.0618
     67 H           8.8713    1.2420   -0.7134 H       1  UNL1        0.0618
     68 H           8.4029   -0.2174    1.2560 H       1  UNL1        0.0631
     69 H           3.2582    2.1478    0.5074 H       1  UNL1        0.0631
     70 H           2.3965   -3.4535    1.9846 H       1  UNL1        0.0749
     71 H           2.2776   -3.3140    0.2433 H       1  UNL1        0.0749
@<TRIPOS>BOND
     1     1     2    1
     2     2     3    1
     3     2     4    1
     4     4     5    1
     5     5     6   ar
     6     6     7   ar
     7     7     8   ar
     8     8     9   ar
     9     9    10   ar
    10     9    11    1
    11    11    12    1
    12    12    13    1
    13    13    14    1
    14    14    15   ar
    15    15    16   ar
    16    16    17   ar
    17    17    18   ar
    18    18    19   ar
    19    13    20    1
    20    20    21   am
    21    21    22    2
    22    21    23    1
    23    23    24   ar
    24    24    25   ar
    25    25    26   ar
    26    26    27   ar
    27    27    28    1
    28    28    29   ar
    29    29    30   ar
    30    30    31   ar
    31    31    32   ar
    32    32    33   ar
    33    33    34    1
    34    34    35    3
    35    27    36   ar
    36    25    37    1
    37    37    38    1
    38    38    39    1
    39    39    40    2
    40    39     2    1
    41    10     5   ar
    42    19    14   ar
    43    36    23   ar
    44    33    28   ar
    45     1    41    1
    46     1    42    1
    47     1    43    1
    48     3    44    1
    49     3    45    1
    50     4    46    1
    51     4    47    1
    52     6    48    1
    53     7    49    1
    54     8    50    1
    55    10    51    1
    56    11    52    1
    57    11    53    1
    58    12    54    1
    59    12    55    1
    60    13    56    1
    61    15    57    1
    62    16    58    1
    63    17    59    1
    64    18    60    1
    65    19    61    1
    66    20    62    1
    67    24    63    1
    68    26    64    1
    69    29    65    1
    70    30    66    1
    71    31    67    1
    72    32    68    1
    73    36    69    1
    74    37    70    1
    75    37    71    1
