
     RDKit          3D

 40 42  0  0  0  0  0  0  0  0999 V2000
    6.9842    1.0118    1.5976 O   0  0  0  0  0  0  0  0  0  0  0  0
    5.8158    0.5776    1.7260 C   0  0  0  0  0  0  0  0  0  0  0  0
    5.5497   -0.3722    2.6889 O   0  0  0  0  0  1  0  0  0  0  0  0
    4.7099    1.0459    0.8810 C   0  0  0  0  0  0  0  0  0  0  0  0
    4.9214    1.9884   -0.1099 C   0  0  0  0  0  0  0  0  0  0  0  0
    3.8695    2.3905   -0.8850 C   0  0  0  0  0  0  0  0  0  0  0  0
    2.5967    1.8455   -0.6660 C   0  0  0  0  0  0  0  0  0  0  0  0
    2.4003    0.9125    0.3194 C   0  0  0  0  0  0  0  0  0  0  0  0
    1.0842    0.3253    0.5893 C   0  0  0  0  0  0  0  0  0  0  0  0
    0.8986   -1.0514    0.0774 C   0  0  0  0  0  0  0  0  0  0  0  0
    1.9350   -1.9382   -0.0623 C   0  0  0  0  0  0  0  0  0  0  0  0
    1.7265   -3.2185   -0.5233 C   0  0  0  0  0  0  0  0  0  0  0  0
    3.1102   -4.3131   -0.6852 Cl  0  0  0  0  0  0  0  0  0  0  0  0
    0.4736   -3.6703   -0.8651 C   0  0  0  0  0  0  0  0  0  0  0  0
   -0.5633   -2.7806   -0.7257 C   0  0  0  0  0  0  0  0  0  0  0  0
   -0.3773   -1.4968   -0.2681 C   0  0  0  0  0  0  0  0  0  0  0  0
   -1.4307   -0.6048   -0.1380 O   0  0  0  0  0  0  0  0  0  0  0  0
   -2.7252   -1.0216   -0.4519 C   0  0  0  0  0  0  0  0  0  0  0  0
   -3.7297    0.0559   -0.3069 C   0  0  0  0  0  0  0  0  0  0  0  0
   -4.2379    0.6374   -1.4559 C   0  0  0  0  0  0  0  0  0  0  0  0
   -5.1679    1.6459   -1.4258 C   0  0  0  0  0  0  0  0  0  0  0  0
   -5.6097    2.0942   -0.2048 C   0  0  0  0  0  0  0  0  0  0  0  0
   -6.5239    3.0836   -0.0647 F   0  0  0  0  0  0  0  0  0  0  0  0
   -5.1208    1.5318    0.9727 C   0  0  0  0  0  0  0  0  0  0  0  0
   -4.1927    0.5255    0.8982 C   0  0  0  0  0  0  0  0  0  0  0  0
   -3.5945   -0.1692    2.3877 Cl  0  0  0  0  0  0  0  0  0  0  0  0
    3.4672    0.5564    1.0467 N   0  0  0  0  0  0  0  0  0  0  0  0
    5.9264    2.3749   -0.2304 H   0  0  0  0  0  0  0  0  0  0  0  0
    3.9864    3.1202   -1.6588 H   0  0  0  0  0  0  0  0  0  0  0  0
    1.7529    2.1519   -1.2619 H   0  0  0  0  0  0  0  0  0  0  0  0
    0.8077    0.3542    1.6759 H   0  0  0  0  0  0  0  0  0  0  0  0
    0.2646    0.9414    0.1084 H   0  0  0  0  0  0  0  0  0  0  0  0
    2.9340   -1.6395    0.1872 H   0  0  0  0  0  0  0  0  0  0  0  0
    0.3532   -4.6894   -1.2209 H   0  0  0  0  0  0  0  0  0  0  0  0
   -1.5461   -3.1368   -0.9958 H   0  0  0  0  0  0  0  0  0  0  0  0
   -3.0095   -1.7703    0.3589 H   0  0  0  0  0  0  0  0  0  0  0  0
   -2.8305   -1.5558   -1.3843 H   0  0  0  0  0  0  0  0  0  0  0  0
   -3.8658    0.2630   -2.4163 H   0  0  0  0  0  0  0  0  0  0  0  0
   -5.5610    2.1007   -2.3159 H   0  0  0  0  0  0  0  0  0  0  0  0
   -5.4817    1.8942    1.9346 H   0  0  0  0  0  0  0  0  0  0  0  0
  1  2  2  0
  2  3  1  0
  2  4  1  0
  4  5  2  0
  5  6  1  0
  6  7  2  0
  7  8  1  0
  8  9  1  0
  9 10  1  0
 10 11  2  0
 11 12  1  0
 12 13  1  0
 12 14  2  0
 14 15  1  0
 15 16  2  0
 16 17  1  0
 17 18  1  0
 18 19  1  0
 19 20  2  0
 20 21  1  0
 21 22  2  0
 22 23  1  0
 22 24  1  0
 24 25  2  0
 25 26  1  0
  8 27  2  0
 27  4  1  0
 16 10  1  0
 25 19  1  0
  5 28  1  0
  6 29  1  0
  7 30  1  0
  9 31  1  0
  9 32  1  0
 11 33  1  0
 14 34  1  0
 15 35  1  0
 18 36  1  0
 18 37  1  0
 20 38  1  0
 21 39  1  0
 24 40  1  0
M  CHG  1   3  -1
M  END
$$$$
