@<TRIPOS>MOLECULE
*****
 40 42 0 0 0
SMALL
GASTEIGER

@<TRIPOS>ATOM
      1 O           6.9842    1.0118    1.5976 O.co2   1  UNL1       -0.5431
      2 C           5.8158    0.5776    1.7260 C.2     1  UNL1        0.0899
      3 OXT         5.5497   -0.3722    2.6889 O.co2   1  UNL1       -0.5431
      4 CA          4.7099    1.0459    0.8810 C.ar    1  UNL1        0.0864
      5 C           4.9214    1.9884   -0.1099 C.ar    1  UNL1       -0.0345
      6 C           3.8695    2.3905   -0.8850 C.ar    1  UNL1       -0.0580
      7 C           2.5967    1.8455   -0.6660 C.ar    1  UNL1       -0.0400
      8 C           2.4003    0.9125    0.3194 C.ar    1  UNL1        0.0464
      9 C           1.0842    0.3253    0.5893 C.3     1  UNL1        0.0183
     10 C           0.8986   -1.0514    0.0774 C.ar    1  UNL1        0.0014
     11 C           1.9350   -1.9382   -0.0623 C.ar    1  UNL1       -0.0364
     12 C           1.7265   -3.2185   -0.5233 C.ar    1  UNL1        0.0415
     13 CL          3.1102   -4.3131   -0.6852 Cl      1  UNL1       -0.0835
     14 C           0.4736   -3.6703   -0.8651 C.ar    1  UNL1       -0.0399
     15 C          -0.5633   -2.7806   -0.7257 C.ar    1  UNL1       -0.0183
     16 C          -0.3773   -1.4968   -0.2681 C.ar    1  UNL1        0.1246
     17 O          -1.4307   -0.6048   -0.1380 O.3     1  UNL1       -0.4870
     18 C          -2.7252   -1.0216   -0.4519 C.3     1  UNL1        0.1160
     19 C          -3.7297    0.0559   -0.3069 C.ar    1  UNL1        0.0081
     20 C          -4.2379    0.6374   -1.4559 C.ar    1  UNL1       -0.0513
     21 C          -5.1679    1.6459   -1.4258 C.ar    1  UNL1       -0.0260
     22 C          -5.6097    2.0942   -0.2048 C.ar    1  UNL1        0.1248
     23 F          -6.5239    3.0836   -0.0647 F       1  UNL1       -0.2054
     24 C          -5.1208    1.5318    0.9727 C.ar    1  UNL1       -0.0077
     25 C          -4.1927    0.5255    0.8982 C.ar    1  UNL1        0.0501
     26 CL         -3.5945   -0.1692    2.3877 Cl      1  UNL1       -0.0831
     27 N           3.4672    0.5564    1.0467 N.ar    1  UNL1       -0.2501
     28 H           5.9264    2.3749   -0.2304 H       1  UNL1        0.0639
     29 H           3.9864    3.1202   -1.6588 H       1  UNL1        0.0619
     30 H           1.7529    2.1519   -1.2619 H       1  UNL1        0.0636
     31 H           0.8077    0.3542    1.6759 H       1  UNL1        0.0378
     32 H           0.2646    0.9414    0.1084 H       1  UNL1        0.0378
     33 H           2.9340   -1.6395    0.1872 H       1  UNL1        0.0636
     34 H           0.3532   -4.6894   -1.2209 H       1  UNL1        0.0633
     35 H          -1.5461   -3.1368   -0.9958 H       1  UNL1        0.0655
     36 H          -3.0095   -1.7703    0.3589 H       1  UNL1        0.0748
     37 H          -2.8305   -1.5558   -1.3843 H       1  UNL1        0.0748
     38 H          -3.8658    0.2630   -2.4163 H       1  UNL1        0.0623
     39 H          -5.5610    2.1007   -2.3159 H       1  UNL1        0.0646
     40 H          -5.4817    1.8942    1.9346 H       1  UNL1        0.0661
@<TRIPOS>UNITY_ATOM_ATTR
3 1
charge -1
@<TRIPOS>BOND
     1     1     2   ar
     2     2     3   ar
     3     2     4    1
     4     4     5   ar
     5     5     6   ar
     6     6     7   ar
     7     7     8   ar
     8     8     9    1
     9     9    10    1
    10    10    11   ar
    11    11    12   ar
    12    12    13    1
    13    12    14   ar
    14    14    15   ar
    15    15    16   ar
    16    16    17    1
    17    17    18    1
    18    18    19    1
    19    19    20   ar
    20    20    21   ar
    21    21    22   ar
    22    22    23    1
    23    22    24   ar
    24    24    25   ar
    25    25    26    1
    26     8    27   ar
    27    27     4   ar
    28    16    10   ar
    29    25    19   ar
    30     5    28    1
    31     6    29    1
    32     7    30    1
    33     9    31    1
    34     9    32    1
    35    11    33    1
    36    14    34    1
    37    15    35    1
    38    18    36    1
    39    18    37    1
    40    20    38    1
    41    21    39    1
    42    24    40    1
