
     RDKit          3D

 57 59  0  0  0  0  0  0  0  0999 V2000
   -5.3403   -0.1445   -0.3207 C   0  0  0  0  0  0  0  0  0  0  0  0
   -4.3636   -0.3000    0.7864 C   0  0  0  0  0  0  0  0  0  0  0  0
   -2.9738    0.1059    0.5004 C   0  0  0  0  0  0  0  0  0  0  0  0
   -1.9274   -0.7597    0.5191 C   0  0  0  0  0  0  0  0  0  0  0  0
   -2.1364   -2.1617    0.8321 C   0  0  0  0  0  0  0  0  0  0  0  0
   -3.1050   -2.9089    0.1429 C   0  0  0  0  0  0  0  0  0  0  0  0
   -3.4123   -4.2324    0.3504 C   0  0  0  0  0  0  0  0  0  0  0  0
   -2.7286   -4.9198    1.3150 C   0  0  0  0  0  0  0  0  0  0  0  0
   -1.7583   -4.2655    2.0430 C   0  0  0  0  0  0  0  0  0  0  0  0
   -1.5138   -2.9426    1.7713 C   0  0  0  0  0  0  0  0  0  0  0  0
   -0.6028   -0.2690    0.1321 C   0  0  0  0  0  0  0  0  0  0  0  0
   -0.6638    0.4343   -1.0581 C   0  0  0  0  0  0  0  0  0  0  0  0
    0.4421    1.0168   -1.6567 C   0  0  0  0  0  0  0  0  0  0  0  0
    1.7016    0.9171   -1.0691 C   0  0  0  0  0  0  0  0  0  0  0  0
    2.7659    1.4943   -1.6704 O   0  0  0  0  0  0  0  0  0  0  0  0
    4.1013    1.5472   -1.3362 C   0  0  0  0  0  0  0  0  0  0  0  0
    4.8516    0.2661   -1.2632 C   0  0  0  0  0  0  0  0  0  0  0  0
    6.2551    0.4147   -0.8980 N   0  0  0  0  0  0  0  0  0  0  0  0
    6.3834    0.8737    0.4802 C   0  0  0  0  0  0  0  0  0  0  0  0
    6.7678   -0.9717   -0.8547 C   0  0  0  0  0  0  0  0  0  0  0  0
    1.7344    0.2169    0.1091 C   0  0  0  0  0  0  0  0  0  0  0  0
    0.6421   -0.3607    0.7031 C   0  0  0  0  0  0  0  0  0  0  0  0
   -2.7909    1.5358    0.2597 C   0  0  0  0  0  0  0  0  0  0  0  0
   -3.4541    2.4274   -0.5474 C   0  0  0  0  0  0  0  0  0  0  0  0
   -3.1615    3.7648   -0.6255 C   0  0  0  0  0  0  0  0  0  0  0  0
   -2.1412    4.2959    0.1388 C   0  0  0  0  0  0  0  0  0  0  0  0
   -1.4405    3.4265    0.9729 C   0  0  0  0  0  0  0  0  0  0  0  0
   -1.7702    2.0691    1.0240 C   0  0  0  0  0  0  0  0  0  0  0  0
   -6.0740   -1.0095   -0.2127 H   0  0  0  0  0  0  0  0  0  0  0  0
   -4.9561   -0.2584   -1.3409 H   0  0  0  0  0  0  0  0  0  0  0  0
   -6.0142    0.7484   -0.2024 H   0  0  0  0  0  0  0  0  0  0  0  0
   -4.7041    0.4325    1.5975 H   0  0  0  0  0  0  0  0  0  0  0  0
   -4.4496   -1.2747    1.2876 H   0  0  0  0  0  0  0  0  0  0  0  0
   -3.7077   -2.4696   -0.6511 H   0  0  0  0  0  0  0  0  0  0  0  0
   -4.1488   -4.7754   -0.1827 H   0  0  0  0  0  0  0  0  0  0  0  0
   -2.9215   -5.9498    1.5246 H   0  0  0  0  0  0  0  0  0  0  0  0
   -1.2198   -4.7987    2.8001 H   0  0  0  0  0  0  0  0  0  0  0  0
   -0.7525   -2.4982    2.3878 H   0  0  0  0  0  0  0  0  0  0  0  0
   -1.5691    0.6043   -1.6626 H   0  0  0  0  0  0  0  0  0  0  0  0
    0.3923    1.5727   -2.5992 H   0  0  0  0  0  0  0  0  0  0  0  0
    4.6318    2.3015   -1.9829 H   0  0  0  0  0  0  0  0  0  0  0  0
    4.1772    2.0206   -0.3068 H   0  0  0  0  0  0  0  0  0  0  0  0
    4.8943   -0.1254   -2.3270 H   0  0  0  0  0  0  0  0  0  0  0  0
    4.4066   -0.5372   -0.6930 H   0  0  0  0  0  0  0  0  0  0  0  0
    7.3419    0.4832    0.8701 H   0  0  0  0  0  0  0  0  0  0  0  0
    6.4860    1.9843    0.5340 H   0  0  0  0  0  0  0  0  0  0  0  0
    5.5987    0.4779    1.1425 H   0  0  0  0  0  0  0  0  0  0  0  0
    7.7956   -0.9345   -0.4687 H   0  0  0  0  0  0  0  0  0  0  0  0
    6.7532   -1.4265   -1.8516 H   0  0  0  0  0  0  0  0  0  0  0  0
    6.0866   -1.5644   -0.1878 H   0  0  0  0  0  0  0  0  0  0  0  0
    2.6408    0.0754    0.6753 H   0  0  0  0  0  0  0  0  0  0  0  0
    0.6730   -0.8988    1.6287 H   0  0  0  0  0  0  0  0  0  0  0  0
   -4.2381    1.9838   -1.1347 H   0  0  0  0  0  0  0  0  0  0  0  0
   -3.7712    4.3351   -1.3095 H   0  0  0  0  0  0  0  0  0  0  0  0
   -1.9452    5.3528    0.0441 H   0  0  0  0  0  0  0  0  0  0  0  0
   -0.6691    3.9533    1.5196 H   0  0  0  0  0  0  0  0  0  0  0  0
   -1.0978    1.6251    1.7420 H   0  0  0  0  0  0  0  0  0  0  0  0
  1  2  1  0
  2  3  1  0
  3  4  2  0
  4  5  1  0
  5  6  2  0
  6  7  1  0
  7  8  2  0
  8  9  1  0
  9 10  2  0
  4 11  1  0
 11 12  2  0
 12 13  1  0
 13 14  2  0
 14 15  1  0
 15 16  1  0
 16 17  1  0
 17 18  1  0
 18 19  1  0
 18 20  1  0
 14 21  1  0
 21 22  2  0
  3 23  1  0
 23 24  2  0
 24 25  1  0
 25 26  2  0
 26 27  1  0
 27 28  2  0
 10  5  1  0
 22 11  1  0
 28 23  1  0
  1 29  1  0
  1 30  1  0
  1 31  1  0
  2 32  1  0
  2 33  1  0
  6 34  1  0
  7 35  1  0
  8 36  1  0
  9 37  1  0
 10 38  1  0
 12 39  1  0
 13 40  1  0
 16 41  1  0
 16 42  1  0
 17 43  1  0
 17 44  1  0
 19 45  1  0
 19 46  1  0
 19 47  1  0
 20 48  1  0
 20 49  1  0
 20 50  1  0
 21 51  1  0
 22 52  1  0
 24 53  1  0
 25 54  1  0
 26 55  1  0
 27 56  1  0
 28 57  1  0
M  END
$$$$
