@<TRIPOS>MOLECULE
*****
 20 19 0 0 0
SMALL
GASTEIGER

@<TRIPOS>ATOM
      1 CA          1.4609   -0.4631   -0.0694 C.3     1  UNL1        0.1549
      2 N           1.8163   -1.2335    1.0785 N.3     1  UNL1       -0.3144
      3 C           1.8199    0.9410    0.1386 C.2     1  UNL1        0.3267
      4 O           1.6541    2.0057   -0.7066 O.3     1  UNL1       -0.4794
      5 OXT         2.3540    1.1974    1.2498 O.2     1  UNL1       -0.2491
      6 C           0.0234   -0.6651   -0.4903 C.3     1  UNL1        0.1929
      7 O          -0.1356   -2.0300   -0.7894 O.3     1  UNL1       -0.3649
      8 O          -0.8884   -0.3973    0.5153 O.3     1  UNL1       -0.2548
      9 P          -2.0487    0.6796   -0.0052 P.3     1  UNL1        0.4746
     10 O          -3.2447   -0.0427   -0.9464 O.3     1  UNL1       -0.3025
     11 O          -2.8114    1.4224    1.3268 O.3     1  UNL1       -0.3025
     12 O          -1.4338    1.7756   -0.8412 O.2     1  UNL1       -0.2274
     13 HA          2.0833   -0.8446   -0.9206 H       1  UNL1        0.0626
     14 H1          2.2573   -0.7292    1.8526 H       1  UNL1        0.1191
     15 H2          1.1921   -2.0132    1.3107 H       1  UNL1        0.1191
     16 H           2.1096    2.9074   -0.5705 H       1  UNL1        0.2951
     17 H          -0.2409   -0.0993   -1.3861 H       1  UNL1        0.0935
     18 H           0.3784   -2.1556   -1.6444 H       1  UNL1        0.2126
     19 H          -3.1360   -1.0196   -1.0354 H       1  UNL1        0.2220
     20 H          -3.2098    0.7642    1.9333 H       1  UNL1        0.2220
@<TRIPOS>BOND
     1     1     2    1
     2     1     3    1
     3     3     4    1
     4     3     5    2
     5     1     6    1
     6     6     7    1
     7     6     8    1
     8     8     9    1
     9     9    10    1
    10     9    11    1
    11     9    12    2
    12     1    13    1
    13     2    14    1
    14     2    15    1
    15     4    16    1
    16     6    17    1
    17     7    18    1
    18    10    19    1
    19    11    20    1
