@<TRIPOS>MOLECULE
*****
 57 61 0 0 0
SMALL
GASTEIGER

@<TRIPOS>ATOM
      1 C          -1.2123   -2.1333   -1.6810 C.3     1  UNL1       -0.0351
      2 C          -0.8280   -1.1357   -0.5659 C.3     1  UNL1        0.0935
      3 C           0.3754   -0.4007   -1.0521 C.ar    1  UNL1        0.0158
      4 C           1.6038   -0.5768   -0.4232 C.ar    1  UNL1       -0.0463
      5 C           2.7435    0.0576   -0.8282 C.ar    1  UNL1       -0.0217
      6 C           3.9791   -0.2171   -0.0914 C.2     1  UNL1       -0.0172
      7 C           4.8867    0.6890    0.1605 C.2     1  UNL1        0.1492
      8 F           4.6424    1.9441   -0.2979 F       1  UNL1       -0.2032
      9 C           6.1271    0.4497    0.8830 C.ar    1  UNL1        0.0990
     10 C           6.5145   -0.7605    1.4000 C.ar    1  UNL1       -0.0324
     11 C           7.7189   -0.8988    2.0716 C.ar    1  UNL1       -0.0442
     12 C           8.5796    0.1636    2.2517 C.ar    1  UNL1        0.0360
     13 BR         10.2439    0.0010    3.1714 Br      1  UNL1       -0.0487
     14 C           8.1572    1.3697    1.7173 C.ar    1  UNL1        0.0423
     15 N           6.9942    1.4773    1.0756 N.ar    1  UNL1       -0.2516
     16 C           2.6614    0.9071   -1.9073 C.ar    1  UNL1       -0.0518
     17 C           1.4545    1.1089   -2.5604 C.ar    1  UNL1       -0.0255
     18 C           0.3227    0.4557   -2.1301 C.ar    1  UNL1        0.1289
     19 F          -0.8890    0.6078   -2.7227 F       1  UNL1       -0.2051
     20 N          -0.4769   -1.9195    0.5365 N.2     1  UNL1       -0.2521
     21 C          -0.6513   -1.7836    1.7764 C.2     1  UNL1        0.1485
     22 N          -0.1854   -2.7530    2.7281 N.pl3   1  UNL1       -0.3380
     23 S          -1.5025   -0.3139    2.3002 S.3     1  UNL1       -0.0746
     24 C          -2.3482    0.3456    0.8207 C.3     1  UNL1        0.1054
     25 C          -3.7545    0.7127    1.0935 C.2     1  UNL1        0.2326
     26 O          -4.0789    0.5927    2.3753 O.2     1  UNL1       -0.2741
     27 N          -4.7648    1.1483    0.2624 N.am    1  UNL1       -0.2960
     28 C          -4.7255    1.4526   -1.1170 C.3     1  UNL1        0.0382
     29 C          -5.5380    0.3182   -1.7955 C.3     1  UNL1        0.0635
     30 O          -6.8384    0.3925   -1.2958 O.3     1  UNL1       -0.3767
     31 C          -6.9526    0.2693    0.0612 C.3     1  UNL1        0.0635
     32 C          -6.1284    1.2926    0.8524 C.3     1  UNL1        0.0382
     33 C          -1.4957    1.2264   -0.0247 C.3     1  UNL1       -0.0220
     34 C          -1.9414   -0.1708   -0.4352 C.3     1  UNL1        0.0134
     35 H          -1.8284   -2.9049   -1.1732 H       1  UNL1        0.0256
     36 H          -0.3131   -2.6239   -2.0844 H       1  UNL1        0.0256
     37 H          -1.8426   -1.6463   -2.4315 H       1  UNL1        0.0256
     38 H           1.6474   -1.2520    0.4316 H       1  UNL1        0.0628
     39 H           4.1699   -1.2340    0.2771 H       1  UNL1        0.0653
     40 H           5.8642   -1.6168    1.2787 H       1  UNL1        0.0640
     41 H           8.0258   -1.8628    2.4826 H       1  UNL1        0.0630
     42 H           8.8378    2.2152    1.8575 H       1  UNL1        0.0841
     43 H           3.5543    1.4080   -2.2319 H       1  UNL1        0.0624
     44 H           1.3905    1.7894   -3.4234 H       1  UNL1        0.0646
     45 H           0.7841   -2.7667    3.0884 H       1  UNL1        0.1442
     46 H          -0.8527   -3.4697    3.0678 H       1  UNL1        0.1442
     47 H          -3.7981    1.6000   -1.6299 H       1  UNL1        0.0487
     48 H          -5.4015    2.3741   -1.3353 H       1  UNL1        0.0487
     49 H          -5.5777    0.4472   -2.8766 H       1  UNL1        0.0575
     50 H          -5.0152   -0.6151   -1.5094 H       1  UNL1        0.0575
     51 H          -8.0119    0.4738    0.3220 H       1  UNL1        0.0575
     52 H          -6.7444   -0.7643    0.4264 H       1  UNL1        0.0575
     53 H          -6.5152    2.2863    0.6274 H       1  UNL1        0.0487
     54 H          -6.1253    0.9838    1.8947 H       1  UNL1        0.0487
     55 H          -1.8652    2.1222   -0.5060 H       1  UNL1        0.0287
     56 H          -0.4159    1.3477    0.3029 H       1  UNL1        0.0287
     57 H          -2.6600   -0.2098   -1.2739 H       1  UNL1        0.0346
@<TRIPOS>BOND
     1     2     1    1
     2     2     3    1
     3     3     4   ar
     4     4     5   ar
     5     5     6    1
     6     6     7    2
     7     7     8    1
     8     7     9    1
     9     9    10   ar
    10    10    11   ar
    11    11    12   ar
    12    12    13    1
    13    12    14   ar
    14    14    15   ar
    15     5    16   ar
    16    16    17   ar
    17    17    18   ar
    18    18    19    1
    19     2    20    1
    20    20    21    2
    21    21    22    1
    22    21    23    1
    23    23    24    1
    24    24    25    1
    25    25    26    2
    26    25    27   am
    27    27    28    1
    28    28    29    1
    29    29    30    1
    30    30    31    1
    31    31    32    1
    32    24    33    1
    33    33    34    1
    34    34     2    1
    35    18     3   ar
    36    34    24    1
    37    15     9   ar
    38    32    27    1
    39     1    35    1
    40     1    36    1
    41     1    37    1
    42     4    38    1
    43     6    39    1
    44    10    40    1
    45    11    41    1
    46    14    42    1
    47    16    43    1
    48    17    44    1
    49    22    45    1
    50    22    46    1
    51    28    47    1
    52    28    48    1
    53    29    49    1
    54    29    50    1
    55    31    51    1
    56    31    52    1
    57    32    53    1
    58    32    54    1
    59    33    55    1
    60    33    56    1
    61    34    57    1
