
     RDKit          3D

 57 61  0  0  0  0  0  0  0  0999 V2000
   -1.2123   -2.1333   -1.6810 C   0  0  0  0  0  0  0  0  0  0  0  0
   -0.8280   -1.1357   -0.5659 C   0  0  2  0  0  0  0  0  0  0  0  0
    0.3754   -0.4007   -1.0521 C   0  0  0  0  0  0  0  0  0  0  0  0
    1.6038   -0.5768   -0.4232 C   0  0  0  0  0  0  0  0  0  0  0  0
    2.7435    0.0576   -0.8282 C   0  0  0  0  0  0  0  0  0  0  0  0
    3.9791   -0.2171   -0.0914 C   0  0  0  0  0  0  0  0  0  0  0  0
    4.8867    0.6890    0.1605 C   0  0  0  0  0  0  0  0  0  0  0  0
    4.6424    1.9441   -0.2979 F   0  0  0  0  0  0  0  0  0  0  0  0
    6.1271    0.4497    0.8830 C   0  0  0  0  0  0  0  0  0  0  0  0
    6.5145   -0.7605    1.4000 C   0  0  0  0  0  0  0  0  0  0  0  0
    7.7189   -0.8988    2.0716 C   0  0  0  0  0  0  0  0  0  0  0  0
    8.5796    0.1636    2.2517 C   0  0  0  0  0  0  0  0  0  0  0  0
   10.2439    0.0010    3.1714 Br  0  0  0  0  0  0  0  0  0  0  0  0
    8.1572    1.3697    1.7173 C   0  0  0  0  0  0  0  0  0  0  0  0
    6.9942    1.4773    1.0756 N   0  0  0  0  0  0  0  0  0  0  0  0
    2.6614    0.9071   -1.9073 C   0  0  0  0  0  0  0  0  0  0  0  0
    1.4545    1.1089   -2.5604 C   0  0  0  0  0  0  0  0  0  0  0  0
    0.3227    0.4557   -2.1301 C   0  0  0  0  0  0  0  0  0  0  0  0
   -0.8890    0.6078   -2.7227 F   0  0  0  0  0  0  0  0  0  0  0  0
   -0.4769   -1.9195    0.5365 N   0  0  0  0  0  0  0  0  0  0  0  0
   -0.6513   -1.7836    1.7764 C   0  0  0  0  0  0  0  0  0  0  0  0
   -0.1854   -2.7530    2.7281 N   0  0  0  0  0  0  0  0  0  0  0  0
   -1.5025   -0.3139    2.3002 S   0  0  0  0  0  0  0  0  0  0  0  0
   -2.3482    0.3456    0.8207 C   0  0  1  0  0  0  0  0  0  0  0  0
   -3.7545    0.7127    1.0935 C   0  0  0  0  0  0  0  0  0  0  0  0
   -4.0789    0.5927    2.3753 O   0  0  0  0  0  0  0  0  0  0  0  0
   -4.7648    1.1483    0.2624 N   0  0  0  0  0  0  0  0  0  0  0  0
   -4.7255    1.4526   -1.1170 C   0  0  0  0  0  0  0  0  0  0  0  0
   -5.5380    0.3182   -1.7955 C   0  0  0  0  0  0  0  0  0  0  0  0
   -6.8384    0.3925   -1.2958 O   0  0  0  0  0  0  0  0  0  0  0  0
   -6.9526    0.2693    0.0612 C   0  0  0  0  0  0  0  0  0  0  0  0
   -6.1284    1.2926    0.8524 C   0  0  0  0  0  0  0  0  0  0  0  0
   -1.4957    1.2264   -0.0247 C   0  0  0  0  0  0  0  0  0  0  0  0
   -1.9414   -0.1708   -0.4352 C   0  0  1  0  0  0  0  0  0  0  0  0
   -1.8284   -2.9049   -1.1732 H   0  0  0  0  0  0  0  0  0  0  0  0
   -0.3131   -2.6239   -2.0844 H   0  0  0  0  0  0  0  0  0  0  0  0
   -1.8426   -1.6463   -2.4315 H   0  0  0  0  0  0  0  0  0  0  0  0
    1.6474   -1.2520    0.4316 H   0  0  0  0  0  0  0  0  0  0  0  0
    4.1699   -1.2340    0.2771 H   0  0  0  0  0  0  0  0  0  0  0  0
    5.8642   -1.6168    1.2787 H   0  0  0  0  0  0  0  0  0  0  0  0
    8.0258   -1.8628    2.4826 H   0  0  0  0  0  0  0  0  0  0  0  0
    8.8378    2.2152    1.8575 H   0  0  0  0  0  0  0  0  0  0  0  0
    3.5543    1.4080   -2.2319 H   0  0  0  0  0  0  0  0  0  0  0  0
    1.3905    1.7894   -3.4234 H   0  0  0  0  0  0  0  0  0  0  0  0
    0.7841   -2.7667    3.0884 H   0  0  0  0  0  0  0  0  0  0  0  0
   -0.8527   -3.4697    3.0678 H   0  0  0  0  0  0  0  0  0  0  0  0
   -3.7981    1.6000   -1.6299 H   0  0  0  0  0  0  0  0  0  0  0  0
   -5.4015    2.3741   -1.3353 H   0  0  0  0  0  0  0  0  0  0  0  0
   -5.5777    0.4472   -2.8766 H   0  0  0  0  0  0  0  0  0  0  0  0
   -5.0152   -0.6151   -1.5094 H   0  0  0  0  0  0  0  0  0  0  0  0
   -8.0119    0.4738    0.3220 H   0  0  0  0  0  0  0  0  0  0  0  0
   -6.7444   -0.7643    0.4264 H   0  0  0  0  0  0  0  0  0  0  0  0
   -6.5152    2.2863    0.6274 H   0  0  0  0  0  0  0  0  0  0  0  0
   -6.1253    0.9838    1.8947 H   0  0  0  0  0  0  0  0  0  0  0  0
   -1.8652    2.1222   -0.5060 H   0  0  0  0  0  0  0  0  0  0  0  0
   -0.4159    1.3477    0.3029 H   0  0  0  0  0  0  0  0  0  0  0  0
   -2.6600   -0.2098   -1.2739 H   0  0  0  0  0  0  0  0  0  0  0  0
  2  1  1  6
  2  3  1  0
  3  4  2  0
  4  5  1  0
  5  6  1  0
  6  7  2  0
  7  8  1  0
  7  9  1  0
  9 10  2  0
 10 11  1  0
 11 12  2  0
 12 13  1  0
 12 14  1  0
 14 15  2  0
  5 16  2  0
 16 17  1  0
 17 18  2  0
 18 19  1  0
  2 20  1  0
 20 21  2  0
 21 22  1  0
 21 23  1  0
 23 24  1  0
 24 25  1  1
 25 26  2  0
 25 27  1  0
 27 28  1  0
 28 29  1  0
 29 30  1  0
 30 31  1  0
 31 32  1  0
 24 33  1  0
 33 34  1  0
 34  2  1  0
 18  3  1  0
 34 24  1  0
 15  9  1  0
 32 27  1  0
  1 35  1  0
  1 36  1  0
  1 37  1  0
  4 38  1  0
  6 39  1  0
 10 40  1  0
 11 41  1  0
 14 42  1  0
 16 43  1  0
 17 44  1  0
 22 45  1  0
 22 46  1  0
 28 47  1  0
 28 48  1  0
 29 49  1  0
 29 50  1  0
 31 51  1  0
 31 52  1  0
 32 53  1  0
 32 54  1  0
 33 55  1  0
 33 56  1  0
 34 57  1  6
M  END
$$$$
