@<TRIPOS>MOLECULE
*****
 31 33 0 0 0
SMALL
GASTEIGER

@<TRIPOS>ATOM
      1 C          -5.0826    0.4556   -1.8950 C.3     1  UNL1       -0.0363
      2 C          -3.9442    0.3210   -0.9378 C.ar    1  UNL1       -0.0090
      3 C          -2.8396   -0.4075   -1.3119 C.ar    1  UNL1       -0.0547
      4 C          -1.7452   -0.5737   -0.4790 C.ar    1  UNL1       -0.0504
      5 C          -1.7589    0.0079    0.7651 C.ar    1  UNL1        0.0278
      6 C          -0.6659   -0.0638    1.7193 C.2     1  UNL1        0.2181
      7 O          -0.9276    0.0158    2.9613 O.2     1  UNL1       -0.2844
      8 C           0.7393   -0.2250    1.2898 C.ar    1  UNL1        0.1495
      9 N           1.8156   -0.4703    1.6618 N.ar    1  UNL1       -0.2357
     10 C           2.9578   -0.4925    1.0172 C.ar    1  UNL1        0.0792
     11 C           4.2370   -0.7924    1.5034 C.ar    1  UNL1       -0.0317
     12 C           5.3193   -0.7583    0.6600 C.ar    1  UNL1       -0.0181
     13 C           5.2407   -0.4430   -0.6648 C.ar    1  UNL1        0.1180
     14 O           6.3477   -0.4246   -1.4599 O.3     1  UNL1       -0.5067
     15 C           3.9778   -0.1408   -1.1726 C.ar    1  UNL1       -0.0043
     16 C           2.8821   -0.1772   -0.3102 C.ar    1  UNL1        0.0431
     17 S           1.1406    0.1337   -0.5409 S.2     1  UNL1       -0.0639
     18 C          -2.8826    0.7502    1.1505 C.ar    1  UNL1       -0.0090
     19 C          -3.9577    0.9023    0.3078 C.ar    1  UNL1        0.1204
     20 O          -5.0789    1.6325    0.6699 O.3     1  UNL1       -0.5065
     21 H          -6.0141    0.3411   -1.3280 H       1  UNL1        0.0279
     22 H          -5.0229    1.5029   -2.2950 H       1  UNL1        0.0279
     23 H          -4.9397   -0.2356   -2.7247 H       1  UNL1        0.0279
     24 H          -2.7906   -0.8838   -2.2870 H       1  UNL1        0.0622
     25 H          -0.8943   -1.1621   -0.7824 H       1  UNL1        0.0625
     26 H           4.4219   -1.0587    2.5391 H       1  UNL1        0.0640
     27 H           6.3172   -0.9999    1.0829 H       1  UNL1        0.0655
     28 H           7.2596   -0.7235   -1.2164 H       1  UNL1        0.2921
     29 H           3.8212    0.1145   -2.1945 H       1  UNL1        0.0666
     30 H          -2.8957    1.2126    2.1443 H       1  UNL1        0.0661
     31 H          -5.0369    2.6424    0.7770 H       1  UNL1        0.2921
@<TRIPOS>BOND
     1     1     2    1
     2     2     3   ar
     3     3     4   ar
     4     4     5   ar
     5     5     6    1
     6     6     7    2
     7     6     8    1
     8     8     9   ar
     9     9    10   ar
    10    10    11   ar
    11    11    12   ar
    12    12    13   ar
    13    13    14    1
    14    13    15   ar
    15    15    16   ar
    16    16    17   ar
    17     5    18   ar
    18    18    19   ar
    19    19    20    1
    20    19     2   ar
    21    17     8   ar
    22    16    10   ar
    23     1    21    1
    24     1    22    1
    25     1    23    1
    26     3    24    1
    27     4    25    1
    28    11    26    1
    29    12    27    1
    30    14    28    1
    31    15    29    1
    32    18    30    1
    33    20    31    1
