@<TRIPOS>MOLECULE
*****
 52 54 0 0 0
SMALL
GASTEIGER

@<TRIPOS>ATOM
      1 C          -6.0213   -2.6861    0.4398 C.3     1  UNL1       -0.0395
      2 C          -5.0393   -1.6439    0.0649 C.ar    1  UNL1       -0.0455
      3 C          -5.3229   -0.8106   -0.9886 C.ar    1  UNL1       -0.0376
      4 C          -4.4173    0.1721   -1.3574 C.ar    1  UNL1        0.0406
      5 C          -4.7245    1.0858   -2.5103 C.3     1  UNL1       -0.0223
      6 N          -3.2785    0.2748   -0.6600 N.ar    1  UNL1       -0.2371
      7 C          -2.9357   -0.5040    0.3794 C.ar    1  UNL1        0.1234
      8 N          -1.6970   -0.3557    1.0998 N.pl3   1  UNL1       -0.2976
      9 C          -0.7662    0.6819    0.8502 C.ar    1  UNL1        0.0650
     10 C           0.4918    0.3232    0.3245 C.ar    1  UNL1       -0.0159
     11 C           1.4382    1.2819    0.0536 C.ar    1  UNL1        0.0476
     12 N           2.7209    0.9510   -0.4597 N.pl3   1  UNL1       -0.3367
     13 C           3.0674   -0.4289   -0.6588 C.3     1  UNL1        0.0551
     14 C           3.0976   -1.1199    0.6807 C.3     1  UNL1        0.0854
     15 S           4.7218   -1.5782    1.2036 S.O2    1  UNL1       -0.0292
     16 O           4.8204   -1.3629    2.7081 O.2     1  UNL1       -0.1743
     17 O           4.9193   -3.0631    1.0070 O.2     1  UNL1       -0.1743
     18 C           6.0008   -0.6353    0.4670 C.3     1  UNL1        0.0673
     19 C           5.4779    0.1388   -0.7415 C.3     1  UNL1       -0.0166
     20 C           4.3643   -0.6738   -1.3436 C.3     1  UNL1        0.0263
     21 N           4.2797   -0.4650   -2.7879 N.3     1  UNL1       -0.3256
     22 C           1.0906    2.6071    0.3224 C.ar    1  UNL1        0.0494
     23 N          -0.1077    2.9313    0.8228 N.ar    1  UNL1       -0.2467
     24 C          -1.0629    1.9812    1.1002 C.ar    1  UNL1        0.1463
     25 C          -2.3123    2.3794    1.7203 C.2     1  UNL1        0.2617
     26 N          -2.7013    3.7217    1.8851 N.am    1  UNL1       -0.3240
     27 O          -3.0968    1.4948    2.1359 O.2     1  UNL1       -0.2687
     28 C          -3.8425   -1.4791    0.7395 C.ar    1  UNL1       -0.0186
     29 H          -5.4845   -3.6536    0.6264 H       1  UNL1        0.0278
     30 H          -6.5779   -2.4147    1.3714 H       1  UNL1        0.0278
     31 H          -6.7624   -2.8125   -0.3564 H       1  UNL1        0.0278
     32 H          -6.2620   -0.9252   -1.5332 H       1  UNL1        0.0638
     33 H          -3.7577    1.2895   -3.0093 H       1  UNL1        0.0292
     34 H          -5.4817    0.6216   -3.1488 H       1  UNL1        0.0292
     35 H          -5.0688    2.0333   -2.0443 H       1  UNL1        0.0292
     36 H          -1.4876   -1.0577    1.8417 H       1  UNL1        0.1536
     37 H           0.6446   -0.7278    0.1483 H       1  UNL1        0.0656
     38 H           3.3453    1.7630   -0.6708 H       1  UNL1        0.1465
     39 H           2.2784   -0.9086   -1.3223 H       1  UNL1        0.0529
     40 H           2.6018   -0.5333    1.4846 H       1  UNL1        0.0519
     41 H           2.5120   -2.0746    0.5699 H       1  UNL1        0.0519
     42 H           6.7619   -1.3458    0.0686 H       1  UNL1        0.0500
     43 H           6.4824    0.0784    1.1880 H       1  UNL1        0.0500
     44 H           5.1807    1.1198   -0.3462 H       1  UNL1        0.0296
     45 H           6.3011    0.2822   -1.4854 H       1  UNL1        0.0296
     46 H           4.5837   -1.7757   -1.2208 H       1  UNL1        0.0477
     47 H           3.3811   -0.8975   -3.0891 H       1  UNL1        0.1185
     48 H           5.1130   -0.9413   -3.1995 H       1  UNL1        0.1185
     49 H           1.8344    3.3741    0.1092 H       1  UNL1        0.0848
     50 H          -2.1844    4.4687    1.3954 H       1  UNL1        0.1453
     51 H          -3.4971    3.9641    2.4907 H       1  UNL1        0.1453
     52 H          -3.6209   -2.1448    1.5780 H       1  UNL1        0.0654
@<TRIPOS>BOND
     1     1     2    1
     2     2     3   ar
     3     3     4   ar
     4     4     5    1
     5     4     6   ar
     6     6     7   ar
     7     7     8    1
     8     8     9    1
     9     9    10   ar
    10    10    11   ar
    11    11    12    1
    12    12    13    1
    13    13    14    1
    14    14    15    1
    15    15    16    2
    16    15    17    2
    17    15    18    1
    18    18    19    1
    19    19    20    1
    20    20    21    1
    21    11    22   ar
    22    22    23   ar
    23    23    24   ar
    24    24    25    1
    25    25    26   am
    26    25    27    2
    27     7    28   ar
    28    28     2   ar
    29    24     9   ar
    30    20    13    1
    31     1    29    1
    32     1    30    1
    33     1    31    1
    34     3    32    1
    35     5    33    1
    36     5    34    1
    37     5    35    1
    38     8    36    1
    39    10    37    1
    40    12    38    1
    41    13    39    1
    42    14    40    1
    43    14    41    1
    44    18    42    1
    45    18    43    1
    46    19    44    1
    47    19    45    1
    48    20    46    1
    49    21    47    1
    50    21    48    1
    51    22    49    1
    52    26    50    1
    53    26    51    1
    54    28    52    1
