
     RDKit          3D

 52 54  0  0  0  0  0  0  0  0999 V2000
   -6.0213   -2.6861    0.4398 C   0  0  0  0  0  0  0  0  0  0  0  0
   -5.0393   -1.6439    0.0649 C   0  0  0  0  0  0  0  0  0  0  0  0
   -5.3229   -0.8106   -0.9886 C   0  0  0  0  0  0  0  0  0  0  0  0
   -4.4173    0.1721   -1.3574 C   0  0  0  0  0  0  0  0  0  0  0  0
   -4.7245    1.0858   -2.5103 C   0  0  0  0  0  0  0  0  0  0  0  0
   -3.2785    0.2748   -0.6600 N   0  0  0  0  0  0  0  0  0  0  0  0
   -2.9357   -0.5040    0.3794 C   0  0  0  0  0  0  0  0  0  0  0  0
   -1.6970   -0.3557    1.0998 N   0  0  0  0  0  0  0  0  0  0  0  0
   -0.7662    0.6819    0.8502 C   0  0  0  0  0  0  0  0  0  0  0  0
    0.4918    0.3232    0.3245 C   0  0  0  0  0  0  0  0  0  0  0  0
    1.4382    1.2819    0.0536 C   0  0  0  0  0  0  0  0  0  0  0  0
    2.7209    0.9510   -0.4597 N   0  0  0  0  0  0  0  0  0  0  0  0
    3.0674   -0.4289   -0.6588 C   0  0  2  0  0  0  0  0  0  0  0  0
    3.0976   -1.1199    0.6807 C   0  0  0  0  0  0  0  0  0  0  0  0
    4.7218   -1.5782    1.2036 S   0  0  0  0  0  6  0  0  0  0  0  0
    4.8204   -1.3629    2.7081 O   0  0  0  0  0  0  0  0  0  0  0  0
    4.9193   -3.0631    1.0070 O   0  0  0  0  0  0  0  0  0  0  0  0
    6.0008   -0.6353    0.4670 C   0  0  0  0  0  0  0  0  0  0  0  0
    5.4779    0.1388   -0.7415 C   0  0  0  0  0  0  0  0  0  0  0  0
    4.3643   -0.6738   -1.3436 C   0  0  2  0  0  0  0  0  0  0  0  0
    4.2797   -0.4650   -2.7879 N   0  0  0  0  0  0  0  0  0  0  0  0
    1.0906    2.6071    0.3224 C   0  0  0  0  0  0  0  0  0  0  0  0
   -0.1077    2.9313    0.8228 N   0  0  0  0  0  0  0  0  0  0  0  0
   -1.0629    1.9812    1.1002 C   0  0  0  0  0  0  0  0  0  0  0  0
   -2.3123    2.3794    1.7203 C   0  0  0  0  0  0  0  0  0  0  0  0
   -2.7013    3.7217    1.8851 N   0  0  0  0  0  0  0  0  0  0  0  0
   -3.0968    1.4948    2.1359 O   0  0  0  0  0  0  0  0  0  0  0  0
   -3.8425   -1.4791    0.7395 C   0  0  0  0  0  0  0  0  0  0  0  0
   -5.4845   -3.6536    0.6264 H   0  0  0  0  0  0  0  0  0  0  0  0
   -6.5779   -2.4147    1.3714 H   0  0  0  0  0  0  0  0  0  0  0  0
   -6.7624   -2.8125   -0.3564 H   0  0  0  0  0  0  0  0  0  0  0  0
   -6.2620   -0.9252   -1.5332 H   0  0  0  0  0  0  0  0  0  0  0  0
   -3.7577    1.2895   -3.0093 H   0  0  0  0  0  0  0  0  0  0  0  0
   -5.4817    0.6216   -3.1488 H   0  0  0  0  0  0  0  0  0  0  0  0
   -5.0688    2.0333   -2.0443 H   0  0  0  0  0  0  0  0  0  0  0  0
   -1.4876   -1.0577    1.8417 H   0  0  0  0  0  0  0  0  0  0  0  0
    0.6446   -0.7278    0.1483 H   0  0  0  0  0  0  0  0  0  0  0  0
    3.3453    1.7630   -0.6708 H   0  0  0  0  0  0  0  0  0  0  0  0
    2.2784   -0.9086   -1.3223 H   0  0  0  0  0  0  0  0  0  0  0  0
    2.6018   -0.5333    1.4846 H   0  0  0  0  0  0  0  0  0  0  0  0
    2.5120   -2.0746    0.5699 H   0  0  0  0  0  0  0  0  0  0  0  0
    6.7619   -1.3458    0.0686 H   0  0  0  0  0  0  0  0  0  0  0  0
    6.4824    0.0784    1.1880 H   0  0  0  0  0  0  0  0  0  0  0  0
    5.1807    1.1198   -0.3462 H   0  0  0  0  0  0  0  0  0  0  0  0
    6.3011    0.2822   -1.4854 H   0  0  0  0  0  0  0  0  0  0  0  0
    4.5837   -1.7757   -1.2208 H   0  0  0  0  0  0  0  0  0  0  0  0
    3.3811   -0.8975   -3.0891 H   0  0  0  0  0  0  0  0  0  0  0  0
    5.1130   -0.9413   -3.1995 H   0  0  0  0  0  0  0  0  0  0  0  0
    1.8344    3.3741    0.1092 H   0  0  0  0  0  0  0  0  0  0  0  0
   -2.1844    4.4687    1.3954 H   0  0  0  0  0  0  0  0  0  0  0  0
   -3.4971    3.9641    2.4907 H   0  0  0  0  0  0  0  0  0  0  0  0
   -3.6209   -2.1448    1.5780 H   0  0  0  0  0  0  0  0  0  0  0  0
  1  2  1  0
  2  3  2  0
  3  4  1  0
  4  5  1  0
  4  6  2  0
  6  7  1  0
  7  8  1  0
  8  9  1  0
  9 10  2  0
 10 11  1  0
 11 12  1  0
 12 13  1  0
 13 14  1  0
 14 15  1  0
 15 16  2  0
 15 17  2  0
 15 18  1  0
 18 19  1  0
 19 20  1  0
 20 21  1  0
 11 22  2  0
 22 23  1  0
 23 24  2  0
 24 25  1  0
 25 26  1  0
 25 27  2  0
  7 28  2  0
 28  2  1  0
 24  9  1  0
 20 13  1  0
  1 29  1  0
  1 30  1  0
  1 31  1  0
  3 32  1  0
  5 33  1  0
  5 34  1  0
  5 35  1  0
  8 36  1  0
 10 37  1  0
 12 38  1  0
 13 39  1  6
 14 40  1  0
 14 41  1  0
 18 42  1  0
 18 43  1  0
 19 44  1  0
 19 45  1  0
 20 46  1  6
 21 47  1  0
 21 48  1  0
 22 49  1  0
 26 50  1  0
 26 51  1  0
 28 52  1  0
M  END
$$$$
