@<TRIPOS>MOLECULE
*****
 49 51 0 0 0
SMALL
GASTEIGER

@<TRIPOS>ATOM
      1 CA         -5.5817    0.0785    0.3898 C.3     1  UNL1        0.0491
      2 N          -6.9657   -0.2954    0.7697 N.3     1  UNL1       -0.3225
      3 C          -4.6908   -0.8336    1.1774 C.3     1  UNL1        0.0127
      4 C          -3.2141   -0.6510    0.9485 C.3     1  UNL1        0.1114
      5 S          -2.5479    0.8913    1.3488 S.3     1  UNL1       -0.0106
      6 C          -3.2184    2.2463    0.4676 C.3     1  UNL1        0.0995
      7 C          -0.8090    1.0061    1.4670 C.3     1  UNL1        0.1381
      8 C          -0.0077    0.7013    0.2595 C.3     1  UNL1        0.1340
      9 O           1.3474    0.8845    0.5818 O.3     1  UNL1       -0.3433
     10 C           2.0319    0.1328   -0.3753 C.3     1  UNL1        0.1668
     11 N           3.4244    0.0236   -0.0896 N.ar    1  UNL1       -0.2855
     12 C           3.9101   -0.4545    1.0722 C.ar    1  UNL1        0.1004
     13 N           5.2567   -0.4434    1.0665 N.ar    1  UNL1       -0.2306
     14 C           5.6806    0.0400   -0.0936 C.ar    1  UNL1        0.1473
     15 C           6.9081    0.2997   -0.7011 C.ar    1  UNL1        0.1472
     16 N           8.0597   -0.0121    0.0696 N.pl3   1  UNL1       -0.3413
     17 N           6.9364    0.8156   -1.9460 N.ar    1  UNL1       -0.2188
     18 C           5.8141    1.0878   -2.6206 C.ar    1  UNL1        0.1205
     19 N           4.6216    0.8396   -2.0403 N.ar    1  UNL1       -0.2159
     20 C           4.5319    0.3227   -0.7941 C.ar    1  UNL1        0.1674
     21 C           1.2975   -1.1776   -0.3115 C.3     1  UNL1        0.1286
     22 O           1.4769   -1.9379   -1.4636 O.3     1  UNL1       -0.3847
     23 C          -0.1436   -0.7103   -0.1762 C.3     1  UNL1        0.1158
     24 O          -0.6477   -0.7188   -1.4864 O.3     1  UNL1       -0.3863
     25 C          -5.4273   -0.1806   -1.0697 C.2     1  UNL1        0.0586
     26 O          -5.0617   -0.2703   -2.4050 O.co2   1  UNL1       -0.5482
     27 OXT        -6.1817   -0.8560   -1.7994 O.co2   1  UNL1       -0.5482
     28 HA         -5.4116    1.1350    0.6653 H       1  UNL1        0.0521
     29 H1         -7.5539    0.5839    0.7408 H       1  UNL1        0.1188
     30 H2         -6.9477   -0.5818    1.7704 H       1  UNL1        0.1188
     31 H          -4.9710   -1.9062    0.9369 H       1  UNL1        0.0329
     32 H          -4.9008   -0.7248    2.2876 H       1  UNL1        0.0329
     33 H          -2.9945   -0.9709   -0.1151 H       1  UNL1        0.0840
     34 H          -2.7230   -1.4925    1.5446 H       1  UNL1        0.0840
     35 H          -2.3526    2.9552    0.2364 H       1  UNL1        0.0803
     36 H          -3.9302    2.8771    1.0321 H       1  UNL1        0.0803
     37 H          -3.5842    1.9598   -0.5361 H       1  UNL1        0.0803
     38 H          -0.5904    2.0712    1.8009 H       1  UNL1        0.0867
     39 H          -0.4752    0.4107    2.3658 H       1  UNL1        0.0867
     40 H          -0.2476    1.4334   -0.5647 H       1  UNL1        0.0671
     41 H           1.8526    0.5442   -1.3940 H       1  UNL1        0.0866
     42 H           3.3426   -0.8119    1.9259 H       1  UNL1        0.1030
     43 H           8.7655    0.7721    0.0207 H       1  UNL1        0.1438
     44 H           8.1210   -0.8999    0.5763 H       1  UNL1        0.1438
     45 H           5.9621    1.4939   -3.5986 H       1  UNL1        0.1048
     46 H           1.5170   -1.7503    0.6068 H       1  UNL1        0.0665
     47 H           1.8351   -2.8423   -1.2129 H       1  UNL1        0.2101
     48 H          -0.7133   -1.3759    0.4869 H       1  UNL1        0.0648
     49 H          -0.7996    0.1993   -1.8223 H       1  UNL1        0.2100
@<TRIPOS>UNITY_ATOM_ATTR
5 1
charge 1
26 1
charge -1
@<TRIPOS>BOND
     1     1     2    1
     2     1     3    1
     3     3     4    1
     4     4     5    1
     5     5     6    1
     6     5     7    1
     7     7     8    1
     8     8     9    1
     9     9    10    1
    10    10    11    1
    11    11    12   ar
    12    12    13   ar
    13    13    14   ar
    14    14    15   ar
    15    15    16    1
    16    15    17   ar
    17    17    18   ar
    18    18    19   ar
    19    19    20   ar
    20    10    21    1
    21    21    22    1
    22    21    23    1
    23    23    24    1
    24     1    25    1
    25    25    26   ar
    26    25    27   ar
    27    23     8    1
    28    20    11   ar
    29    20    14   ar
    30     1    28    1
    31     2    29    1
    32     2    30    1
    33     3    31    1
    34     3    32    1
    35     4    33    1
    36     4    34    1
    37     6    35    1
    38     6    36    1
    39     6    37    1
    40     7    38    1
    41     7    39    1
    42     8    40    1
    43    10    41    1
    44    12    42    1
    45    16    43    1
    46    16    44    1
    47    18    45    1
    48    21    46    1
    49    22    47    1
    50    23    48    1
    51    24    49    1
