@<TRIPOS>MOLECULE
*****
 62 64 0 0 0
SMALL
GASTEIGER

@<TRIPOS>ATOM
      1 C           2.1457   -2.1457   -2.1658 C.3     1  UNL1       -0.0492
      2 C           2.4433   -2.2127   -0.6911 C.3     1  UNL1        0.0153
      3 N           1.3733   -1.5143    0.0961 N.am    1  UNL1       -0.2634
      4 C           0.2201   -2.2898    0.4653 C.3     1  UNL1        0.0434
      5 C          -0.7561   -2.4147   -0.6091 C.ar    1  UNL1       -0.0217
      6 C          -0.6441   -3.6028   -1.3762 C.ar    1  UNL1       -0.0449
      7 C          -1.4895   -3.8702   -2.4072 C.ar    1  UNL1        0.0552
      8 C          -1.4156   -5.0987   -3.2408 C.3     1  UNL1        0.4174
      9 F          -2.6745   -5.5779   -3.4571 F       1  UNL1       -0.1659
     10 F          -0.7953   -4.7415   -4.4303 F       1  UNL1       -0.1659
     11 F          -0.6940   -6.0468   -2.5507 F       1  UNL1       -0.1659
     12 C          -2.4753   -2.9397   -2.6919 C.ar    1  UNL1       -0.0495
     13 C          -2.5930   -1.7849   -1.9556 C.ar    1  UNL1       -0.0531
     14 C          -1.7160   -1.5032   -0.8832 C.ar    1  UNL1       -0.0097
     15 C          -1.9411   -0.2403   -0.1947 C.ar    1  UNL1        0.0244
     16 C          -1.5592    0.9483   -0.7821 C.ar    1  UNL1       -0.0468
     17 C          -1.8286    2.1654   -0.1776 C.ar    1  UNL1       -0.0360
     18 C          -1.4082    3.4345   -0.8238 C.3     1  UNL1        0.0699
     19 C          -2.4426    3.9668   -1.7092 C.2     1  UNL1        0.3091
     20 O          -3.5407    3.4123   -1.8910 O.2     1  UNL1       -0.2507
     21 O          -2.2069    5.1708   -2.4048 O.3     1  UNL1       -0.4804
     22 C          -2.4887    2.2387    1.0349 C.ar    1  UNL1       -0.0546
     23 C          -2.8738    1.0519    1.6285 C.ar    1  UNL1       -0.0191
     24 C          -2.6049   -0.1579    1.0258 C.ar    1  UNL1        0.1278
     25 O          -2.9882   -1.3467    1.6186 O.3     1  UNL1       -0.4945
     26 C          -3.6621   -1.4342    2.8432 C.3     1  UNL1        0.0788
     27 C           1.6089   -0.1479    0.3166 C.2     1  UNL1        0.4035
     28 O           0.8465    0.5241    1.0414 O.2     1  UNL1       -0.2262
     29 O           2.6698    0.4939   -0.2469 O.3     1  UNL1       -0.4455
     30 C           3.0538    1.8219   -0.1414 C.3     1  UNL1        0.1191
     31 C           3.3626    2.2931    1.2271 C.ar    1  UNL1       -0.0103
     32 C           4.6448    2.1208    1.7390 C.ar    1  UNL1       -0.0554
     33 C           4.9730    2.5583    3.0027 C.ar    1  UNL1       -0.0614
     34 C           4.0451    3.1863    3.8161 C.ar    1  UNL1       -0.0617
     35 C           2.7651    3.3680    3.3280 C.ar    1  UNL1       -0.0614
     36 C           2.4628    2.9182    2.0535 C.ar    1  UNL1       -0.0554
     37 H           1.2189   -1.6182   -2.4191 H       1  UNL1        0.0245
     38 H           2.0044   -3.2144   -2.5020 H       1  UNL1        0.0245
     39 H           3.0166   -1.7887   -2.7638 H       1  UNL1        0.0245
     40 H           3.3942   -1.6878   -0.4930 H       1  UNL1        0.0463
     41 H           2.5534   -3.2465   -0.3161 H       1  UNL1        0.0463
     42 H           0.5448   -3.3153    0.8184 H       1  UNL1        0.0515
     43 H          -0.2280   -1.7445    1.3429 H       1  UNL1        0.0515
     44 H           0.1250   -4.3326   -1.1577 H       1  UNL1        0.0626
     45 H          -3.1717   -3.1133   -3.5069 H       1  UNL1        0.0623
     46 H          -3.3615   -1.0488   -2.1694 H       1  UNL1        0.0624
     47 H          -1.0379    0.8796   -1.7394 H       1  UNL1        0.0628
     48 H          -1.1253    4.1985   -0.0591 H       1  UNL1        0.0426
     49 H          -0.5055    3.2012   -1.4380 H       1  UNL1        0.0426
     50 H          -2.8693    5.4774   -3.1055 H       1  UNL1        0.2951
     51 H          -2.7098    3.1779    1.5251 H       1  UNL1        0.0622
     52 H          -3.4001    1.1351    2.5925 H       1  UNL1        0.0654
     53 H          -3.3565   -2.4268    3.2829 H       1  UNL1        0.0660
     54 H          -4.7681   -1.5004    2.7459 H       1  UNL1        0.0660
     55 H          -3.4465   -0.6254    3.5610 H       1  UNL1        0.0660
     56 H           3.9047    1.9911   -0.8439 H       1  UNL1        0.0749
     57 H           2.2149    2.4452   -0.5736 H       1  UNL1        0.0749
     58 H           5.4084    1.6379    1.1511 H       1  UNL1        0.0621
     59 H           5.9718    2.4350    3.4268 H       1  UNL1        0.0618
     60 H           4.3063    3.5335    4.8179 H       1  UNL1        0.0618
     61 H           2.0463    3.8594    3.9687 H       1  UNL1        0.0618
     62 H           1.4537    3.0875    1.7131 H       1  UNL1        0.0621
@<TRIPOS>BOND
     1     1     2    1
     2     2     3    1
     3     3     4    1
     4     4     5    1
     5     5     6   ar
     6     6     7   ar
     7     7     8    1
     8     8     9    1
     9     8    10    1
    10     8    11    1
    11     7    12   ar
    12    12    13   ar
    13    13    14   ar
    14    14    15    1
    15    15    16   ar
    16    16    17   ar
    17    17    18    1
    18    18    19    1
    19    19    20    2
    20    19    21    1
    21    17    22   ar
    22    22    23   ar
    23    23    24   ar
    24    24    25    1
    25    25    26    1
    26     3    27   am
    27    27    28    2
    28    27    29    1
    29    29    30    1
    30    30    31    1
    31    31    32   ar
    32    32    33   ar
    33    33    34   ar
    34    34    35   ar
    35    35    36   ar
    36    14     5   ar
    37    24    15   ar
    38    36    31   ar
    39     1    37    1
    40     1    38    1
    41     1    39    1
    42     2    40    1
    43     2    41    1
    44     4    42    1
    45     4    43    1
    46     6    44    1
    47    12    45    1
    48    13    46    1
    49    16    47    1
    50    18    48    1
    51    18    49    1
    52    21    50    1
    53    22    51    1
    54    23    52    1
    55    26    53    1
    56    26    54    1
    57    26    55    1
    58    30    56    1
    59    30    57    1
    60    32    58    1
    61    33    59    1
    62    34    60    1
    63    35    61    1
    64    36    62    1
