
     RDKit          3D

 62 64  0  0  0  0  0  0  0  0999 V2000
    2.1457   -2.1457   -2.1658 C   0  0  0  0  0  0  0  0  0  0  0  0
    2.4433   -2.2127   -0.6911 C   0  0  0  0  0  0  0  0  0  0  0  0
    1.3733   -1.5143    0.0961 N   0  0  0  0  0  0  0  0  0  0  0  0
    0.2201   -2.2898    0.4653 C   0  0  0  0  0  0  0  0  0  0  0  0
   -0.7561   -2.4147   -0.6091 C   0  0  0  0  0  0  0  0  0  0  0  0
   -0.6441   -3.6028   -1.3762 C   0  0  0  0  0  0  0  0  0  0  0  0
   -1.4895   -3.8702   -2.4072 C   0  0  0  0  0  0  0  0  0  0  0  0
   -1.4156   -5.0987   -3.2408 C   0  0  0  0  0  0  0  0  0  0  0  0
   -2.6745   -5.5779   -3.4571 F   0  0  0  0  0  0  0  0  0  0  0  0
   -0.7953   -4.7415   -4.4303 F   0  0  0  0  0  0  0  0  0  0  0  0
   -0.6940   -6.0468   -2.5507 F   0  0  0  0  0  0  0  0  0  0  0  0
   -2.4753   -2.9397   -2.6919 C   0  0  0  0  0  0  0  0  0  0  0  0
   -2.5930   -1.7849   -1.9556 C   0  0  0  0  0  0  0  0  0  0  0  0
   -1.7160   -1.5032   -0.8832 C   0  0  0  0  0  0  0  0  0  0  0  0
   -1.9411   -0.2403   -0.1947 C   0  0  0  0  0  0  0  0  0  0  0  0
   -1.5592    0.9483   -0.7821 C   0  0  0  0  0  0  0  0  0  0  0  0
   -1.8286    2.1654   -0.1776 C   0  0  0  0  0  0  0  0  0  0  0  0
   -1.4082    3.4345   -0.8238 C   0  0  0  0  0  0  0  0  0  0  0  0
   -2.4426    3.9668   -1.7092 C   0  0  0  0  0  0  0  0  0  0  0  0
   -3.5407    3.4123   -1.8910 O   0  0  0  0  0  0  0  0  0  0  0  0
   -2.2069    5.1708   -2.4048 O   0  0  0  0  0  0  0  0  0  0  0  0
   -2.4887    2.2387    1.0349 C   0  0  0  0  0  0  0  0  0  0  0  0
   -2.8738    1.0519    1.6285 C   0  0  0  0  0  0  0  0  0  0  0  0
   -2.6049   -0.1579    1.0258 C   0  0  0  0  0  0  0  0  0  0  0  0
   -2.9882   -1.3467    1.6186 O   0  0  0  0  0  0  0  0  0  0  0  0
   -3.6621   -1.4342    2.8432 C   0  0  0  0  0  0  0  0  0  0  0  0
    1.6089   -0.1479    0.3166 C   0  0  0  0  0  0  0  0  0  0  0  0
    0.8465    0.5241    1.0414 O   0  0  0  0  0  0  0  0  0  0  0  0
    2.6698    0.4939   -0.2469 O   0  0  0  0  0  0  0  0  0  0  0  0
    3.0538    1.8219   -0.1414 C   0  0  0  0  0  0  0  0  0  0  0  0
    3.3626    2.2931    1.2271 C   0  0  0  0  0  0  0  0  0  0  0  0
    4.6448    2.1208    1.7390 C   0  0  0  0  0  0  0  0  0  0  0  0
    4.9730    2.5583    3.0027 C   0  0  0  0  0  0  0  0  0  0  0  0
    4.0451    3.1863    3.8161 C   0  0  0  0  0  0  0  0  0  0  0  0
    2.7651    3.3680    3.3280 C   0  0  0  0  0  0  0  0  0  0  0  0
    2.4628    2.9182    2.0535 C   0  0  0  0  0  0  0  0  0  0  0  0
    1.2189   -1.6182   -2.4191 H   0  0  0  0  0  0  0  0  0  0  0  0
    2.0044   -3.2144   -2.5020 H   0  0  0  0  0  0  0  0  0  0  0  0
    3.0166   -1.7887   -2.7638 H   0  0  0  0  0  0  0  0  0  0  0  0
    3.3942   -1.6878   -0.4930 H   0  0  0  0  0  0  0  0  0  0  0  0
    2.5534   -3.2465   -0.3161 H   0  0  0  0  0  0  0  0  0  0  0  0
    0.5448   -3.3153    0.8184 H   0  0  0  0  0  0  0  0  0  0  0  0
   -0.2280   -1.7445    1.3429 H   0  0  0  0  0  0  0  0  0  0  0  0
    0.1250   -4.3326   -1.1577 H   0  0  0  0  0  0  0  0  0  0  0  0
   -3.1717   -3.1133   -3.5069 H   0  0  0  0  0  0  0  0  0  0  0  0
   -3.3615   -1.0488   -2.1694 H   0  0  0  0  0  0  0  0  0  0  0  0
   -1.0379    0.8796   -1.7394 H   0  0  0  0  0  0  0  0  0  0  0  0
   -1.1253    4.1985   -0.0591 H   0  0  0  0  0  0  0  0  0  0  0  0
   -0.5055    3.2012   -1.4380 H   0  0  0  0  0  0  0  0  0  0  0  0
   -2.8693    5.4774   -3.1055 H   0  0  0  0  0  0  0  0  0  0  0  0
   -2.7098    3.1779    1.5251 H   0  0  0  0  0  0  0  0  0  0  0  0
   -3.4001    1.1351    2.5925 H   0  0  0  0  0  0  0  0  0  0  0  0
   -3.3565   -2.4268    3.2829 H   0  0  0  0  0  0  0  0  0  0  0  0
   -4.7681   -1.5004    2.7459 H   0  0  0  0  0  0  0  0  0  0  0  0
   -3.4465   -0.6254    3.5610 H   0  0  0  0  0  0  0  0  0  0  0  0
    3.9047    1.9911   -0.8439 H   0  0  0  0  0  0  0  0  0  0  0  0
    2.2149    2.4452   -0.5736 H   0  0  0  0  0  0  0  0  0  0  0  0
    5.4084    1.6379    1.1511 H   0  0  0  0  0  0  0  0  0  0  0  0
    5.9718    2.4350    3.4268 H   0  0  0  0  0  0  0  0  0  0  0  0
    4.3063    3.5335    4.8179 H   0  0  0  0  0  0  0  0  0  0  0  0
    2.0463    3.8594    3.9687 H   0  0  0  0  0  0  0  0  0  0  0  0
    1.4537    3.0875    1.7131 H   0  0  0  0  0  0  0  0  0  0  0  0
  1  2  1  0
  2  3  1  0
  3  4  1  0
  4  5  1  0
  5  6  2  0
  6  7  1  0
  7  8  1  0
  8  9  1  0
  8 10  1  0
  8 11  1  0
  7 12  2  0
 12 13  1  0
 13 14  2  0
 14 15  1  0
 15 16  2  0
 16 17  1  0
 17 18  1  0
 18 19  1  0
 19 20  2  0
 19 21  1  0
 17 22  2  0
 22 23  1  0
 23 24  2  0
 24 25  1  0
 25 26  1  0
  3 27  1  0
 27 28  2  0
 27 29  1  0
 29 30  1  0
 30 31  1  0
 31 32  2  0
 32 33  1  0
 33 34  2  0
 34 35  1  0
 35 36  2  0
 14  5  1  0
 24 15  1  0
 36 31  1  0
  1 37  1  0
  1 38  1  0
  1 39  1  0
  2 40  1  0
  2 41  1  0
  4 42  1  0
  4 43  1  0
  6 44  1  0
 12 45  1  0
 13 46  1  0
 16 47  1  0
 18 48  1  0
 18 49  1  0
 21 50  1  0
 22 51  1  0
 23 52  1  0
 26 53  1  0
 26 54  1  0
 26 55  1  0
 30 56  1  0
 30 57  1  0
 32 58  1  0
 33 59  1  0
 34 60  1  0
 35 61  1  0
 36 62  1  0
M  END
$$$$
