@<TRIPOS>MOLECULE
*****
 60 62 0 0 0
SMALL
GASTEIGER

@<TRIPOS>ATOM
      1 C          -8.5087    1.0470   -1.1791 C.3     1  UNL1       -0.0389
      2 C          -7.8595    1.3030    0.1610 C.3     1  UNL1        0.0537
      3 C          -8.6794    0.6177    1.2347 C.3     1  UNL1       -0.0389
      4 O          -6.5728    0.8298    0.2425 O.3     1  UNL1       -0.3679
      5 C          -5.6306    1.7964    0.4854 C.3     1  UNL1        0.1240
      6 C          -4.2875    1.1405    0.5480 C.2     1  UNL1        0.2389
      7 O          -3.3235    1.9025    0.7649 O.2     1  UNL1       -0.2733
      8 N          -4.1780   -0.2466    0.3670 N.am    1  UNL1       -0.3107
      9 C          -2.9713   -0.9953    0.3902 C.3     1  UNL1        0.0406
     10 C          -1.9386   -0.7294   -0.6384 C.3     1  UNL1        0.0843
     11 O          -2.5590   -0.9267   -1.8957 O.3     1  UNL1       -0.3869
     12 C          -0.9569   -1.9355   -0.5503 C.3     1  UNL1       -0.0066
     13 C           0.1193   -1.5484    0.4045 C.3     1  UNL1        0.0175
     14 N           0.9846   -0.5991   -0.3098 N.pl3   1  UNL1       -0.2994
     15 C           2.3810   -0.6217   -0.1202 C.ar    1  UNL1        0.2214
     16 N           3.2065    0.2296   -0.7547 N.ar    1  UNL1       -0.1790
     17 C           4.5363    0.1790   -0.5487 C.ar    1  UNL1        0.2254
     18 O           5.3429    1.0747   -1.2239 O.3     1  UNL1       -0.4378
     19 C           6.7172    1.0650   -1.0476 C.ar    1  UNL1        0.1331
     20 C           7.5079    0.2794   -1.8623 C.ar    1  UNL1       -0.0191
     21 C           8.8896    0.2414   -1.7182 C.ar    1  UNL1       -0.0556
     22 C           9.4983    1.0018   -0.7418 C.ar    1  UNL1       -0.0262
     23 C           8.7042    1.7977    0.0845 C.ar    1  UNL1        0.1269
     24 F           9.2988    2.5427    1.0406 F       1  UNL1       -0.2054
     25 C           7.3257    1.8152   -0.0833 C.ar    1  UNL1        0.0160
     26 C           5.1084   -0.7346    0.3103 C.ar    1  UNL1        0.0305
     27 C           4.2457   -1.6010    0.9534 C.ar    1  UNL1        0.1522
     28 C           4.7031   -2.6437    1.9098 C.3     1  UNL1        0.4345
     29 F           5.7197   -2.1844    2.7214 F       1  UNL1       -0.1644
     30 F           5.1692   -3.7076    1.1603 F       1  UNL1       -0.1644
     31 F           3.6700   -3.0799    2.6821 F       1  UNL1       -0.1644
     32 N           2.9399   -1.5081    0.7137 N.ar    1  UNL1       -0.2101
     33 C           0.2693    0.3139   -1.1849 C.3     1  UNL1        0.0175
     34 C          -1.1272    0.4962   -0.5600 C.3     1  UNL1       -0.0066
     35 H          -9.3598    1.7489   -1.2715 H       1  UNL1        0.0254
     36 H          -7.8198    1.2382   -2.0169 H       1  UNL1        0.0254
     37 H          -8.8709   -0.0035   -1.2588 H       1  UNL1        0.0254
     38 H          -7.8300    2.4086    0.3184 H       1  UNL1        0.0590
     39 H          -9.7126    0.5507    0.8682 H       1  UNL1        0.0254
     40 H          -8.6352    1.2052    2.1788 H       1  UNL1        0.0254
     41 H          -8.3218   -0.4233    1.4114 H       1  UNL1        0.0254
     42 H          -5.5712    2.5094   -0.3815 H       1  UNL1        0.0657
     43 H          -5.8029    2.3830    1.4050 H       1  UNL1        0.0657
     44 H          -5.0750   -0.8147    0.1932 H       1  UNL1        0.1489
     45 H          -2.5556   -0.8929    1.4420 H       1  UNL1        0.0490
     46 H          -3.1727   -2.1136    0.3448 H       1  UNL1        0.0490
     47 H          -1.9305   -1.3498   -2.5328 H       1  UNL1        0.2102
     48 H          -1.4958   -2.8433   -0.2613 H       1  UNL1        0.0309
     49 H          -0.4933   -2.0119   -1.5608 H       1  UNL1        0.0309
     50 H           0.6776   -2.4628    0.6924 H       1  UNL1        0.0465
     51 H          -0.2209   -1.0554    1.3217 H       1  UNL1        0.0465
     52 H           7.0624   -0.3319   -2.6411 H       1  UNL1        0.0654
     53 H           9.4939   -0.3864   -2.3730 H       1  UNL1        0.0620
     54 H          10.5772    0.9750   -0.6259 H       1  UNL1        0.0646
     55 H           6.7208    2.4291    0.5551 H       1  UNL1        0.0683
     56 H           6.1564   -0.8051    0.4991 H       1  UNL1        0.0692
     57 H           0.1821   -0.0466   -2.2137 H       1  UNL1        0.0465
     58 H           0.7580    1.3054   -1.0868 H       1  UNL1        0.0465
     59 H          -0.9263    0.8620    0.4457 H       1  UNL1        0.0309
     60 H          -1.5787    1.3140   -1.1562 H       1  UNL1        0.0309
@<TRIPOS>BOND
     1     1     2    1
     2     2     3    1
     3     2     4    1
     4     4     5    1
     5     5     6    1
     6     6     7    2
     7     6     8   am
     8     8     9    1
     9     9    10    1
    10    10    11    1
    11    10    12    1
    12    12    13    1
    13    13    14    1
    14    14    15    1
    15    15    16   ar
    16    16    17   ar
    17    17    18    1
    18    18    19    1
    19    19    20   ar
    20    20    21   ar
    21    21    22   ar
    22    22    23   ar
    23    23    24    1
    24    23    25   ar
    25    17    26   ar
    26    26    27   ar
    27    27    28    1
    28    28    29    1
    29    28    30    1
    30    28    31    1
    31    27    32   ar
    32    14    33    1
    33    33    34    1
    34    34    10    1
    35    32    15   ar
    36    25    19   ar
    37     1    35    1
    38     1    36    1
    39     1    37    1
    40     2    38    1
    41     3    39    1
    42     3    40    1
    43     3    41    1
    44     5    42    1
    45     5    43    1
    46     8    44    1
    47     9    45    1
    48     9    46    1
    49    11    47    1
    50    12    48    1
    51    12    49    1
    52    13    50    1
    53    13    51    1
    54    20    52    1
    55    21    53    1
    56    22    54    1
    57    25    55    1
    58    26    56    1
    59    33    57    1
    60    33    58    1
    61    34    59    1
    62    34    60    1
