
     RDKit          3D

 60 62  0  0  0  0  0  0  0  0999 V2000
   -8.5087    1.0470   -1.1791 C   0  0  0  0  0  0  0  0  0  0  0  0
   -7.8595    1.3030    0.1610 C   0  0  0  0  0  0  0  0  0  0  0  0
   -8.6794    0.6177    1.2347 C   0  0  0  0  0  0  0  0  0  0  0  0
   -6.5728    0.8298    0.2425 O   0  0  0  0  0  0  0  0  0  0  0  0
   -5.6306    1.7964    0.4854 C   0  0  0  0  0  0  0  0  0  0  0  0
   -4.2875    1.1405    0.5480 C   0  0  0  0  0  0  0  0  0  0  0  0
   -3.3235    1.9025    0.7649 O   0  0  0  0  0  0  0  0  0  0  0  0
   -4.1780   -0.2466    0.3670 N   0  0  0  0  0  0  0  0  0  0  0  0
   -2.9713   -0.9953    0.3902 C   0  0  0  0  0  0  0  0  0  0  0  0
   -1.9386   -0.7294   -0.6384 C   0  0  0  0  0  0  0  0  0  0  0  0
   -2.5590   -0.9267   -1.8957 O   0  0  0  0  0  0  0  0  0  0  0  0
   -0.9569   -1.9355   -0.5503 C   0  0  0  0  0  0  0  0  0  0  0  0
    0.1193   -1.5484    0.4045 C   0  0  0  0  0  0  0  0  0  0  0  0
    0.9846   -0.5991   -0.3098 N   0  0  0  0  0  0  0  0  0  0  0  0
    2.3810   -0.6217   -0.1202 C   0  0  0  0  0  0  0  0  0  0  0  0
    3.2065    0.2296   -0.7547 N   0  0  0  0  0  0  0  0  0  0  0  0
    4.5363    0.1790   -0.5487 C   0  0  0  0  0  0  0  0  0  0  0  0
    5.3429    1.0747   -1.2239 O   0  0  0  0  0  0  0  0  0  0  0  0
    6.7172    1.0650   -1.0476 C   0  0  0  0  0  0  0  0  0  0  0  0
    7.5079    0.2794   -1.8623 C   0  0  0  0  0  0  0  0  0  0  0  0
    8.8896    0.2414   -1.7182 C   0  0  0  0  0  0  0  0  0  0  0  0
    9.4983    1.0018   -0.7418 C   0  0  0  0  0  0  0  0  0  0  0  0
    8.7042    1.7977    0.0845 C   0  0  0  0  0  0  0  0  0  0  0  0
    9.2988    2.5427    1.0406 F   0  0  0  0  0  0  0  0  0  0  0  0
    7.3257    1.8152   -0.0833 C   0  0  0  0  0  0  0  0  0  0  0  0
    5.1084   -0.7346    0.3103 C   0  0  0  0  0  0  0  0  0  0  0  0
    4.2457   -1.6010    0.9534 C   0  0  0  0  0  0  0  0  0  0  0  0
    4.7031   -2.6437    1.9098 C   0  0  0  0  0  0  0  0  0  0  0  0
    5.7197   -2.1844    2.7214 F   0  0  0  0  0  0  0  0  0  0  0  0
    5.1692   -3.7076    1.1603 F   0  0  0  0  0  0  0  0  0  0  0  0
    3.6700   -3.0799    2.6821 F   0  0  0  0  0  0  0  0  0  0  0  0
    2.9399   -1.5081    0.7137 N   0  0  0  0  0  0  0  0  0  0  0  0
    0.2693    0.3139   -1.1849 C   0  0  0  0  0  0  0  0  0  0  0  0
   -1.1272    0.4962   -0.5600 C   0  0  0  0  0  0  0  0  0  0  0  0
   -9.3598    1.7489   -1.2715 H   0  0  0  0  0  0  0  0  0  0  0  0
   -7.8198    1.2382   -2.0169 H   0  0  0  0  0  0  0  0  0  0  0  0
   -8.8709   -0.0035   -1.2588 H   0  0  0  0  0  0  0  0  0  0  0  0
   -7.8300    2.4086    0.3184 H   0  0  0  0  0  0  0  0  0  0  0  0
   -9.7126    0.5507    0.8682 H   0  0  0  0  0  0  0  0  0  0  0  0
   -8.6352    1.2052    2.1788 H   0  0  0  0  0  0  0  0  0  0  0  0
   -8.3218   -0.4233    1.4114 H   0  0  0  0  0  0  0  0  0  0  0  0
   -5.5712    2.5094   -0.3815 H   0  0  0  0  0  0  0  0  0  0  0  0
   -5.8029    2.3830    1.4050 H   0  0  0  0  0  0  0  0  0  0  0  0
   -5.0750   -0.8147    0.1932 H   0  0  0  0  0  0  0  0  0  0  0  0
   -2.5556   -0.8929    1.4420 H   0  0  0  0  0  0  0  0  0  0  0  0
   -3.1727   -2.1136    0.3448 H   0  0  0  0  0  0  0  0  0  0  0  0
   -1.9305   -1.3498   -2.5328 H   0  0  0  0  0  0  0  0  0  0  0  0
   -1.4958   -2.8433   -0.2613 H   0  0  0  0  0  0  0  0  0  0  0  0
   -0.4933   -2.0119   -1.5608 H   0  0  0  0  0  0  0  0  0  0  0  0
    0.6776   -2.4628    0.6924 H   0  0  0  0  0  0  0  0  0  0  0  0
   -0.2209   -1.0554    1.3217 H   0  0  0  0  0  0  0  0  0  0  0  0
    7.0624   -0.3319   -2.6411 H   0  0  0  0  0  0  0  0  0  0  0  0
    9.4939   -0.3864   -2.3730 H   0  0  0  0  0  0  0  0  0  0  0  0
   10.5772    0.9750   -0.6259 H   0  0  0  0  0  0  0  0  0  0  0  0
    6.7208    2.4291    0.5551 H   0  0  0  0  0  0  0  0  0  0  0  0
    6.1564   -0.8051    0.4991 H   0  0  0  0  0  0  0  0  0  0  0  0
    0.1821   -0.0466   -2.2137 H   0  0  0  0  0  0  0  0  0  0  0  0
    0.7580    1.3054   -1.0868 H   0  0  0  0  0  0  0  0  0  0  0  0
   -0.9263    0.8620    0.4457 H   0  0  0  0  0  0  0  0  0  0  0  0
   -1.5787    1.3140   -1.1562 H   0  0  0  0  0  0  0  0  0  0  0  0
  1  2  1  0
  2  3  1  0
  2  4  1  0
  4  5  1  0
  5  6  1  0
  6  7  2  0
  6  8  1  0
  8  9  1  0
  9 10  1  0
 10 11  1  0
 10 12  1  0
 12 13  1  0
 13 14  1  0
 14 15  1  0
 15 16  2  0
 16 17  1  0
 17 18  1  0
 18 19  1  0
 19 20  2  0
 20 21  1  0
 21 22  2  0
 22 23  1  0
 23 24  1  0
 23 25  2  0
 17 26  2  0
 26 27  1  0
 27 28  1  0
 28 29  1  0
 28 30  1  0
 28 31  1  0
 27 32  2  0
 14 33  1  0
 33 34  1  0
 34 10  1  0
 32 15  1  0
 25 19  1  0
  1 35  1  0
  1 36  1  0
  1 37  1  0
  2 38  1  0
  3 39  1  0
  3 40  1  0
  3 41  1  0
  5 42  1  0
  5 43  1  0
  8 44  1  0
  9 45  1  0
  9 46  1  0
 11 47  1  0
 12 48  1  0
 12 49  1  0
 13 50  1  0
 13 51  1  0
 20 52  1  0
 21 53  1  0
 22 54  1  0
 25 55  1  0
 26 56  1  0
 33 57  1  0
 33 58  1  0
 34 59  1  0
 34 60  1  0
M  END
$$$$
