@<TRIPOS>MOLECULE
*****
 59 63 0 0 0
SMALL
GASTEIGER

@<TRIPOS>ATOM
      1 C          -0.2508    0.7264   -1.7015 C.3     1  UNL1       -0.0351
      2 C          -0.0887   -0.7067   -1.3832 C.3     1  UNL1        0.0935
      3 C           1.2368   -1.0477   -0.7992 C.ar    1  UNL1        0.0158
      4 C           2.2818   -0.2097   -0.7309 C.ar    1  UNL1       -0.0463
      5 C           3.4954   -0.5442   -0.0770 C.ar    1  UNL1       -0.0217
      6 C           4.6335    0.4320    0.0645 C.2     1  UNL1       -0.0171
      7 C           5.1477    0.4269    1.3008 C.2     1  UNL1        0.1506
      8 F           4.6104   -0.4025    2.2412 F       1  UNL1       -0.2032
      9 C           6.2683    1.2236    1.7623 C.ar    1  UNL1        0.1170
     10 C           6.7364    2.2636    0.8415 C.ar    1  UNL1        0.0572
     11 N           7.7701    2.9005    1.3507 N.ar    1  UNL1       -0.2409
     12 C           8.3817    2.7417    2.4618 C.ar    1  UNL1        0.1581
     13 C           9.3468    3.7325    2.8595 C.1     1  UNL1        0.1206
     14 N          10.2113    4.6323    3.1951 N.1     1  UNL1       -0.1892
     15 C           7.9549    1.7194    3.3692 C.ar    1  UNL1        0.0642
     16 N           6.8591    1.0370    2.8629 N.ar    1  UNL1       -0.2483
     17 C           3.5951   -1.7870    0.4836 C.ar    1  UNL1       -0.0518
     18 C           2.5606   -2.7191    0.4164 C.ar    1  UNL1       -0.0255
     19 C           1.3665   -2.2867   -0.2408 C.ar    1  UNL1        0.1289
     20 F           0.3439   -3.1805   -0.2711 F       1  UNL1       -0.2051
     21 N          -0.3079   -1.6347   -2.4830 N.2     1  UNL1       -0.2521
     22 C          -1.4315   -1.7606   -3.0912 C.2     1  UNL1        0.1485
     23 N          -1.6620   -2.6541   -4.1150 N.pl3   1  UNL1       -0.3380
     24 S          -2.7790   -0.6893   -2.4391 S.3     1  UNL1       -0.0746
     25 C          -2.5331   -0.7765   -0.6682 C.3     1  UNL1        0.1054
     26 C          -3.3432   -0.0460    0.3143 C.2     1  UNL1        0.2324
     27 O          -2.7824    0.7685    1.0215 O.2     1  UNL1       -0.2741
     28 N          -4.7326   -0.2709    0.4639 N.am    1  UNL1       -0.3003
     29 C          -5.2907    0.2382    1.7400 C.3     1  UNL1        0.0147
     30 C          -5.6765    1.7063    1.4057 C.3     1  UNL1       -0.0371
     31 C          -5.9160    1.7184   -0.1344 C.3     1  UNL1       -0.0502
     32 C          -6.7866    0.5165   -0.4240 C.3     1  UNL1       -0.0371
     33 C          -5.7646   -0.7035   -0.4730 C.3     1  UNL1        0.0147
     34 C          -2.0316   -2.1932   -0.2570 C.3     1  UNL1       -0.0220
     35 C          -1.1096   -1.0508   -0.2586 C.3     1  UNL1        0.0134
     36 H           0.4871    1.3698   -1.1743 H       1  UNL1        0.0256
     37 H          -1.2568    1.1292   -1.3764 H       1  UNL1        0.0256
     38 H          -0.1588    0.9948   -2.8057 H       1  UNL1        0.0256
     39 H           2.2833    0.7985   -1.1748 H       1  UNL1        0.0628
     40 H           4.9942    1.0251   -0.7155 H       1  UNL1        0.0653
     41 H           6.2495    2.3450   -0.0652 H       1  UNL1        0.0852
     42 H           8.4495    1.5587    4.2537 H       1  UNL1        0.0859
     43 H           4.5393   -2.1229    0.9206 H       1  UNL1        0.0624
     44 H           2.5768   -3.6622    0.8925 H       1  UNL1        0.0646
     45 H          -2.4164   -2.7678   -4.7417 H       1  UNL1        0.1442
     46 H          -0.8455   -3.3793   -4.2289 H       1  UNL1        0.1442
     47 H          -6.2042   -0.3542    2.0129 H       1  UNL1        0.0464
     48 H          -4.5249    0.2139    2.5719 H       1  UNL1        0.0464
     49 H          -4.8373    2.3099    1.6251 H       1  UNL1        0.0280
     50 H          -6.6426    1.9039    1.8790 H       1  UNL1        0.0280
     51 H          -4.8705    1.4421   -0.5768 H       1  UNL1        0.0266
     52 H          -6.1528    2.6485   -0.5756 H       1  UNL1        0.0266
     53 H          -7.2956    0.2965    0.5585 H       1  UNL1        0.0280
     54 H          -7.4506    0.5510   -1.2115 H       1  UNL1        0.0280
     55 H          -5.4597   -0.8292   -1.4791 H       1  UNL1        0.0464
     56 H          -6.3869   -1.5077   -0.1287 H       1  UNL1        0.0464
     57 H          -2.4983   -2.5252    0.7071 H       1  UNL1        0.0287
     58 H          -2.1106   -2.9556   -1.0481 H       1  UNL1        0.0287
     59 H          -0.7820   -0.6028    0.7059 H       1  UNL1        0.0346
@<TRIPOS>BOND
     1     2     1    1
     2     2     3    1
     3     3     4   ar
     4     4     5   ar
     5     5     6    1
     6     6     7    2
     7     7     8    1
     8     7     9    1
     9     9    10   ar
    10    10    11   ar
    11    11    12   ar
    12    12    13    1
    13    13    14    3
    14    12    15   ar
    15    15    16   ar
    16     5    17   ar
    17    17    18   ar
    18    18    19   ar
    19    19    20    1
    20     2    21    1
    21    21    22    2
    22    22    23    1
    23    22    24    1
    24    24    25    1
    25    25    26    1
    26    26    27    2
    27    26    28   am
    28    28    29    1
    29    29    30    1
    30    30    31    1
    31    31    32    1
    32    32    33    1
    33    25    34    1
    34    34    35    1
    35    35     2    1
    36    19     3   ar
    37    35    25    1
    38    16     9   ar
    39    33    28    1
    40     1    36    1
    41     1    37    1
    42     1    38    1
    43     4    39    1
    44     6    40    1
    45    10    41    1
    46    15    42    1
    47    17    43    1
    48    18    44    1
    49    23    45    1
    50    23    46    1
    51    29    47    1
    52    29    48    1
    53    30    49    1
    54    30    50    1
    55    31    51    1
    56    31    52    1
    57    32    53    1
    58    32    54    1
    59    33    55    1
    60    33    56    1
    61    34    57    1
    62    34    58    1
    63    35    59    1
