
     RDKit          3D

 32 33  0  0  0  0  0  0  0  0999 V2000
   -4.0502   -2.8061   -1.3462 O   0  0  0  0  0  0  0  0  0  0  0  0
   -2.9490   -2.2956   -0.9345 C   0  0  0  0  0  0  0  0  0  0  0  0
   -1.8812   -3.1533   -0.9238 O   0  0  0  0  0  0  0  0  0  0  0  0
   -2.9670   -0.9057   -0.5394 C   0  0  0  0  0  0  0  0  0  0  0  0
   -4.1728   -0.1958   -0.6144 C   0  0  0  0  0  0  0  0  0  0  0  0
   -4.2765    1.1125   -0.2559 C   0  0  0  0  0  0  0  0  0  0  0  0
   -3.1887    1.8154    0.2044 C   0  0  0  0  0  0  0  0  0  0  0  0
   -1.9770    1.1324    0.2881 C   0  0  0  0  0  0  0  0  0  0  0  0
   -1.8819   -0.2006   -0.0790 C   0  0  0  0  0  0  0  0  0  0  0  0
   -0.6101   -0.8100    0.0644 N   0  0  0  0  0  0  0  0  0  0  0  0
    0.5091   -0.1442    0.6418 C   0  0  0  0  0  0  0  0  0  0  0  0
    0.5138    0.4794    1.8500 C   0  0  0  0  0  0  0  0  0  0  0  0
    1.6457    1.0964    2.2924 C   0  0  0  0  0  0  0  0  0  0  0  0
    2.7647    1.0423    1.4408 C   0  0  0  0  0  0  0  0  0  0  0  0
    2.8004    0.4251    0.2172 C   0  0  0  0  0  0  0  0  0  0  0  0
    4.2287    0.4437   -0.8298 S   0  0  0  0  0  6  0  0  0  0  0  0
    4.4091    1.8917   -1.4396 F   0  0  0  0  0  0  0  0  0  0  0  0
    5.1850   -0.9769    0.1146 F   0  0  0  0  0  0  0  0  0  0  0  0
    4.0066    0.3052   -2.7718 F   0  0  0  0  0  0  0  0  0  0  0  0
    6.0172    0.9430   -0.3756 F   0  0  0  0  0  0  0  0  0  0  0  0
    4.4860   -1.4567   -1.8192 F   0  0  0  0  0  0  0  0  0  0  0  0
    1.6604   -0.1636   -0.1639 C   0  0  0  0  0  0  0  0  0  0  0  0
   -1.9188   -4.1516   -0.8383 H   0  0  0  0  0  0  0  0  0  0  0  0
   -5.0280   -0.7395   -0.9740 H   0  0  0  0  0  0  0  0  0  0  0  0
   -5.2475    1.6138   -0.3365 H   0  0  0  0  0  0  0  0  0  0  0  0
   -3.2316    2.8441    0.4955 H   0  0  0  0  0  0  0  0  0  0  0  0
   -1.1476    1.7121    0.6349 H   0  0  0  0  0  0  0  0  0  0  0  0
   -0.4549   -1.7912   -0.2652 H   0  0  0  0  0  0  0  0  0  0  0  0
   -0.3617    0.4817    2.4626 H   0  0  0  0  0  0  0  0  0  0  0  0
    1.7640    1.6109    3.2108 H   0  0  0  0  0  0  0  0  0  0  0  0
    3.7267    1.5055    1.7046 H   0  0  0  0  0  0  0  0  0  0  0  0
    1.6274   -0.6644   -1.1150 H   0  0  0  0  0  0  0  0  0  0  0  0
  1  2  2  0
  2  3  1  0
  2  4  1  0
  4  5  2  0
  5  6  1  0
  6  7  2  0
  7  8  1  0
  8  9  2  0
  9 10  1  0
 10 11  1  0
 11 12  2  0
 12 13  1  0
 13 14  2  0
 14 15  1  0
 15 16  1  0
 16 17  1  0
 16 18  1  0
 16 19  1  0
 16 20  1  0
 16 21  1  0
 15 22  2  0
  9  4  1  0
 22 11  1  0
  3 23  1  0
  5 24  1  0
  6 25  1  0
  7 26  1  0
  8 27  1  0
 10 28  1  0
 12 29  1  0
 13 30  1  0
 14 31  1  0
 22 32  1  0
M  END
$$$$
