@<TRIPOS>MOLECULE
*****
 32 33 0 0 0
SMALL
GASTEIGER

@<TRIPOS>ATOM
      1 O          -4.0502   -2.8061   -1.3462 O.2     1  UNL1       -0.2451
      2 C          -2.9490   -2.2956   -0.9345 C.2     1  UNL1        0.3386
      3 O          -1.8812   -3.1533   -0.9238 O.3     1  UNL1       -0.4771
      4 C          -2.9670   -0.9057   -0.5394 C.ar    1  UNL1        0.0799
      5 C          -4.1728   -0.1958   -0.6144 C.ar    1  UNL1       -0.0460
      6 C          -4.2765    1.1125   -0.2559 C.ar    1  UNL1       -0.0609
      7 C          -3.1887    1.8154    0.2044 C.ar    1  UNL1       -0.0600
      8 C          -1.9770    1.1324    0.2881 C.ar    1  UNL1       -0.0397
      9 C          -1.8819   -0.2006   -0.0790 C.ar    1  UNL1        0.0454
     10 N          -0.6101   -0.8100    0.0644 N.pl3   1  UNL1       -0.3138
     11 C           0.5091   -0.1442    0.6418 C.ar    1  UNL1        0.0327
     12 C           0.5138    0.4794    1.8500 C.ar    1  UNL1       -0.0405
     13 C           1.6457    1.0964    2.2924 C.ar    1  UNL1       -0.0587
     14 C           2.7647    1.0423    1.4408 C.ar    1  UNL1       -0.0397
     15 C           2.8004    0.4251    0.2172 C.ar    1  UNL1        0.1079
     16 S           4.2287    0.4437   -0.8298 S.3     1  UNL1        0.3116
     17 F           4.4091    1.8917   -1.4396 F       1  UNL1       -0.0934
     18 F           5.1850   -0.9769    0.1146 F       1  UNL1       -0.0934
     19 F           4.0066    0.3052   -2.7718 F       1  UNL1       -0.0934
     20 F           6.0172    0.9430   -0.3756 F       1  UNL1       -0.0934
     21 F           4.4860   -1.4567   -1.8192 F       1  UNL1       -0.0934
     22 C           1.6604   -0.1636   -0.1639 C.ar    1  UNL1       -0.0186
     23 H          -1.9188   -4.1516   -0.8383 H       1  UNL1        0.2954
     24 H          -5.0280   -0.7395   -0.9740 H       1  UNL1        0.0626
     25 H          -5.2475    1.6138   -0.3365 H       1  UNL1        0.0618
     26 H          -3.2316    2.8441    0.4955 H       1  UNL1        0.0618
     27 H          -1.1476    1.7121    0.6349 H       1  UNL1        0.0636
     28 H          -0.4549   -1.7912   -0.2652 H       1  UNL1        0.1522
     29 H          -0.3617    0.4817    2.4626 H       1  UNL1        0.0636
     30 H           1.7640    1.6109    3.2108 H       1  UNL1        0.0619
     31 H           3.7267    1.5055    1.7046 H       1  UNL1        0.0631
     32 H           1.6274   -0.6644   -1.1150 H       1  UNL1        0.0650
@<TRIPOS>BOND
     1     1     2    2
     2     2     3    1
     3     2     4    1
     4     4     5   ar
     5     5     6   ar
     6     6     7   ar
     7     7     8   ar
     8     8     9   ar
     9     9    10    1
    10    10    11    1
    11    11    12   ar
    12    12    13   ar
    13    13    14   ar
    14    14    15   ar
    15    15    16    1
    16    16    17    1
    17    16    18    1
    18    16    19    1
    19    16    20    1
    20    16    21    1
    21    15    22   ar
    22     9     4   ar
    23    22    11   ar
    24     3    23    1
    25     5    24    1
    26     6    25    1
    27     7    26    1
    28     8    27    1
    29    10    28    1
    30    12    29    1
    31    13    30    1
    32    14    31    1
    33    22    32    1
