@<TRIPOS>MOLECULE
*****
 30 32 0 0 0
SMALL
GASTEIGER

@<TRIPOS>ATOM
      1 C          -0.5716   -1.7735    1.5597 C.3     1  UNL1       -0.0342
      2 C          -0.9625   -1.0079    0.3494 C.ar    1  UNL1        0.0216
      3 C          -0.2867   -0.8309   -0.8324 C.ar    1  UNL1        0.2516
      4 O          -0.9810   -0.0748   -1.6651 O.2     1  UNL1       -0.4372
      5 C          -2.1207    0.2703   -1.0763 C.ar    1  UNL1        0.1378
      6 C          -3.1908    1.0426   -1.5017 C.ar    1  UNL1       -0.0173
      7 C          -4.3042    1.2710   -0.6897 C.ar    1  UNL1       -0.0399
      8 C          -4.2810    0.6848    0.5622 C.ar    1  UNL1        0.0418
      9 CL         -5.7003    0.9929    1.5609 Cl      1  UNL1       -0.0835
     10 C          -3.2246   -0.0849    0.9984 C.ar    1  UNL1       -0.0323
     11 C          -2.1325   -0.2987    0.1791 C.ar    1  UNL1        0.0264
     12 S           1.2808   -1.5011   -1.2155 S.O2    1  UNL1        0.0765
     13 O           1.3570   -1.7105   -2.7205 O.2     1  UNL1       -0.1598
     14 O           1.5166   -2.8356   -0.6008 O.2     1  UNL1       -0.1598
     15 C           2.5494   -0.3771   -0.7263 C.ar    1  UNL1        0.2050
     16 N           3.8525   -0.6371   -0.9023 N.ar    1  UNL1       -0.1517
     17 N           4.8188    0.1683   -0.5540 N.ar    1  UNL1       -0.2414
     18 C           4.5297    1.3543    0.0262 C.ar    1  UNL1        0.2648
     19 O           5.4265    2.1855    0.3895 O.2     1  UNL1       -0.2664
     20 C           3.2139    1.7112    0.2491 C.ar    1  UNL1        0.0075
     21 C           2.2129    0.8402   -0.1293 C.ar    1  UNL1       -0.0107
     22 H           0.4089   -2.2584    1.3749 H       1  UNL1        0.0279
     23 H          -0.4656   -1.0353    2.3862 H       1  UNL1        0.0279
     24 H          -1.2953   -2.5705    1.7974 H       1  UNL1        0.0279
     25 H          -3.1397    1.4703   -2.4954 H       1  UNL1        0.0655
     26 H          -5.1324    1.8832   -1.0505 H       1  UNL1        0.0633
     27 H          -3.2659   -0.5179    1.9918 H       1  UNL1        0.0639
     28 H           5.8335   -0.0664   -0.7065 H       1  UNL1        0.1922
     29 H           2.8964    2.6537    0.7135 H       1  UNL1        0.0673
     30 H           1.1580    1.0522    0.0138 H       1  UNL1        0.0655
@<TRIPOS>BOND
     1     1     2    1
     2     2     3   ar
     3     3     4   ar
     4     4     5   ar
     5     5     6   ar
     6     6     7   ar
     7     7     8   ar
     8     8     9    1
     9     8    10   ar
    10    10    11   ar
    11     3    12    1
    12    12    13    2
    13    12    14    2
    14    12    15    1
    15    15    16   ar
    16    16    17   ar
    17    17    18   ar
    18    18    19    2
    19    18    20   ar
    20    20    21   ar
    21    11     2   ar
    22    21    15   ar
    23    11     5   ar
    24     1    22    1
    25     1    23    1
    26     1    24    1
    27     6    25    1
    28     7    26    1
    29    10    27    1
    30    17    28    1
    31    20    29    1
    32    21    30    1
