@<TRIPOS>MOLECULE
*****
 53 56 0 0 0
SMALL
GASTEIGER

@<TRIPOS>ATOM
      1 C           2.9043   -3.0902   -2.6930 C.3     1  UNL1        0.0790
      2 O           3.8880   -2.3960   -1.9935 O.3     1  UNL1       -0.4913
      3 C           3.6848   -1.3820   -1.0712 C.ar    1  UNL1        0.1650
      4 C           2.4466   -0.9008   -0.7029 C.ar    1  UNL1        0.0267
      5 C           2.3247    0.1295    0.2394 C.ar    1  UNL1        0.1432
      6 C           3.4623    0.6671    0.8043 C.ar    1  UNL1        0.0713
      7 C           4.7097    0.1972    0.4470 C.ar    1  UNL1       -0.0018
      8 C           4.7936   -0.8147   -0.4807 C.ar    1  UNL1        0.1624
      9 O           6.0533   -1.2716   -0.8253 O.3     1  UNL1       -0.4914
     10 C           7.2391   -0.7615   -0.2839 C.3     1  UNL1        0.0790
     11 C           3.0739    1.7120    1.7441 C.2     1  UNL1        0.2316
     12 O           3.7874    2.4475    2.4657 O.2     1  UNL1       -0.2832
     13 C           1.5999    1.7485    1.6880 C.2     1  UNL1        0.1761
     14 C           0.7786    2.5169    2.3469 C.2     1  UNL1       -0.0083
     15 C          -0.6552    2.3763    2.1293 C.ar    1  UNL1       -0.0211
     16 C          -1.4634    2.5170    3.2391 C.ar    1  UNL1       -0.0545
     17 C          -2.8459    2.4090    3.1575 C.ar    1  UNL1       -0.0609
     18 C          -3.4481    2.1549    1.9455 C.ar    1  UNL1       -0.0573
     19 C          -2.6444    2.0140    0.8359 C.ar    1  UNL1       -0.0328
     20 C          -3.2790    1.7470   -0.4623 C.3     1  UNL1        0.0241
     21 N          -3.4741    0.3768   -0.7887 N.3     1  UNL1       -0.2982
     22 C          -2.2989   -0.4250   -0.8324 C.3     1  UNL1       -0.0008
     23 C          -2.6210   -1.8889   -0.8737 C.3     1  UNL1       -0.0402
     24 C          -3.8977   -2.1919   -1.6293 C.3     1  UNL1       -0.0507
     25 C          -5.0548   -1.3591   -1.1249 C.3     1  UNL1       -0.0402
     26 C          -4.5585   -0.2879   -0.1463 C.3     1  UNL1       -0.0008
     27 C          -1.2514    2.1245    0.9283 C.ar    1  UNL1       -0.0501
     28 O           1.2128    0.7820    0.7733 O.3     1  UNL1       -0.4513
     29 H           2.4608   -3.9394   -2.1337 H       1  UNL1        0.0660
     30 H           2.1454   -2.3903   -3.0956 H       1  UNL1        0.0660
     31 H           3.3984   -3.5415   -3.6032 H       1  UNL1        0.0660
     32 H           1.5596   -1.3340   -1.1560 H       1  UNL1        0.0692
     33 H           5.5637    0.6499    0.9162 H       1  UNL1        0.0664
     34 H           8.0804   -1.1882   -0.8827 H       1  UNL1        0.0660
     35 H           7.3070   -1.1101    0.7625 H       1  UNL1        0.0660
     36 H           7.2646    0.3610   -0.3442 H       1  UNL1        0.0660
     37 H           1.1988    3.2365    3.0366 H       1  UNL1        0.0661
     38 H          -1.0442    2.7148    4.2026 H       1  UNL1        0.0623
     39 H          -3.4773    2.5188    4.0249 H       1  UNL1        0.0618
     40 H          -4.5344    2.0753    1.9097 H       1  UNL1        0.0621
     41 H          -2.7257    2.2678   -1.2707 H       1  UNL1        0.0476
     42 H          -4.2974    2.2312   -0.4549 H       1  UNL1        0.0476
     43 H          -1.6941   -0.0959   -1.7156 H       1  UNL1        0.0427
     44 H          -1.6300   -0.2675    0.0641 H       1  UNL1        0.0427
     45 H          -1.7916   -2.4043   -1.3967 H       1  UNL1        0.0278
     46 H          -2.6812   -2.3395    0.1465 H       1  UNL1        0.0278
     47 H          -4.1484   -3.2536   -1.4316 H       1  UNL1        0.0266
     48 H          -3.7389   -2.0624   -2.7027 H       1  UNL1        0.0266
     49 H          -5.8471   -1.9884   -0.6748 H       1  UNL1        0.0278
     50 H          -5.5172   -0.8550   -2.0070 H       1  UNL1        0.0278
     51 H          -4.2762   -0.8516    0.7774 H       1  UNL1        0.0427
     52 H          -5.4145    0.4011    0.0202 H       1  UNL1        0.0427
     53 H          -0.6272    2.0146    0.0586 H       1  UNL1        0.0627
@<TRIPOS>BOND
     1     1     2    1
     2     2     3    1
     3     3     4   ar
     4     4     5   ar
     5     5     6   ar
     6     6     7   ar
     7     7     8   ar
     8     8     9    1
     9     9    10    1
    10     6    11    1
    11    11    12    2
    12    11    13    1
    13    13    14    2
    14    14    15    1
    15    15    16   ar
    16    16    17   ar
    17    17    18   ar
    18    18    19   ar
    19    19    20    1
    20    20    21    1
    21    21    22    1
    22    22    23    1
    23    23    24    1
    24    24    25    1
    25    25    26    1
    26    19    27   ar
    27    13    28    1
    28     8     3   ar
    29    27    15   ar
    30    28     5    1
    31    26    21    1
    32     1    29    1
    33     1    30    1
    34     1    31    1
    35     4    32    1
    36     7    33    1
    37    10    34    1
    38    10    35    1
    39    10    36    1
    40    14    37    1
    41    16    38    1
    42    17    39    1
    43    18    40    1
    44    20    41    1
    45    20    42    1
    46    22    43    1
    47    22    44    1
    48    23    45    1
    49    23    46    1
    50    24    47    1
    51    24    48    1
    52    25    49    1
    53    25    50    1
    54    26    51    1
    55    26    52    1
    56    27    53    1
