
     RDKit          3D

 53 56  0  0  0  0  0  0  0  0999 V2000
    2.9043   -3.0902   -2.6930 C   0  0  0  0  0  0  0  0  0  0  0  0
    3.8880   -2.3960   -1.9935 O   0  0  0  0  0  0  0  0  0  0  0  0
    3.6848   -1.3820   -1.0712 C   0  0  0  0  0  0  0  0  0  0  0  0
    2.4466   -0.9008   -0.7029 C   0  0  0  0  0  0  0  0  0  0  0  0
    2.3247    0.1295    0.2394 C   0  0  0  0  0  0  0  0  0  0  0  0
    3.4623    0.6671    0.8043 C   0  0  0  0  0  0  0  0  0  0  0  0
    4.7097    0.1972    0.4470 C   0  0  0  0  0  0  0  0  0  0  0  0
    4.7936   -0.8147   -0.4807 C   0  0  0  0  0  0  0  0  0  0  0  0
    6.0533   -1.2716   -0.8253 O   0  0  0  0  0  0  0  0  0  0  0  0
    7.2391   -0.7615   -0.2839 C   0  0  0  0  0  0  0  0  0  0  0  0
    3.0739    1.7120    1.7441 C   0  0  0  0  0  0  0  0  0  0  0  0
    3.7874    2.4475    2.4657 O   0  0  0  0  0  0  0  0  0  0  0  0
    1.5999    1.7485    1.6880 C   0  0  0  0  0  0  0  0  0  0  0  0
    0.7786    2.5169    2.3469 C   0  0  0  0  0  0  0  0  0  0  0  0
   -0.6552    2.3763    2.1293 C   0  0  0  0  0  0  0  0  0  0  0  0
   -1.4634    2.5170    3.2391 C   0  0  0  0  0  0  0  0  0  0  0  0
   -2.8459    2.4090    3.1575 C   0  0  0  0  0  0  0  0  0  0  0  0
   -3.4481    2.1549    1.9455 C   0  0  0  0  0  0  0  0  0  0  0  0
   -2.6444    2.0140    0.8359 C   0  0  0  0  0  0  0  0  0  0  0  0
   -3.2790    1.7470   -0.4623 C   0  0  0  0  0  0  0  0  0  0  0  0
   -3.4741    0.3768   -0.7887 N   0  0  0  0  0  0  0  0  0  0  0  0
   -2.2989   -0.4250   -0.8324 C   0  0  0  0  0  0  0  0  0  0  0  0
   -2.6210   -1.8889   -0.8737 C   0  0  0  0  0  0  0  0  0  0  0  0
   -3.8977   -2.1919   -1.6293 C   0  0  0  0  0  0  0  0  0  0  0  0
   -5.0548   -1.3591   -1.1249 C   0  0  0  0  0  0  0  0  0  0  0  0
   -4.5585   -0.2879   -0.1463 C   0  0  0  0  0  0  0  0  0  0  0  0
   -1.2514    2.1245    0.9283 C   0  0  0  0  0  0  0  0  0  0  0  0
    1.2128    0.7820    0.7733 O   0  0  0  0  0  0  0  0  0  0  0  0
    2.4608   -3.9394   -2.1337 H   0  0  0  0  0  0  0  0  0  0  0  0
    2.1454   -2.3903   -3.0956 H   0  0  0  0  0  0  0  0  0  0  0  0
    3.3984   -3.5415   -3.6032 H   0  0  0  0  0  0  0  0  0  0  0  0
    1.5596   -1.3340   -1.1560 H   0  0  0  0  0  0  0  0  0  0  0  0
    5.5637    0.6499    0.9162 H   0  0  0  0  0  0  0  0  0  0  0  0
    8.0804   -1.1882   -0.8827 H   0  0  0  0  0  0  0  0  0  0  0  0
    7.3070   -1.1101    0.7625 H   0  0  0  0  0  0  0  0  0  0  0  0
    7.2646    0.3610   -0.3442 H   0  0  0  0  0  0  0  0  0  0  0  0
    1.1988    3.2365    3.0366 H   0  0  0  0  0  0  0  0  0  0  0  0
   -1.0442    2.7148    4.2026 H   0  0  0  0  0  0  0  0  0  0  0  0
   -3.4773    2.5188    4.0249 H   0  0  0  0  0  0  0  0  0  0  0  0
   -4.5344    2.0753    1.9097 H   0  0  0  0  0  0  0  0  0  0  0  0
   -2.7257    2.2678   -1.2707 H   0  0  0  0  0  0  0  0  0  0  0  0
   -4.2974    2.2312   -0.4549 H   0  0  0  0  0  0  0  0  0  0  0  0
   -1.6941   -0.0959   -1.7156 H   0  0  0  0  0  0  0  0  0  0  0  0
   -1.6300   -0.2675    0.0641 H   0  0  0  0  0  0  0  0  0  0  0  0
   -1.7916   -2.4043   -1.3967 H   0  0  0  0  0  0  0  0  0  0  0  0
   -2.6812   -2.3395    0.1465 H   0  0  0  0  0  0  0  0  0  0  0  0
   -4.1484   -3.2536   -1.4316 H   0  0  0  0  0  0  0  0  0  0  0  0
   -3.7389   -2.0624   -2.7027 H   0  0  0  0  0  0  0  0  0  0  0  0
   -5.8471   -1.9884   -0.6748 H   0  0  0  0  0  0  0  0  0  0  0  0
   -5.5172   -0.8550   -2.0070 H   0  0  0  0  0  0  0  0  0  0  0  0
   -4.2762   -0.8516    0.7774 H   0  0  0  0  0  0  0  0  0  0  0  0
   -5.4145    0.4011    0.0202 H   0  0  0  0  0  0  0  0  0  0  0  0
   -0.6272    2.0146    0.0586 H   0  0  0  0  0  0  0  0  0  0  0  0
  1  2  1  0
  2  3  1  0
  3  4  2  0
  4  5  1  0
  5  6  2  0
  6  7  1  0
  7  8  2  0
  8  9  1  0
  9 10  1  0
  6 11  1  0
 11 12  2  0
 11 13  1  0
 13 14  2  0
 14 15  1  0
 15 16  2  0
 16 17  1  0
 17 18  2  0
 18 19  1  0
 19 20  1  0
 20 21  1  0
 21 22  1  0
 22 23  1  0
 23 24  1  0
 24 25  1  0
 25 26  1  0
 19 27  2  0
 13 28  1  0
  8  3  1  0
 27 15  1  0
 28  5  1  0
 26 21  1  0
  1 29  1  0
  1 30  1  0
  1 31  1  0
  4 32  1  0
  7 33  1  0
 10 34  1  0
 10 35  1  0
 10 36  1  0
 14 37  1  0
 16 38  1  0
 17 39  1  0
 18 40  1  0
 20 41  1  0
 20 42  1  0
 22 43  1  0
 22 44  1  0
 23 45  1  0
 23 46  1  0
 24 47  1  0
 24 48  1  0
 25 49  1  0
 25 50  1  0
 26 51  1  0
 26 52  1  0
 27 53  1  0
M  END
$$$$
