@<TRIPOS>MOLECULE
*****
 33 36 0 0 0
SMALL
GASTEIGER

@<TRIPOS>ATOM
      1 O           0.0643    3.7637    1.1897 O.2     1  UNL1       -0.2870
      2 C           0.1123    2.5661    0.8112 C.ar    1  UNL1        0.1931
      3 C           1.3262    1.9136    0.5578 C.ar    1  UNL1        0.0287
      4 C           1.3223    0.6090    0.1476 C.ar    1  UNL1        0.1392
      5 C           2.5881   -0.0649   -0.1146 C.ar    1  UNL1        0.0174
      6 C           2.5659   -1.4012   -0.5339 C.ar    1  UNL1       -0.0511
      7 C           3.7023   -2.1251   -0.8067 C.ar    1  UNL1       -0.0611
      8 C           4.9440   -1.5184   -0.6653 C.ar    1  UNL1       -0.0617
      9 C           4.9922   -0.2104   -0.2558 C.ar    1  UNL1       -0.0611
     10 C           3.8301    0.4978    0.0131 C.ar    1  UNL1       -0.0511
     11 O           0.1739   -0.0462   -0.0128 O.2     1  UNL1       -0.4540
     12 C          -0.9714    0.5416    0.2176 C.ar    1  UNL1        0.1469
     13 C          -1.0578    1.8586    0.6352 C.ar    1  UNL1        0.0646
     14 C          -2.2968    2.4168    0.8599 C.ar    1  UNL1       -0.0468
     15 C          -3.4482    1.6883    0.6766 C.ar    1  UNL1       -0.0531
     16 C          -3.3520    0.3641    0.2563 C.ar    1  UNL1       -0.0143
     17 C          -4.4959   -0.4001    0.0614 C.ar    1  UNL1       -0.0539
     18 C          -4.3736   -1.7029   -0.3532 C.ar    1  UNL1       -0.0612
     19 C          -3.1276   -2.2852   -0.5858 C.ar    1  UNL1       -0.0611
     20 C          -1.9992   -1.5265   -0.3920 C.ar    1  UNL1       -0.0505
     21 C          -2.1389   -0.2014    0.0303 C.ar    1  UNL1        0.0251
     22 H           2.2113    2.5096    0.7100 H       1  UNL1        0.0693
     23 H           1.5937   -1.8760   -0.6446 H       1  UNL1        0.0625
     24 H           3.6730   -3.1625   -1.1318 H       1  UNL1        0.0618
     25 H           5.8144   -2.1088   -0.8856 H       1  UNL1        0.0618
     26 H           5.9501    0.2612   -0.1456 H       1  UNL1        0.0618
     27 H           3.8865    1.5439    0.3398 H       1  UNL1        0.0625
     28 H          -2.3163    3.4633    1.1898 H       1  UNL1        0.0626
     29 H          -4.4144    2.1098    0.8475 H       1  UNL1        0.0624
     30 H          -5.4451    0.0773    0.2493 H       1  UNL1        0.0624
     31 H          -5.2679   -2.2807   -0.4993 H       1  UNL1        0.0618
     32 H          -3.0412   -3.3182   -0.9141 H       1  UNL1        0.0618
     33 H          -1.0045   -1.9561   -0.5666 H       1  UNL1        0.0625
@<TRIPOS>BOND
     1     1     2    2
     2     2     3   ar
     3     3     4   ar
     4     4     5    1
     5     5     6   ar
     6     6     7   ar
     7     7     8   ar
     8     8     9   ar
     9     9    10   ar
    10     4    11   ar
    11    11    12   ar
    12    12    13   ar
    13    13    14   ar
    14    14    15   ar
    15    15    16   ar
    16    16    17   ar
    17    17    18   ar
    18    18    19   ar
    19    19    20   ar
    20    20    21   ar
    21    13     2   ar
    22    21    16   ar
    23    10     5   ar
    24    21    12   ar
    25     3    22    1
    26     6    23    1
    27     7    24    1
    28     8    25    1
    29     9    26    1
    30    10    27    1
    31    14    28    1
    32    15    29    1
    33    17    30    1
    34    18    31    1
    35    19    32    1
    36    20    33    1
