
     RDKit          3D

 33 36  0  0  0  0  0  0  0  0999 V2000
    0.0643    3.7637    1.1897 O   0  0  0  0  0  0  0  0  0  0  0  0
    0.1123    2.5661    0.8112 C   0  0  0  0  0  0  0  0  0  0  0  0
    1.3262    1.9136    0.5578 C   0  0  0  0  0  0  0  0  0  0  0  0
    1.3223    0.6090    0.1476 C   0  0  0  0  0  0  0  0  0  0  0  0
    2.5881   -0.0649   -0.1146 C   0  0  0  0  0  0  0  0  0  0  0  0
    2.5659   -1.4012   -0.5339 C   0  0  0  0  0  0  0  0  0  0  0  0
    3.7023   -2.1251   -0.8067 C   0  0  0  0  0  0  0  0  0  0  0  0
    4.9440   -1.5184   -0.6653 C   0  0  0  0  0  0  0  0  0  0  0  0
    4.9922   -0.2104   -0.2558 C   0  0  0  0  0  0  0  0  0  0  0  0
    3.8301    0.4978    0.0131 C   0  0  0  0  0  0  0  0  0  0  0  0
    0.1739   -0.0462   -0.0128 O   0  0  0  0  0  0  0  0  0  0  0  0
   -0.9714    0.5416    0.2176 C   0  0  0  0  0  0  0  0  0  0  0  0
   -1.0578    1.8586    0.6352 C   0  0  0  0  0  0  0  0  0  0  0  0
   -2.2968    2.4168    0.8599 C   0  0  0  0  0  0  0  0  0  0  0  0
   -3.4482    1.6883    0.6766 C   0  0  0  0  0  0  0  0  0  0  0  0
   -3.3520    0.3641    0.2563 C   0  0  0  0  0  0  0  0  0  0  0  0
   -4.4959   -0.4001    0.0614 C   0  0  0  0  0  0  0  0  0  0  0  0
   -4.3736   -1.7029   -0.3532 C   0  0  0  0  0  0  0  0  0  0  0  0
   -3.1276   -2.2852   -0.5858 C   0  0  0  0  0  0  0  0  0  0  0  0
   -1.9992   -1.5265   -0.3920 C   0  0  0  0  0  0  0  0  0  0  0  0
   -2.1389   -0.2014    0.0303 C   0  0  0  0  0  0  0  0  0  0  0  0
    2.2113    2.5096    0.7100 H   0  0  0  0  0  0  0  0  0  0  0  0
    1.5937   -1.8760   -0.6446 H   0  0  0  0  0  0  0  0  0  0  0  0
    3.6730   -3.1625   -1.1318 H   0  0  0  0  0  0  0  0  0  0  0  0
    5.8144   -2.1088   -0.8856 H   0  0  0  0  0  0  0  0  0  0  0  0
    5.9501    0.2612   -0.1456 H   0  0  0  0  0  0  0  0  0  0  0  0
    3.8865    1.5439    0.3398 H   0  0  0  0  0  0  0  0  0  0  0  0
   -2.3163    3.4633    1.1898 H   0  0  0  0  0  0  0  0  0  0  0  0
   -4.4144    2.1098    0.8475 H   0  0  0  0  0  0  0  0  0  0  0  0
   -5.4451    0.0773    0.2493 H   0  0  0  0  0  0  0  0  0  0  0  0
   -5.2679   -2.2807   -0.4993 H   0  0  0  0  0  0  0  0  0  0  0  0
   -3.0412   -3.3182   -0.9141 H   0  0  0  0  0  0  0  0  0  0  0  0
   -1.0045   -1.9561   -0.5666 H   0  0  0  0  0  0  0  0  0  0  0  0
  1  2  2  0
  2  3  1  0
  3  4  2  0
  4  5  1  0
  5  6  2  0
  6  7  1  0
  7  8  2  0
  8  9  1  0
  9 10  2  0
  4 11  1  0
 11 12  1  0
 12 13  2  0
 13 14  1  0
 14 15  2  0
 15 16  1  0
 16 17  2  0
 17 18  1  0
 18 19  2  0
 19 20  1  0
 20 21  2  0
 13  2  1  0
 21 16  1  0
 10  5  1  0
 21 12  1  0
  3 22  1  0
  6 23  1  0
  7 24  1  0
  8 25  1  0
  9 26  1  0
 10 27  1  0
 14 28  1  0
 15 29  1  0
 17 30  1  0
 18 31  1  0
 19 32  1  0
 20 33  1  0
M  END
$$$$
