
     RDKit          3D

 55 59  0  0  0  0  0  0  0  0999 V2000
   -0.5845    0.2104   -2.8223 C   0  0  0  0  0  0  0  0  0  0  0  0
   -1.6779    0.0515   -1.8140 C   0  0  0  0  0  0  0  0  0  0  0  0
   -2.9751   -0.1398   -2.2515 C   0  0  0  0  0  0  0  0  0  0  0  0
   -4.0242   -0.3037   -1.3416 C   0  0  0  0  0  0  0  0  0  0  0  0
   -3.8166   -0.2822    0.0173 C   0  0  0  0  0  0  0  0  0  0  0  0
   -4.9119   -0.4547    0.9661 C   0  0  0  0  0  0  0  0  0  0  0  0
   -4.6258   -0.3824    2.1875 O   0  0  0  0  0  0  0  0  0  0  0  0
   -6.2574   -0.6947    0.6238 N   0  0  0  0  0  0  0  0  0  0  0  0
   -7.3193   -0.8586    1.5943 C   0  0  0  0  0  0  0  0  0  0  0  0
   -8.7118   -0.5500    1.3201 C   0  0  0  0  0  0  0  0  0  0  0  0
   -8.3029   -2.0013    1.4353 C   0  0  0  0  0  0  0  0  0  0  0  0
   -2.5120   -0.0896    0.4446 C   0  0  0  0  0  0  0  0  0  0  0  0
   -1.4807    0.0715   -0.4550 C   0  0  0  0  0  0  0  0  0  0  0  0
   -0.1262    0.2601    0.0092 N   0  0  0  0  0  0  0  0  0  0  0  0
    0.5858    1.4403   -0.2840 C   0  0  0  0  0  0  0  0  0  0  0  0
   -0.0689    2.3958   -0.9662 N   0  0  0  0  0  0  0  0  0  0  0  0
    0.5486    3.5437   -1.2950 C   0  0  0  0  0  0  0  0  0  0  0  0
    1.8299    3.7474   -0.9438 N   0  0  0  0  0  0  0  0  0  0  0  0
    2.5154    2.8426   -0.2746 N   0  0  0  0  0  0  0  0  0  0  0  0
    3.7915    2.8296    0.1736 C   0  0  0  0  0  0  0  0  0  0  0  0
    4.0282    1.6433    0.8173 C   0  0  0  0  0  0  0  0  0  0  0  0
    5.2783    1.2138    1.4155 C   0  0  0  0  0  0  0  0  0  0  0  0
    5.9011    1.9816    2.2289 O   0  0  0  0  0  0  0  0  0  0  0  0
    5.9230   -0.0654    1.1654 C   0  0  0  0  0  0  0  0  0  0  0  0
    5.6483   -0.7852    0.0143 C   0  0  0  0  0  0  0  0  0  0  0  0
    6.2597   -2.0113   -0.2313 C   0  0  0  0  0  0  0  0  0  0  0  0
    7.1566   -2.5486    0.6600 C   0  0  0  0  0  0  0  0  0  0  0  0
    7.4382   -1.8387    1.8126 C   0  0  0  0  0  0  0  0  0  0  0  0
    6.8201   -0.6174    2.0431 C   0  0  0  0  0  0  0  0  0  0  0  0
    2.8369    0.9370    0.7408 C   0  0  0  0  0  0  0  0  0  0  0  0
    2.6249   -0.3934    1.3379 C   0  0  0  0  0  0  0  0  0  0  0  0
    1.8930    1.6734    0.0630 C   0  0  0  0  0  0  0  0  0  0  0  0
    0.3941    0.0475   -2.3716 H   0  0  0  0  0  0  0  0  0  0  0  0
   -0.6740   -0.5990   -3.6127 H   0  0  0  0  0  0  0  0  0  0  0  0
   -0.7182    1.1475   -3.3683 H   0  0  0  0  0  0  0  0  0  0  0  0
   -3.1643   -0.1598   -3.3263 H   0  0  0  0  0  0  0  0  0  0  0  0
   -5.0182   -0.4497   -1.7268 H   0  0  0  0  0  0  0  0  0  0  0  0
   -6.4747   -0.7537   -0.3953 H   0  0  0  0  0  0  0  0  0  0  0  0
   -6.9669   -0.7519    2.6419 H   0  0  0  0  0  0  0  0  0  0  0  0
   -9.1052   -0.2536    0.3296 H   0  0  0  0  0  0  0  0  0  0  0  0
   -9.3680   -0.2132    2.1537 H   0  0  0  0  0  0  0  0  0  0  0  0
   -8.6214   -2.5773    2.3364 H   0  0  0  0  0  0  0  0  0  0  0  0
   -8.1920   -2.6283    0.5427 H   0  0  0  0  0  0  0  0  0  0  0  0
   -2.3365   -0.0707    1.5152 H   0  0  0  0  0  0  0  0  0  0  0  0
    0.2798   -0.4988    0.5502 H   0  0  0  0  0  0  0  0  0  0  0  0
    0.0556    4.3369   -1.8429 H   0  0  0  0  0  0  0  0  0  0  0  0
    4.5393    3.6161    0.0605 H   0  0  0  0  0  0  0  0  0  0  0  0
    4.9417   -0.3634   -0.6887 H   0  0  0  0  0  0  0  0  0  0  0  0
    6.0484   -2.5744   -1.1252 H   0  0  0  0  0  0  0  0  0  0  0  0
    7.6464   -3.5114    0.4824 H   0  0  0  0  0  0  0  0  0  0  0  0
    8.1361   -2.2594    2.5044 H   0  0  0  0  0  0  0  0  0  0  0  0
    7.0618   -0.0819    2.9605 H   0  0  0  0  0  0  0  0  0  0  0  0
    1.8390   -0.3474    2.1257 H   0  0  0  0  0  0  0  0  0  0  0  0
    3.5500   -0.7160    1.9046 H   0  0  0  0  0  0  0  0  0  0  0  0
    2.4631   -1.1631    0.5845 H   0  0  0  0  0  0  0  0  0  0  0  0
  1  2  1  0
  2  3  2  0
  3  4  1  0
  4  5  2  0
  5  6  1  0
  6  7  2  0
  6  8  1  0
  8  9  1  0
  9 10  1  0
 10 11  1  0
  5 12  1  0
 12 13  2  0
 13 14  1  0
 14 15  1  0
 15 16  2  0
 16 17  1  0
 17 18  2  0
 18 19  1  0
 19 20  1  0
 20 21  2  0
 21 22  1  0
 22 23  2  0
 22 24  1  0
 24 25  2  0
 25 26  1  0
 26 27  2  0
 27 28  1  0
 28 29  2  0
 21 30  1  0
 30 31  1  0
 30 32  2  0
 13  2  1  0
 32 15  1  0
 11  9  1  0
 32 19  1  0
 29 24  1  0
  1 33  1  0
  1 34  1  0
  1 35  1  0
  3 36  1  0
  4 37  1  0
  8 38  1  0
  9 39  1  0
 10 40  1  0
 10 41  1  0
 11 42  1  0
 11 43  1  0
 12 44  1  0
 14 45  1  0
 17 46  1  0
 20 47  1  0
 25 48  1  0
 26 49  1  0
 27 50  1  0
 28 51  1  0
 29 52  1  0
 31 53  1  0
 31 54  1  0
 31 55  1  0
M  END
$$$$
