@<TRIPOS>MOLECULE
*****
 55 59 0 0 0
SMALL
GASTEIGER

@<TRIPOS>ATOM
      1 C          -0.5845    0.2104   -2.8223 C.3     1  UNL1       -0.0380
      2 C          -1.6779    0.0515   -1.8140 C.ar    1  UNL1       -0.0292
      3 C          -2.9751   -0.1398   -2.2515 C.ar    1  UNL1       -0.0564
      4 C          -4.0242   -0.3037   -1.3416 C.ar    1  UNL1       -0.0493
      5 C          -3.8166   -0.2822    0.0173 C.ar    1  UNL1        0.0385
      6 C          -4.9119   -0.4547    0.9661 C.2     1  UNL1        0.2443
      7 O          -4.6258   -0.3824    2.1875 O.2     1  UNL1       -0.2702
      8 N          -6.2574   -0.6947    0.6238 N.am    1  UNL1       -0.3085
      9 C          -7.3193   -0.8586    1.5943 C.3     1  UNL1        0.0235
     10 C          -8.7118   -0.5500    1.3201 C.3     1  UNL1       -0.0328
     11 C          -8.3029   -2.0013    1.4353 C.3     1  UNL1       -0.0328
     12 C          -2.5120   -0.0896    0.4446 C.ar    1  UNL1       -0.0281
     13 C          -1.4807    0.0715   -0.4550 C.ar    1  UNL1        0.0361
     14 N          -0.1262    0.2601    0.0092 N.pl3   1  UNL1       -0.2975
     15 C           0.5858    1.4403   -0.2840 C.ar    1  UNL1        0.1506
     16 N          -0.0689    2.3958   -0.9662 N.ar    1  UNL1       -0.2167
     17 C           0.5486    3.5437   -1.2950 C.ar    1  UNL1        0.1388
     18 N           1.8299    3.7474   -0.9438 N.ar    1  UNL1       -0.1548
     19 N           2.5154    2.8426   -0.2746 N.ar    1  UNL1       -0.2342
     20 C           3.7915    2.8296    0.1736 C.ar    1  UNL1        0.0411
     21 C           4.0282    1.6433    0.8173 C.ar    1  UNL1        0.0454
     22 C           5.2783    1.2138    1.4155 C.2     1  UNL1        0.1949
     23 O           5.9011    1.9816    2.2289 O.2     1  UNL1       -0.2866
     24 C           5.9230   -0.0654    1.1654 C.ar    1  UNL1        0.0223
     25 C           5.6483   -0.7852    0.0143 C.ar    1  UNL1       -0.0509
     26 C           6.2597   -2.0113   -0.2313 C.ar    1  UNL1       -0.0611
     27 C           7.1566   -2.5486    0.6600 C.ar    1  UNL1       -0.0617
     28 C           7.4382   -1.8387    1.8126 C.ar    1  UNL1       -0.0611
     29 C           6.8201   -0.6174    2.0431 C.ar    1  UNL1       -0.0509
     30 C           2.8369    0.9370    0.7408 C.ar    1  UNL1       -0.0094
     31 C           2.6249   -0.3934    1.3379 C.3     1  UNL1       -0.0369
     32 C           1.8930    1.6734    0.0630 C.ar    1  UNL1        0.1089
     33 H           0.3941    0.0475   -2.3716 H       1  UNL1        0.0278
     34 H          -0.6740   -0.5990   -3.6127 H       1  UNL1        0.0278
     35 H          -0.7182    1.1475   -3.3683 H       1  UNL1        0.0278
     36 H          -3.1643   -0.1598   -3.3263 H       1  UNL1        0.0621
     37 H          -5.0182   -0.4497   -1.7268 H       1  UNL1        0.0625
     38 H          -6.4747   -0.7537   -0.3953 H       1  UNL1        0.1493
     39 H          -6.9669   -0.7519    2.6419 H       1  UNL1        0.0498
     40 H          -9.1052   -0.2536    0.3296 H       1  UNL1        0.0284
     41 H          -9.3680   -0.2132    2.1537 H       1  UNL1        0.0284
     42 H          -8.6214   -2.5773    2.3364 H       1  UNL1        0.0284
     43 H          -8.1920   -2.6283    0.5427 H       1  UNL1        0.0284
     44 H          -2.3365   -0.0707    1.5152 H       1  UNL1        0.0644
     45 H           0.2798   -0.4988    0.5502 H       1  UNL1        0.1536
     46 H           0.0556    4.3369   -1.8429 H       1  UNL1        0.1066
     47 H           4.5393    3.6161    0.0605 H       1  UNL1        0.0837
     48 H           4.9417   -0.3634   -0.6887 H       1  UNL1        0.0625
     49 H           6.0484   -2.5744   -1.1252 H       1  UNL1        0.0618
     50 H           7.6464   -3.5114    0.4824 H       1  UNL1        0.0618
     51 H           8.1361   -2.2594    2.5044 H       1  UNL1        0.0618
     52 H           7.0618   -0.0819    2.9605 H       1  UNL1        0.0625
     53 H           1.8390   -0.3474    2.1257 H       1  UNL1        0.0278
     54 H           3.5500   -0.7160    1.9046 H       1  UNL1        0.0278
     55 H           2.4631   -1.1631    0.5845 H       1  UNL1        0.0278
@<TRIPOS>BOND
     1     1     2    1
     2     2     3   ar
     3     3     4   ar
     4     4     5   ar
     5     5     6    1
     6     6     7    2
     7     6     8   am
     8     8     9    1
     9     9    10    1
    10    10    11    1
    11     5    12   ar
    12    12    13   ar
    13    13    14    1
    14    14    15    1
    15    15    16   ar
    16    16    17   ar
    17    17    18   ar
    18    18    19   ar
    19    19    20   ar
    20    20    21   ar
    21    21    22    1
    22    22    23    2
    23    22    24    1
    24    24    25   ar
    25    25    26   ar
    26    26    27   ar
    27    27    28   ar
    28    28    29   ar
    29    21    30   ar
    30    30    31    1
    31    30    32   ar
    32    13     2   ar
    33    32    15   ar
    34    11     9    1
    35    32    19   ar
    36    29    24   ar
    37     1    33    1
    38     1    34    1
    39     1    35    1
    40     3    36    1
    41     4    37    1
    42     8    38    1
    43     9    39    1
    44    10    40    1
    45    10    41    1
    46    11    42    1
    47    11    43    1
    48    12    44    1
    49    14    45    1
    50    17    46    1
    51    20    47    1
    52    25    48    1
    53    26    49    1
    54    27    50    1
    55    28    51    1
    56    29    52    1
    57    31    53    1
    58    31    54    1
    59    31    55    1
