@<TRIPOS>MOLECULE
*****
 36 38 0 0 0
SMALL
GASTEIGER

@<TRIPOS>ATOM
      1 C          -1.6221    0.4478   -3.0992 C.3     1  UNL1       -0.0062
      2 C          -2.1286    0.4888   -1.6920 C.ar    1  UNL1        0.1079
      3 N          -3.0197    1.4106   -1.2721 N.ar    1  UNL1       -0.2326
      4 C          -3.2660    1.1757    0.0291 C.ar    1  UNL1        0.0893
      5 C          -4.0775    1.7879    0.9612 C.ar    1  UNL1       -0.0342
      6 C          -4.1555    1.3423    2.2715 C.ar    1  UNL1       -0.0596
      7 C          -3.3995    0.2585    2.6457 C.ar    1  UNL1       -0.0597
      8 C          -2.5930   -0.3479    1.7144 C.ar    1  UNL1       -0.0360
      9 C          -2.5096    0.0962    0.3913 C.ar    1  UNL1        0.0691
     10 N          -1.8104   -0.3231   -0.6734 N.ar    1  UNL1       -0.3232
     11 C          -0.9104   -1.4235   -0.6875 C.3     1  UNL1        0.0527
     12 C           0.4832   -1.0725   -0.3542 C.ar    1  UNL1        0.0075
     13 C           1.4130   -2.0939   -0.3487 C.ar    1  UNL1       -0.0534
     14 C           2.7411   -1.8550   -0.0476 C.ar    1  UNL1       -0.0491
     15 C           3.1832   -0.5786    0.2594 C.ar    1  UNL1        0.0414
     16 C           4.6094   -0.3708    0.5743 C.2     1  UNL1        0.2666
     17 O           5.4223   -1.3249    0.5685 O.2     1  UNL1       -0.2681
     18 N           5.0970    0.9223    0.8930 N.am    1  UNL1       -0.1935
     19 O           6.4295    1.0528    1.1763 O.3     1  UNL1       -0.2949
     20 C           2.2592    0.4371    0.2540 C.ar    1  UNL1       -0.0139
     21 C           0.9163    0.1863   -0.0520 C.ar    1  UNL1        0.1290
     22 F           0.0179    1.2050   -0.0518 F       1  UNL1       -0.2051
     23 H          -2.4825    0.5067   -3.8048 H       1  UNL1        0.0307
     24 H          -1.0032    1.3321   -3.2419 H       1  UNL1        0.0307
     25 H          -1.0821   -0.5052   -3.2674 H       1  UNL1        0.0307
     26 H          -4.6550    2.6311    0.6385 H       1  UNL1        0.0639
     27 H          -4.8030    1.8426    2.9868 H       1  UNL1        0.0618
     28 H          -3.4338   -0.1174    3.6574 H       1  UNL1        0.0618
     29 H          -2.0118   -1.2004    2.0487 H       1  UNL1        0.0639
     30 H          -0.9908   -1.9323   -1.6846 H       1  UNL1        0.0543
     31 H          -1.2273   -2.2076    0.0500 H       1  UNL1        0.0543
     32 H           1.1602   -3.1258   -0.5764 H       1  UNL1        0.0622
     33 H           3.4880   -2.6461   -0.0381 H       1  UNL1        0.0625
     34 H           4.5034    1.7706    0.9234 H       1  UNL1        0.1825
     35 H           6.8994    0.7895    0.3449 H       1  UNL1        0.2414
     36 H           2.5585    1.4412    0.4860 H       1  UNL1        0.0654
@<TRIPOS>BOND
     1     1     2    1
     2     2     3   ar
     3     3     4   ar
     4     4     5   ar
     5     5     6   ar
     6     6     7   ar
     7     7     8   ar
     8     8     9   ar
     9     9    10   ar
    10    10    11    1
    11    11    12    1
    12    12    13   ar
    13    13    14   ar
    14    14    15   ar
    15    15    16    1
    16    16    17    2
    17    16    18   am
    18    18    19    1
    19    15    20   ar
    20    20    21   ar
    21    21    22    1
    22    10     2   ar
    23    21    12   ar
    24     9     4   ar
    25     1    23    1
    26     1    24    1
    27     1    25    1
    28     5    26    1
    29     6    27    1
    30     7    28    1
    31     8    29    1
    32    11    30    1
    33    11    31    1
    34    13    32    1
    35    14    33    1
    36    18    34    1
    37    19    35    1
    38    20    36    1
