@<TRIPOS>MOLECULE
*****
 29 30 0 0 0
SMALL
GASTEIGER

@<TRIPOS>ATOM
      1 O           6.1579   -0.7825    0.4110 O.3     1  UNL1       -0.5068
      2 C           4.7838   -0.5762    0.2895 C.ar    1  UNL1        0.1169
      3 C           4.3002    0.1073   -0.8060 C.ar    1  UNL1       -0.0196
      4 C           2.9580    0.3065   -0.9207 C.ar    1  UNL1       -0.0511
      5 C           2.0131   -0.1299   -0.0078 C.ar    1  UNL1       -0.0248
      6 C           0.5834    0.1278   -0.2084 C.2     1  UNL1       -0.0540
      7 C          -0.3621   -0.2453    0.5956 C.2     1  UNL1       -0.0538
      8 C          -1.7857    0.0148    0.3899 C.ar    1  UNL1       -0.0181
      9 C          -2.2897    0.6952   -0.6967 C.ar    1  UNL1       -0.0128
     10 C          -3.6491    0.9271   -0.8649 C.ar    1  UNL1        0.1209
     11 O          -4.0381    1.6235   -1.9986 O.3     1  UNL1       -0.5066
     12 C          -4.5626    0.4789    0.0629 C.ar    1  UNL1        0.0213
     13 C          -4.0588   -0.2011    1.1489 C.ar    1  UNL1        0.1209
     14 O          -5.0019   -0.6508    2.0844 O.3     1  UNL1       -0.5066
     15 C          -2.7193   -0.4393    1.3312 C.ar    1  UNL1       -0.0128
     16 C           2.5107   -0.8118    1.0826 C.ar    1  UNL1       -0.0511
     17 C           3.8864   -1.0335    1.2304 C.ar    1  UNL1       -0.0196
     18 H           6.8529   -0.1196    0.1124 H       1  UNL1        0.2921
     19 H           4.9966    0.4773   -1.5623 H       1  UNL1        0.0654
     20 H           2.5843    0.8516   -1.7966 H       1  UNL1        0.0625
     21 H           0.3236    0.6714   -1.1009 H       1  UNL1        0.0624
     22 H          -0.0878   -0.7900    1.4877 H       1  UNL1        0.0624
     23 H          -1.5983    1.0740   -1.4672 H       1  UNL1        0.0660
     24 H          -4.0804    2.6328   -2.0000 H       1  UNL1        0.2921
     25 H          -5.6231    0.6534   -0.0572 H       1  UNL1        0.0691
     26 H          -5.8501   -1.1355    1.7597 H       1  UNL1        0.2921
     27 H          -2.3738   -0.9744    2.1945 H       1  UNL1        0.0660
     28 H           1.8504   -1.1862    1.8403 H       1  UNL1        0.0625
     29 H           4.2794   -1.5652    2.0798 H       1  UNL1        0.0654
@<TRIPOS>BOND
     1     1     2    1
     2     2     3   ar
     3     3     4   ar
     4     4     5   ar
     5     5     6    1
     6     6     7    2
     7     7     8    1
     8     8     9   ar
     9     9    10   ar
    10    10    11    1
    11    10    12   ar
    12    12    13   ar
    13    13    14    1
    14    13    15   ar
    15     5    16   ar
    16    16    17   ar
    17    17     2   ar
    18    15     8   ar
    19     1    18    1
    20     3    19    1
    21     4    20    1
    22     6    21    1
    23     7    22    1
    24     9    23    1
    25    11    24    1
    26    12    25    1
    27    14    26    1
    28    15    27    1
    29    16    28    1
    30    17    29    1
