
     RDKit          3D

 76 80  0  0  0  0  0  0  0  0999 V2000
   -9.7860    1.5891    2.5763 C   0  0  0  0  0  0  0  0  0  0  0  0
   -8.7828    0.5807    3.0289 C   0  0  0  0  0  0  0  0  0  0  0  0
   -7.7613    0.4614    2.0540 O   0  0  0  0  0  0  0  0  0  0  0  0
   -8.0150    0.0720    0.7608 C   0  0  0  0  0  0  0  0  0  0  0  0
   -9.1811   -0.2507    0.1842 N   0  0  0  0  0  0  0  0  0  0  0  0
   -9.0286   -0.5743   -1.0813 N   0  0  0  0  0  0  0  0  0  0  0  0
  -10.0551   -0.9822   -2.0423 C   0  0  0  0  0  0  0  0  0  0  0  0
   -7.6942   -0.4543   -1.3341 C   0  0  0  0  0  0  0  0  0  0  0  0
   -7.0104   -0.0534   -0.2196 C   0  0  0  0  0  0  0  0  0  0  0  0
   -5.6395    0.1978    0.0051 N   0  0  0  0  0  0  0  0  0  0  0  0
   -4.6913    0.0532   -1.0377 C   0  0  0  0  0  0  0  0  0  0  0  0
   -5.0479   -0.2964   -2.2580 N   0  0  0  0  0  0  0  0  0  0  0  0
   -4.1390   -0.4311   -3.2271 C   0  0  0  0  0  0  0  0  0  0  0  0
   -2.7646   -0.2112   -3.0073 C   0  0  0  0  0  0  0  0  0  0  0  0
   -1.8529   -0.4323   -4.1372 C   0  0  0  0  0  0  0  0  0  0  0  0
   -2.4124    0.1505   -1.7443 C   0  0  0  0  0  0  0  0  0  0  0  0
   -1.0371    0.3848   -1.3534 C   0  0  0  0  0  0  0  0  0  0  0  0
    0.1182    0.5593   -2.0713 C   0  0  0  0  0  0  0  0  0  0  0  0
    1.1677    0.8144   -1.2371 N   0  0  0  0  0  0  0  0  0  0  0  0
    0.7402    0.8160    0.0337 C   0  0  0  0  0  0  0  0  0  0  0  0
    1.4285    1.0231    1.2335 C   0  0  0  0  0  0  0  0  0  0  0  0
    2.8091    1.2876    1.2324 N   0  0  0  0  0  0  0  0  0  0  0  0
    3.7380    0.2217    1.3113 C   0  0  0  0  0  0  0  0  0  0  0  0
    3.2706   -0.9499    1.3800 O   0  0  0  0  0  0  0  0  0  0  0  0
    5.2239    0.4763    1.3137 C   0  0  1  0  0  0  0  0  0  0  0  0
    5.4830    1.3836    2.4930 C   0  0  0  0  0  0  0  0  0  0  0  0
    5.8742   -0.7849    1.4050 N   0  0  0  0  0  0  0  0  0  0  0  0
    5.5208   -1.5934    0.2799 C   0  0  0  0  0  0  0  0  0  0  0  0
    6.7175   -2.0156   -0.5406 C   0  0  0  0  0  0  0  0  0  0  0  0
    7.5945   -0.8724   -0.6614 N   0  0  0  0  0  0  0  0  0  0  0  0
    8.6511   -1.0919   -1.6165 C   0  0  0  0  0  0  0  0  0  0  0  0
    9.5070    0.1475   -1.6711 C   0  0  0  0  0  0  0  0  0  0  0  0
    8.1843   -0.4903    0.6008 C   0  0  0  0  0  0  0  0  0  0  0  0
    7.2577   -0.7558    1.7374 C   0  0  0  0  0  0  0  0  0  0  0  0
    0.6972    0.9551    2.3886 C   0  0  0  0  0  0  0  0  0  0  0  0
   -0.6569    0.6945    2.3763 C   0  0  0  0  0  0  0  0  0  0  0  0
   -1.3113    0.4931    1.1613 C   0  0  0  0  0  0  0  0  0  0  0  0
   -0.6111    0.5544   -0.0132 C   0  0  0  0  0  0  0  0  0  0  0  0
   -3.3752    0.2683   -0.8131 N   0  0  0  0  0  0  0  0  0  0  0  0
   -9.5927    1.9205    1.5158 H   0  0  0  0  0  0  0  0  0  0  0  0
   -9.7374    2.4698    3.2416 H   0  0  0  0  0  0  0  0  0  0  0  0
  -10.8332    1.2209    2.5735 H   0  0  0  0  0  0  0  0  0  0  0  0
   -8.3826    0.8692    4.0059 H   0  0  0  0  0  0  0  0  0  0  0  0
   -9.3022   -0.4009    3.0897 H   0  0  0  0  0  0  0  0  0  0  0  0
  -10.3711   -0.1287   -2.6553 H   0  0  0  0  0  0  0  0  0  0  0  0
  -10.8906   -1.4792   -1.5054 H   0  0  0  0  0  0  0  0  0  0  0  0
   -9.6245   -1.7459   -2.7247 H   0  0  0  0  0  0  0  0  0  0  0  0
   -7.2845   -0.6619   -2.3071 H   0  0  0  0  0  0  0  0  0  0  0  0
   -5.3168    0.5015    0.9779 H   0  0  0  0  0  0  0  0  0  0  0  0
   -4.4512   -0.7146   -4.2115 H   0  0  0  0  0  0  0  0  0  0  0  0
   -1.4718    0.5078   -4.5714 H   0  0  0  0  0  0  0  0  0  0  0  0
   -2.4414   -0.9863   -4.9373 H   0  0  0  0  0  0  0  0  0  0  0  0
   -0.9901   -1.0999   -3.9147 H   0  0  0  0  0  0  0  0  0  0  0  0
    0.2217    0.5287   -3.1442 H   0  0  0  0  0  0  0  0  0  0  0  0
    2.1226    0.9752   -1.5696 H   0  0  0  0  0  0  0  0  0  0  0  0
    3.1365    2.2696    1.1734 H   0  0  0  0  0  0  0  0  0  0  0  0
    5.4321    1.0489    0.3985 H   0  0  0  0  0  0  0  0  0  0  0  0
    6.5003    1.7706    2.5481 H   0  0  0  0  0  0  0  0  0  0  0  0
    4.8152    2.2799    2.3404 H   0  0  0  0  0  0  0  0  0  0  0  0
    5.1176    0.9246    3.4474 H   0  0  0  0  0  0  0  0  0  0  0  0
    4.8028   -1.0787   -0.4093 H   0  0  0  0  0  0  0  0  0  0  0  0
    4.9922   -2.5406    0.5780 H   0  0  0  0  0  0  0  0  0  0  0  0
    7.2292   -2.8672   -0.0089 H   0  0  0  0  0  0  0  0  0  0  0  0
    6.3677   -2.2935   -1.5364 H   0  0  0  0  0  0  0  0  0  0  0  0
    9.3167   -1.9456   -1.3148 H   0  0  0  0  0  0  0  0  0  0  0  0
    8.2658   -1.3119   -2.6330 H   0  0  0  0  0  0  0  0  0  0  0  0
   10.0176    0.2700   -2.6599 H   0  0  0  0  0  0  0  0  0  0  0  0
    8.8575    1.0214   -1.4294 H   0  0  0  0  0  0  0  0  0  0  0  0
   10.2627    0.0705   -0.8581 H   0  0  0  0  0  0  0  0  0  0  0  0
    8.5160    0.5640    0.5286 H   0  0  0  0  0  0  0  0  0  0  0  0
    9.1226   -1.0929    0.7266 H   0  0  0  0  0  0  0  0  0  0  0  0
    7.5175   -1.7730    2.1548 H   0  0  0  0  0  0  0  0  0  0  0  0
    7.3893   -0.0635    2.5927 H   0  0  0  0  0  0  0  0  0  0  0  0
    1.1886    1.1076    3.3198 H   0  0  0  0  0  0  0  0  0  0  0  0
   -1.2591    0.6349    3.2750 H   0  0  0  0  0  0  0  0  0  0  0  0
   -2.3728    0.2843    1.1573 H   0  0  0  0  0  0  0  0  0  0  0  0
  1  2  1  0
  2  3  1  0
  3  4  1  0
  4  5  2  0
  5  6  1  0
  6  7  1  0
  6  8  1  0
  8  9  2  0
  9 10  1  0
 10 11  1  0
 11 12  2  0
 12 13  1  0
 13 14  2  0
 14 15  1  0
 14 16  1  0
 16 17  1  0
 17 18  2  0
 18 19  1  0
 19 20  1  0
 20 21  2  0
 21 22  1  0
 22 23  1  0
 23 24  2  0
 23 25  1  0
 25 26  1  0
 25 27  1  0
 27 28  1  0
 28 29  1  0
 29 30  1  0
 30 31  1  0
 31 32  1  0
 30 33  1  0
 33 34  1  0
 21 35  1  0
 35 36  2  0
 36 37  1  0
 37 38  2  0
 16 39  2  0
  9  4  1  0
 39 11  1  0
 38 17  1  0
 38 20  1  0
 34 27  1  0
  1 40  1  0
  1 41  1  0
  1 42  1  0
  2 43  1  0
  2 44  1  0
  7 45  1  0
  7 46  1  0
  7 47  1  0
  8 48  1  0
 10 49  1  0
 13 50  1  0
 15 51  1  0
 15 52  1  0
 15 53  1  0
 18 54  1  0
 19 55  1  0
 22 56  1  0
 25 57  1  6
 26 58  1  0
 26 59  1  0
 26 60  1  0
 28 61  1  0
 28 62  1  0
 29 63  1  0
 29 64  1  0
 31 65  1  0
 31 66  1  0
 32 67  1  0
 32 68  1  0
 32 69  1  0
 33 70  1  0
 33 71  1  0
 34 72  1  0
 34 73  1  0
 35 74  1  0
 36 75  1  0
 37 76  1  0
M  END
$$$$
