@<TRIPOS>MOLECULE
*****
 76 80 0 0 0
SMALL
GASTEIGER

@<TRIPOS>ATOM
      1 C          -9.7860    1.5891    2.5763 C.3     1  UNL1       -0.0306
      2 C          -8.7828    0.5807    3.0289 C.3     1  UNL1        0.0885
      3 O          -7.7613    0.4614    2.0540 O.3     1  UNL1       -0.4744
      4 C          -8.0150    0.0720    0.7608 C.ar    1  UNL1        0.2555
      5 N          -9.1811   -0.2507    0.1842 N.ar    1  UNL1       -0.1317
      6 N          -9.0286   -0.5743   -1.0813 N.ar    1  UNL1       -0.2692
      7 C         -10.0551   -0.9822   -2.0423 C.3     1  UNL1        0.0304
      8 C          -7.6942   -0.4543   -1.3341 C.ar    1  UNL1        0.0503
      9 C          -7.0104   -0.0534   -0.2196 C.ar    1  UNL1        0.1152
     10 N          -5.6395    0.1978    0.0051 N.pl3   1  UNL1       -0.2782
     11 C          -4.6913    0.0532   -1.0377 C.ar    1  UNL1        0.2202
     12 N          -5.0479   -0.2964   -2.2580 N.ar    1  UNL1       -0.2224
     13 C          -4.1390   -0.4311   -3.2271 C.ar    1  UNL1        0.0361
     14 C          -2.7646   -0.2112   -3.0073 C.ar    1  UNL1       -0.0062
     15 C          -1.8529   -0.4323   -4.1372 C.3     1  UNL1       -0.0362
     16 C          -2.4124    0.1505   -1.7443 C.ar    1  UNL1        0.0809
     17 C          -1.0371    0.3848   -1.3534 C.ar    1  UNL1        0.0258
     18 C           0.1182    0.5593   -2.0713 C.ar    1  UNL1        0.0120
     19 N           1.1677    0.8144   -1.2371 N.ar    1  UNL1       -0.3586
     20 C           0.7402    0.8160    0.0337 C.ar    1  UNL1        0.0686
     21 C           1.4285    1.0231    1.2335 C.ar    1  UNL1        0.0576
     22 N           2.8091    1.2876    1.2324 N.am    1  UNL1       -0.2825
     23 C           3.7380    0.2217    1.3113 C.2     1  UNL1        0.2342
     24 O           3.2706   -0.9499    1.3800 O.2     1  UNL1       -0.2738
     25 C           5.2239    0.4763    1.3137 C.3     1  UNL1        0.0848
     26 C           5.4830    1.3836    2.4930 C.3     1  UNL1       -0.0409
     27 N           5.8742   -0.7849    1.4050 N.3     1  UNL1       -0.2893
     28 C           5.5208   -1.5934    0.2799 C.3     1  UNL1        0.0124
     29 C           6.7175   -2.0156   -0.5406 C.3     1  UNL1        0.0117
     30 N           7.5945   -0.8724   -0.6614 N.3     1  UNL1       -0.3002
     31 C           8.6511   -1.0919   -1.6165 C.3     1  UNL1       -0.0039
     32 C           9.5070    0.1475   -1.6711 C.3     1  UNL1       -0.0524
     33 C           8.1843   -0.4903    0.6008 C.3     1  UNL1        0.0117
     34 C           7.2577   -0.7558    1.7374 C.3     1  UNL1        0.0124
     35 C           0.6972    0.9551    2.3886 C.ar    1  UNL1       -0.0384
     36 C          -0.6569    0.6945    2.3763 C.ar    1  UNL1       -0.0593
     37 C          -1.3113    0.4931    1.1613 C.ar    1  UNL1       -0.0518
     38 C          -0.6111    0.5544   -0.0132 C.ar    1  UNL1        0.0107
     39 N          -3.3752    0.2683   -0.8131 N.ar    1  UNL1       -0.2139
     40 H          -9.5927    1.9205    1.5158 H       1  UNL1        0.0262
     41 H          -9.7374    2.4698    3.2416 H       1  UNL1        0.0262
     42 H         -10.8332    1.2209    2.5735 H       1  UNL1        0.0262
     43 H          -8.3826    0.8692    4.0059 H       1  UNL1        0.0694
     44 H          -9.3022   -0.4009    3.0897 H       1  UNL1        0.0694
     45 H         -10.3711   -0.1287   -2.6553 H       1  UNL1        0.0473
     46 H         -10.8906   -1.4792   -1.5054 H       1  UNL1        0.0473
     47 H          -9.6245   -1.7459   -2.7247 H       1  UNL1        0.0473
     48 H          -7.2845   -0.6619   -2.3071 H       1  UNL1        0.0846
     49 H          -5.3168    0.5015    0.9779 H       1  UNL1        0.1552
     50 H          -4.4512   -0.7146   -4.2115 H       1  UNL1        0.0834
     51 H          -1.4718    0.5078   -4.5714 H       1  UNL1        0.0279
     52 H          -2.4414   -0.9863   -4.9373 H       1  UNL1        0.0279
     53 H          -0.9901   -1.0999   -3.9147 H       1  UNL1        0.0279
     54 H           0.2217    0.5287   -3.1442 H       1  UNL1        0.0814
     55 H           2.1226    0.9752   -1.5696 H       1  UNL1        0.1654
     56 H           3.1365    2.2696    1.1734 H       1  UNL1        0.1549
     57 H           5.4321    1.0489    0.3985 H       1  UNL1        0.0556
     58 H           6.5003    1.7706    2.5481 H       1  UNL1        0.0249
     59 H           4.8152    2.2799    2.3404 H       1  UNL1        0.0249
     60 H           5.1176    0.9246    3.4474 H       1  UNL1        0.0249
     61 H           4.8028   -1.0787   -0.4093 H       1  UNL1        0.0439
     62 H           4.9922   -2.5406    0.5780 H       1  UNL1        0.0439
     63 H           7.2292   -2.8672   -0.0089 H       1  UNL1        0.0439
     64 H           6.3677   -2.2935   -1.5364 H       1  UNL1        0.0439
     65 H           9.3167   -1.9456   -1.3148 H       1  UNL1        0.0424
     66 H           8.2658   -1.3119   -2.6330 H       1  UNL1        0.0424
     67 H          10.0176    0.2700   -2.6599 H       1  UNL1        0.0242
     68 H           8.8575    1.0214   -1.4294 H       1  UNL1        0.0242
     69 H          10.2627    0.0705   -0.8581 H       1  UNL1        0.0242
     70 H           8.5160    0.5640    0.5286 H       1  UNL1        0.0439
     71 H           9.1226   -1.0929    0.7266 H       1  UNL1        0.0439
     72 H           7.5175   -1.7730    2.1548 H       1  UNL1        0.0439
     73 H           7.3893   -0.0635    2.5927 H       1  UNL1        0.0439
     74 H           1.1886    1.1076    3.3198 H       1  UNL1        0.0637
     75 H          -1.2591    0.6349    3.2750 H       1  UNL1        0.0618
     76 H          -2.3728    0.2843    1.1573 H       1  UNL1        0.0624
@<TRIPOS>BOND
     1     1     2    1
     2     2     3    1
     3     3     4    1
     4     4     5   ar
     5     5     6   ar
     6     6     7    1
     7     6     8   ar
     8     8     9   ar
     9     9    10    1
    10    10    11    1
    11    11    12   ar
    12    12    13   ar
    13    13    14   ar
    14    14    15    1
    15    14    16   ar
    16    16    17    1
    17    17    18   ar
    18    18    19   ar
    19    19    20   ar
    20    20    21   ar
    21    21    22    1
    22    22    23   am
    23    23    24    2
    24    23    25    1
    25    25    26    1
    26    25    27    1
    27    27    28    1
    28    28    29    1
    29    29    30    1
    30    30    31    1
    31    31    32    1
    32    30    33    1
    33    33    34    1
    34    21    35   ar
    35    35    36   ar
    36    36    37   ar
    37    37    38   ar
    38    16    39   ar
    39     9     4   ar
    40    39    11   ar
    41    38    17   ar
    42    38    20   ar
    43    34    27    1
    44     1    40    1
    45     1    41    1
    46     1    42    1
    47     2    43    1
    48     2    44    1
    49     7    45    1
    50     7    46    1
    51     7    47    1
    52     8    48    1
    53    10    49    1
    54    13    50    1
    55    15    51    1
    56    15    52    1
    57    15    53    1
    58    18    54    1
    59    19    55    1
    60    22    56    1
    61    25    57    1
    62    26    58    1
    63    26    59    1
    64    26    60    1
    65    28    61    1
    66    28    62    1
    67    29    63    1
    68    29    64    1
    69    31    65    1
    70    31    66    1
    71    32    67    1
    72    32    68    1
    73    32    69    1
    74    33    70    1
    75    33    71    1
    76    34    72    1
    77    34    73    1
    78    35    74    1
    79    36    75    1
    80    37    76    1
