@<TRIPOS>MOLECULE
*****
 49 50 0 0 0
SMALL
GASTEIGER

@<TRIPOS>ATOM
      1 C           2.1129    2.3522    1.0570 C.3     1  UNL1       -0.0165
      2 C           2.0160    1.5034   -0.2077 C.3     1  UNL1        0.1799
      3 C           2.7346    2.1976   -1.3319 C.3     1  UNL1       -0.0165
      4 O           2.6049    0.2395   -0.0026 O.3     1  UNL1       -0.4770
      5 C           3.9195    0.0340    0.3540 C.ar    1  UNL1        0.1221
      6 C           4.2286   -0.0333    1.7050 C.ar    1  UNL1       -0.0185
      7 C           5.5233   -0.2375    2.1152 C.ar    1  UNL1       -0.0399
      8 C           6.5708   -0.3815    1.2071 C.ar    1  UNL1        0.0412
      9 CL          8.1974   -0.6377    1.8215 Cl      1  UNL1       -0.0835
     10 C           6.2794   -0.3149   -0.1455 C.ar    1  UNL1       -0.0399
     11 C           4.9706   -0.1110   -0.5219 C.ar    1  UNL1       -0.0185
     12 C           0.5788    1.4129   -0.5275 C.2     1  UNL1        0.2566
     13 O          -0.0241    2.4325   -0.9188 O.2     1  UNL1       -0.2714
     14 N          -0.1883    0.2164   -0.4172 N.am    1  UNL1       -0.3092
     15 C          -1.5937    0.1655   -0.7518 C.3     1  UNL1        0.0232
     16 C          -2.4798    0.6115    0.3892 C.3     1  UNL1       -0.0345
     17 C          -3.9122    0.4240   -0.0584 C.3     1  UNL1       -0.0502
     18 C          -4.6108   -0.5859    0.7940 C.3     1  UNL1       -0.0373
     19 C          -5.0396   -1.8083    0.0290 C.3     1  UNL1        0.0462
     20 C          -6.1374   -1.4307   -0.8600 C.1     1  UNL1        0.0659
     21 N          -7.0353   -1.1230   -1.5643 N.1     1  UNL1       -0.1963
     22 C          -3.9818   -2.5402   -0.6863 C.3     1  UNL1       -0.0373
     23 C          -2.5787   -2.1109   -0.3721 C.3     1  UNL1       -0.0502
     24 C          -2.0313   -1.1188   -1.3741 C.3     1  UNL1       -0.0345
     25 H           3.1427    2.4460    1.4139 H       1  UNL1        0.0273
     26 H           1.5469    3.2686    0.9270 H       1  UNL1        0.0273
     27 H           1.5647    1.7617    1.8469 H       1  UNL1        0.0273
     28 H           2.5032    1.7728   -2.3280 H       1  UNL1        0.0273
     29 H           2.4037    3.2677   -1.3423 H       1  UNL1        0.0273
     30 H           3.8456    2.1285   -1.2454 H       1  UNL1        0.0273
     31 H           3.4436    0.0764    2.4341 H       1  UNL1        0.0654
     32 H           5.7129   -0.2845    3.2022 H       1  UNL1        0.0633
     33 H           7.0870   -0.4257   -0.8382 H       1  UNL1        0.0633
     34 H           4.7493   -0.0678   -1.5793 H       1  UNL1        0.0654
     35 H           0.3195   -0.6265   -0.0813 H       1  UNL1        0.1491
     36 H          -1.7565    0.9764   -1.4991 H       1  UNL1        0.0498
     37 H          -2.2404    1.7053    0.5462 H       1  UNL1        0.0283
     38 H          -2.3320    0.1439    1.3439 H       1  UNL1        0.0283
     39 H          -4.4201    1.4313    0.0716 H       1  UNL1        0.0266
     40 H          -4.0201    0.2356   -1.1516 H       1  UNL1        0.0266
     41 H          -5.5551   -0.1531    1.2247 H       1  UNL1        0.0278
     42 H          -3.9986   -0.8664    1.6935 H       1  UNL1        0.0278
     43 H          -5.5415   -2.4755    0.8095 H       1  UNL1        0.0454
     44 H          -4.1223   -3.6455   -0.4393 H       1  UNL1        0.0278
     45 H          -4.1212   -2.4877   -1.7831 H       1  UNL1        0.0278
     46 H          -1.9386   -3.0183   -0.4240 H       1  UNL1        0.0266
     47 H          -2.4633   -1.7595    0.6745 H       1  UNL1        0.0266
     48 H          -2.7995   -1.0140   -2.1686 H       1  UNL1        0.0283
     49 H          -1.1338   -1.5456   -1.9215 H       1  UNL1        0.0283
@<TRIPOS>BOND
     1     1     2    1
     2     2     3    1
     3     2     4    1
     4     4     5    1
     5     5     6   ar
     6     6     7   ar
     7     7     8   ar
     8     8     9    1
     9     8    10   ar
    10    10    11   ar
    11     2    12    1
    12    12    13    2
    13    12    14   am
    14    14    15    1
    15    15    16    1
    16    16    17    1
    17    17    18    1
    18    18    19    1
    19    19    20    1
    20    20    21    3
    21    19    22    1
    22    22    23    1
    23    23    24    1
    24    11     5   ar
    25    24    15    1
    26     1    25    1
    27     1    26    1
    28     1    27    1
    29     3    28    1
    30     3    29    1
    31     3    30    1
    32     6    31    1
    33     7    32    1
    34    10    33    1
    35    11    34    1
    36    14    35    1
    37    15    36    1
    38    16    37    1
    39    16    38    1
    40    17    39    1
    41    17    40    1
    42    18    41    1
    43    18    42    1
    44    19    43    1
    45    22    44    1
    46    22    45    1
    47    23    46    1
    48    23    47    1
    49    24    48    1
    50    24    49    1
