
     RDKit          3D

 49 50  0  0  0  0  0  0  0  0999 V2000
    2.1129    2.3522    1.0570 C   0  0  0  0  0  0  0  0  0  0  0  0
    2.0160    1.5034   -0.2077 C   0  0  0  0  0  0  0  0  0  0  0  0
    2.7346    2.1976   -1.3319 C   0  0  0  0  0  0  0  0  0  0  0  0
    2.6049    0.2395   -0.0026 O   0  0  0  0  0  0  0  0  0  0  0  0
    3.9195    0.0340    0.3540 C   0  0  0  0  0  0  0  0  0  0  0  0
    4.2286   -0.0333    1.7050 C   0  0  0  0  0  0  0  0  0  0  0  0
    5.5233   -0.2375    2.1152 C   0  0  0  0  0  0  0  0  0  0  0  0
    6.5708   -0.3815    1.2071 C   0  0  0  0  0  0  0  0  0  0  0  0
    8.1974   -0.6377    1.8215 Cl  0  0  0  0  0  0  0  0  0  0  0  0
    6.2794   -0.3149   -0.1455 C   0  0  0  0  0  0  0  0  0  0  0  0
    4.9706   -0.1110   -0.5219 C   0  0  0  0  0  0  0  0  0  0  0  0
    0.5788    1.4129   -0.5275 C   0  0  0  0  0  0  0  0  0  0  0  0
   -0.0241    2.4325   -0.9188 O   0  0  0  0  0  0  0  0  0  0  0  0
   -0.1883    0.2164   -0.4172 N   0  0  0  0  0  0  0  0  0  0  0  0
   -1.5937    0.1655   -0.7518 C   0  0  0  0  0  0  0  0  0  0  0  0
   -2.4798    0.6115    0.3892 C   0  0  0  0  0  0  0  0  0  0  0  0
   -3.9122    0.4240   -0.0584 C   0  0  0  0  0  0  0  0  0  0  0  0
   -4.6108   -0.5859    0.7940 C   0  0  0  0  0  0  0  0  0  0  0  0
   -5.0396   -1.8083    0.0290 C   0  0  0  0  0  0  0  0  0  0  0  0
   -6.1374   -1.4307   -0.8600 C   0  0  0  0  0  0  0  0  0  0  0  0
   -7.0353   -1.1230   -1.5643 N   0  0  0  0  0  0  0  0  0  0  0  0
   -3.9818   -2.5402   -0.6863 C   0  0  0  0  0  0  0  0  0  0  0  0
   -2.5787   -2.1109   -0.3721 C   0  0  0  0  0  0  0  0  0  0  0  0
   -2.0313   -1.1188   -1.3741 C   0  0  0  0  0  0  0  0  0  0  0  0
    3.1427    2.4460    1.4139 H   0  0  0  0  0  0  0  0  0  0  0  0
    1.5469    3.2686    0.9270 H   0  0  0  0  0  0  0  0  0  0  0  0
    1.5647    1.7617    1.8469 H   0  0  0  0  0  0  0  0  0  0  0  0
    2.5032    1.7728   -2.3280 H   0  0  0  0  0  0  0  0  0  0  0  0
    2.4037    3.2677   -1.3423 H   0  0  0  0  0  0  0  0  0  0  0  0
    3.8456    2.1285   -1.2454 H   0  0  0  0  0  0  0  0  0  0  0  0
    3.4436    0.0764    2.4341 H   0  0  0  0  0  0  0  0  0  0  0  0
    5.7129   -0.2845    3.2022 H   0  0  0  0  0  0  0  0  0  0  0  0
    7.0870   -0.4257   -0.8382 H   0  0  0  0  0  0  0  0  0  0  0  0
    4.7493   -0.0678   -1.5793 H   0  0  0  0  0  0  0  0  0  0  0  0
    0.3195   -0.6265   -0.0813 H   0  0  0  0  0  0  0  0  0  0  0  0
   -1.7565    0.9764   -1.4991 H   0  0  0  0  0  0  0  0  0  0  0  0
   -2.2404    1.7053    0.5462 H   0  0  0  0  0  0  0  0  0  0  0  0
   -2.3320    0.1439    1.3439 H   0  0  0  0  0  0  0  0  0  0  0  0
   -4.4201    1.4313    0.0716 H   0  0  0  0  0  0  0  0  0  0  0  0
   -4.0201    0.2356   -1.1516 H   0  0  0  0  0  0  0  0  0  0  0  0
   -5.5551   -0.1531    1.2247 H   0  0  0  0  0  0  0  0  0  0  0  0
   -3.9986   -0.8664    1.6935 H   0  0  0  0  0  0  0  0  0  0  0  0
   -5.5415   -2.4755    0.8095 H   0  0  0  0  0  0  0  0  0  0  0  0
   -4.1223   -3.6455   -0.4393 H   0  0  0  0  0  0  0  0  0  0  0  0
   -4.1212   -2.4877   -1.7831 H   0  0  0  0  0  0  0  0  0  0  0  0
   -1.9386   -3.0183   -0.4240 H   0  0  0  0  0  0  0  0  0  0  0  0
   -2.4633   -1.7595    0.6745 H   0  0  0  0  0  0  0  0  0  0  0  0
   -2.7995   -1.0140   -2.1686 H   0  0  0  0  0  0  0  0  0  0  0  0
   -1.1338   -1.5456   -1.9215 H   0  0  0  0  0  0  0  0  0  0  0  0
  1  2  1  0
  2  3  1  0
  2  4  1  0
  4  5  1  0
  5  6  2  0
  6  7  1  0
  7  8  2  0
  8  9  1  0
  8 10  1  0
 10 11  2  0
  2 12  1  0
 12 13  2  0
 12 14  1  0
 14 15  1  0
 15 16  1  0
 16 17  1  0
 17 18  1  0
 18 19  1  0
 19 20  1  0
 20 21  3  0
 19 22  1  0
 22 23  1  0
 23 24  1  0
 11  5  1  0
 24 15  1  0
  1 25  1  0
  1 26  1  0
  1 27  1  0
  3 28  1  0
  3 29  1  0
  3 30  1  0
  6 31  1  0
  7 32  1  0
 10 33  1  0
 11 34  1  0
 14 35  1  0
 15 36  1  0
 16 37  1  0
 16 38  1  0
 17 39  1  0
 17 40  1  0
 18 41  1  0
 18 42  1  0
 19 43  1  0
 22 44  1  0
 22 45  1  0
 23 46  1  0
 23 47  1  0
 24 48  1  0
 24 49  1  0
M  END
$$$$
