@<TRIPOS>MOLECULE
*****
 56 58 0 0 0
SMALL
GASTEIGER

@<TRIPOS>ATOM
      1 C          -0.2257   -3.1170   -1.1523 C.2     1  UNL1       -0.0951
      2 C           1.0634   -3.1349   -1.1557 C.2     1  UNL1       -0.0472
      3 C           1.6998   -4.3382   -1.8182 C.3     1  UNL1       -0.0396
      4 C           1.9295   -2.1280   -0.6026 C.ar    1  UNL1        0.0166
      5 C           3.2904   -2.4719   -0.5205 C.ar    1  UNL1        0.0374
      6 N           4.1964   -1.7009    0.0345 N.ar    1  UNL1       -0.2542
      7 C           3.8611   -0.5080    0.5704 C.ar    1  UNL1        0.0755
      8 C           4.9221    0.2645    1.1914 C.ar    1  UNL1        0.0369
      9 C           6.2450   -0.1941    1.1567 C.ar    1  UNL1       -0.0314
     10 C           7.2870    0.4740    1.7571 C.ar    1  UNL1        0.0418
     11 CL          8.9309   -0.1040    1.7219 Cl      1  UNL1       -0.0835
     12 C           7.0250    1.6505    2.4227 C.ar    1  UNL1       -0.0406
     13 C           5.7572    2.1230    2.4741 C.ar    1  UNL1       -0.0244
     14 C           4.7089    1.4258    1.8592 C.ar    1  UNL1        0.1326
     15 F           3.4930    2.0186    2.0011 F       1  UNL1       -0.2048
     16 C           2.5532   -0.1314    0.5079 C.ar    1  UNL1       -0.0138
     17 C           1.5565   -0.9192   -0.0801 C.ar    1  UNL1        0.0423
     18 N           0.2242   -0.4461   -0.1214 N.pl3   1  UNL1       -0.3133
     19 C          -0.3445   -0.0243   -1.3544 C.ar    1  UNL1        0.0465
     20 C           0.4808   -0.1034   -2.4790 C.ar    1  UNL1       -0.0217
     21 C           0.0008    0.3148   -3.7197 C.ar    1  UNL1        0.0293
     22 N          -1.2513    0.7816   -3.7690 N.ar    1  UNL1       -0.2624
     23 C          -2.0906    0.8820   -2.7234 C.ar    1  UNL1        0.0415
     24 C          -1.6187    0.4614   -1.4504 C.ar    1  UNL1        0.0758
     25 C          -2.4993    0.5315   -0.3152 C.2     1  UNL1        0.2476
     26 O          -2.2528    0.0807    0.8464 O.2     1  UNL1       -0.2701
     27 N          -3.7908    1.1449   -0.4056 N.am    1  UNL1       -0.3062
     28 CA         -4.6918    1.2064    0.7341 C.3     1  UNL1        0.0462
     29 C          -4.8215    2.6186    1.2864 C.3     1  UNL1       -0.0352
     30 C          -5.7816    2.5826    2.4799 C.3     1  UNL1       -0.0635
     31 C          -6.0378    0.6004    0.4440 C.3     1  UNL1        0.0626
     32 O          -6.6873    1.2388   -0.6020 O.3     1  UNL1       -0.3932
     33 H          -0.8745   -2.4067   -0.7550 H       1  UNL1        0.0538
     34 H          -0.7423   -3.9928   -1.6317 H       1  UNL1        0.0538
     35 H           0.9415   -4.9860   -2.2872 H       1  UNL1        0.0278
     36 H           2.2522   -4.9550   -1.0633 H       1  UNL1        0.0278
     37 H           2.4516   -3.9505   -2.5283 H       1  UNL1        0.0278
     38 H           3.6161   -3.4256   -0.9332 H       1  UNL1        0.0836
     39 H           6.4337   -1.1136    0.6264 H       1  UNL1        0.0639
     40 H           7.8460    2.1615    2.8938 H       1  UNL1        0.0633
     41 H           5.5736    3.0506    3.0119 H       1  UNL1        0.0647
     42 H           2.1988    0.8016    0.9087 H       1  UNL1        0.0658
     43 H          -0.3263   -0.4045    0.7597 H       1  UNL1        0.1522
     44 H           1.4775   -0.4919   -2.3963 H       1  UNL1        0.0651
     45 H           0.5945    0.2779   -4.6203 H       1  UNL1        0.0830
     46 H          -3.0885    1.2629   -2.8240 H       1  UNL1        0.0838
     47 H          -4.1048    1.5541   -1.2960 H       1  UNL1        0.1494
     48 HA         -4.2197    0.6282    1.5551 H       1  UNL1        0.0521
     49 H          -3.8292    2.9078    1.7273 H       1  UNL1        0.0281
     50 H          -5.1020    3.3674    0.5351 H       1  UNL1        0.0281
     51 H          -5.5731    3.3747    3.2181 H       1  UNL1        0.0230
     52 H          -6.8121    2.7268    2.1040 H       1  UNL1        0.0230
     53 H          -5.6915    1.5711    2.9562 H       1  UNL1        0.0230
     54 H1         -6.6909    0.7185    1.3450 H       1  UNL1        0.0575
     55 H2         -5.9263   -0.4870    0.2784 H       1  UNL1        0.0575
     56 H          -7.5357    0.7319   -0.8026 H       1  UNL1        0.2095
@<TRIPOS>BOND
     1     1     2    2
     2     2     3    1
     3     2     4    1
     4     4     5   ar
     5     5     6   ar
     6     6     7   ar
     7     7     8    1
     8     8     9   ar
     9     9    10   ar
    10    10    11    1
    11    10    12   ar
    12    12    13   ar
    13    13    14   ar
    14    14    15    1
    15     7    16   ar
    16    16    17   ar
    17    17    18    1
    18    18    19    1
    19    19    20   ar
    20    20    21   ar
    21    21    22   ar
    22    22    23   ar
    23    23    24   ar
    24    24    25    1
    25    25    26    2
    26    25    27   am
    27    27    28    1
    28    28    29    1
    29    29    30    1
    30    28    31    1
    31    31    32    1
    32    17     4   ar
    33    24    19   ar
    34    14     8   ar
    35     1    33    1
    36     1    34    1
    37     3    35    1
    38     3    36    1
    39     3    37    1
    40     5    38    1
    41     9    39    1
    42    12    40    1
    43    13    41    1
    44    16    42    1
    45    18    43    1
    46    20    44    1
    47    21    45    1
    48    23    46    1
    49    27    47    1
    50    28    48    1
    51    29    49    1
    52    29    50    1
    53    30    51    1
    54    30    52    1
    55    30    53    1
    56    31    54    1
    57    31    55    1
    58    32    56    1
