@<TRIPOS>MOLECULE
*****
 40 43 0 0 0
SMALL
GASTEIGER

@<TRIPOS>ATOM
      1 C          -6.7668    0.2172   -0.8439 C.3     1  UNL1       -0.0650
      2 C          -5.2732    0.0156   -0.8470 C.3     1  UNL1       -0.0519
      3 C          -4.7223    0.4684    0.5090 C.3     1  UNL1       -0.0279
      4 C          -3.2363    0.2596    0.4844 C.ar    1  UNL1       -0.0454
      5 C          -2.4015    1.2808    0.0391 C.ar    1  UNL1       -0.0578
      6 C          -1.0403    1.0557    0.0294 C.ar    1  UNL1       -0.0503
      7 C          -0.5315   -0.1360    0.4456 C.ar    1  UNL1        0.0260
      8 C          -1.3235   -1.1762    0.8951 C.ar    1  UNL1        0.0516
      9 C          -2.6956   -0.9387    0.9009 C.ar    1  UNL1       -0.0345
     10 N          -0.7998   -2.3529    1.3046 N.ar    1  UNL1       -0.3203
     11 C           0.5232   -2.5429    1.2843 C.ar    1  UNL1        0.2748
     12 O           1.0274   -3.6121    1.6544 O.2     1  UNL1       -0.2656
     13 C           1.3443   -1.5271    0.8420 C.ar    1  UNL1        0.1322
     14 N           2.7031   -1.4076    0.7019 N.ar    1  UNL1       -0.3336
     15 C           3.0422   -0.2211    0.2285 C.ar    1  UNL1        0.1408
     16 C           4.3509    0.3561   -0.0816 C.ar    1  UNL1        0.0356
     17 C           4.3873    1.6650   -0.5803 C.ar    1  UNL1       -0.0497
     18 C           5.5559    2.3129   -0.9074 C.ar    1  UNL1       -0.0610
     19 C           6.7489    1.6457   -0.7377 C.ar    1  UNL1       -0.0603
     20 C           6.7398    0.3569   -0.2486 C.ar    1  UNL1       -0.0427
     21 C           5.5385   -0.2829    0.0778 C.ar    1  UNL1        0.0516
     22 CL          5.6730   -1.9068    0.6839 Cl      1  UNL1       -0.0828
     23 N           1.8537    0.4450    0.0590 N.ar    1  UNL1       -0.2269
     24 C           0.8399   -0.3243    0.4213 C.ar    1  UNL1        0.1039
     25 H          -7.2731   -0.5445   -1.4704 H       1  UNL1        0.0230
     26 H          -7.1573    0.1082    0.1904 H       1  UNL1        0.0230
     27 H          -6.9634    1.2315   -1.2577 H       1  UNL1        0.0230
     28 H          -4.8075    0.6077   -1.6579 H       1  UNL1        0.0266
     29 H          -5.0045   -1.0609   -0.9934 H       1  UNL1        0.0266
     30 H          -5.1035   -0.1689    1.3204 H       1  UNL1        0.0313
     31 H          -4.9438    1.5215    0.6768 H       1  UNL1        0.0313
     32 H          -2.8251    2.2305   -0.2913 H       1  UNL1        0.0620
     33 H          -0.3577    1.8235   -0.3092 H       1  UNL1        0.0625
     34 H          -3.3300   -1.7445    1.2505 H       1  UNL1        0.0641
     35 H          -1.4791   -3.0786    1.6271 H       1  UNL1        0.1690
     36 H           3.3350   -2.1806    0.9508 H       1  UNL1        0.1675
     37 H           3.4609    2.2313   -0.7303 H       1  UNL1        0.0625
     38 H           5.5525    3.3387   -1.2960 H       1  UNL1        0.0618
     39 H           7.6777    2.1663   -0.9998 H       1  UNL1        0.0618
     40 H           7.6815   -0.1313   -0.1292 H       1  UNL1        0.0632
@<TRIPOS>BOND
     1     1     2    1
     2     2     3    1
     3     3     4    1
     4     4     5   ar
     5     5     6   ar
     6     6     7   ar
     7     7     8   ar
     8     8     9   ar
     9     8    10   ar
    10    10    11   ar
    11    11    12    2
    12    11    13   ar
    13    13    14   ar
    14    14    15   ar
    15    15    16    1
    16    16    17   ar
    17    17    18   ar
    18    18    19   ar
    19    19    20   ar
    20    20    21   ar
    21    21    22    1
    22    15    23   ar
    23    23    24   ar
    24     9     4   ar
    25    24    13   ar
    26    24     7   ar
    27    21    16   ar
    28     1    25    1
    29     1    26    1
    30     1    27    1
    31     2    28    1
    32     2    29    1
    33     3    30    1
    34     3    31    1
    35     5    32    1
    36     6    33    1
    37     9    34    1
    38    10    35    1
    39    14    36    1
    40    17    37    1
    41    18    38    1
    42    19    39    1
    43    20    40    1
