
     RDKit          3D

 40 43  0  0  0  0  0  0  0  0999 V2000
   -6.7668    0.2172   -0.8439 C   0  0  0  0  0  0  0  0  0  0  0  0
   -5.2732    0.0156   -0.8470 C   0  0  0  0  0  0  0  0  0  0  0  0
   -4.7223    0.4684    0.5090 C   0  0  0  0  0  0  0  0  0  0  0  0
   -3.2363    0.2596    0.4844 C   0  0  0  0  0  0  0  0  0  0  0  0
   -2.4015    1.2808    0.0391 C   0  0  0  0  0  0  0  0  0  0  0  0
   -1.0403    1.0557    0.0294 C   0  0  0  0  0  0  0  0  0  0  0  0
   -0.5315   -0.1360    0.4456 C   0  0  0  0  0  0  0  0  0  0  0  0
   -1.3235   -1.1762    0.8951 C   0  0  0  0  0  0  0  0  0  0  0  0
   -2.6956   -0.9387    0.9009 C   0  0  0  0  0  0  0  0  0  0  0  0
   -0.7998   -2.3529    1.3046 N   0  0  0  0  0  0  0  0  0  0  0  0
    0.5232   -2.5429    1.2843 C   0  0  0  0  0  0  0  0  0  0  0  0
    1.0274   -3.6121    1.6544 O   0  0  0  0  0  0  0  0  0  0  0  0
    1.3443   -1.5271    0.8420 C   0  0  0  0  0  0  0  0  0  0  0  0
    2.7031   -1.4076    0.7019 N   0  0  0  0  0  0  0  0  0  0  0  0
    3.0422   -0.2211    0.2285 C   0  0  0  0  0  0  0  0  0  0  0  0
    4.3509    0.3561   -0.0816 C   0  0  0  0  0  0  0  0  0  0  0  0
    4.3873    1.6650   -0.5803 C   0  0  0  0  0  0  0  0  0  0  0  0
    5.5559    2.3129   -0.9074 C   0  0  0  0  0  0  0  0  0  0  0  0
    6.7489    1.6457   -0.7377 C   0  0  0  0  0  0  0  0  0  0  0  0
    6.7398    0.3569   -0.2486 C   0  0  0  0  0  0  0  0  0  0  0  0
    5.5385   -0.2829    0.0778 C   0  0  0  0  0  0  0  0  0  0  0  0
    5.6730   -1.9068    0.6839 Cl  0  0  0  0  0  0  0  0  0  0  0  0
    1.8537    0.4450    0.0590 N   0  0  0  0  0  0  0  0  0  0  0  0
    0.8399   -0.3243    0.4213 C   0  0  0  0  0  0  0  0  0  0  0  0
   -7.2731   -0.5445   -1.4704 H   0  0  0  0  0  0  0  0  0  0  0  0
   -7.1573    0.1082    0.1904 H   0  0  0  0  0  0  0  0  0  0  0  0
   -6.9634    1.2315   -1.2577 H   0  0  0  0  0  0  0  0  0  0  0  0
   -4.8075    0.6077   -1.6579 H   0  0  0  0  0  0  0  0  0  0  0  0
   -5.0045   -1.0609   -0.9934 H   0  0  0  0  0  0  0  0  0  0  0  0
   -5.1035   -0.1689    1.3204 H   0  0  0  0  0  0  0  0  0  0  0  0
   -4.9438    1.5215    0.6768 H   0  0  0  0  0  0  0  0  0  0  0  0
   -2.8251    2.2305   -0.2913 H   0  0  0  0  0  0  0  0  0  0  0  0
   -0.3577    1.8235   -0.3092 H   0  0  0  0  0  0  0  0  0  0  0  0
   -3.3300   -1.7445    1.2505 H   0  0  0  0  0  0  0  0  0  0  0  0
   -1.4791   -3.0786    1.6271 H   0  0  0  0  0  0  0  0  0  0  0  0
    3.3350   -2.1806    0.9508 H   0  0  0  0  0  0  0  0  0  0  0  0
    3.4609    2.2313   -0.7303 H   0  0  0  0  0  0  0  0  0  0  0  0
    5.5525    3.3387   -1.2960 H   0  0  0  0  0  0  0  0  0  0  0  0
    7.6777    2.1663   -0.9998 H   0  0  0  0  0  0  0  0  0  0  0  0
    7.6815   -0.1313   -0.1292 H   0  0  0  0  0  0  0  0  0  0  0  0
  1  2  1  0
  2  3  1  0
  3  4  1  0
  4  5  2  0
  5  6  1  0
  6  7  2  0
  7  8  1  0
  8  9  2  0
  8 10  1  0
 10 11  1  0
 11 12  2  0
 11 13  1  0
 13 14  1  0
 14 15  1  0
 15 16  1  0
 16 17  2  0
 17 18  1  0
 18 19  2  0
 19 20  1  0
 20 21  2  0
 21 22  1  0
 15 23  2  0
 23 24  1  0
  9  4  1  0
 24 13  2  0
 24  7  1  0
 21 16  1  0
  1 25  1  0
  1 26  1  0
  1 27  1  0
  2 28  1  0
  2 29  1  0
  3 30  1  0
  3 31  1  0
  5 32  1  0
  6 33  1  0
  9 34  1  0
 10 35  1  0
 14 36  1  0
 17 37  1  0
 18 38  1  0
 19 39  1  0
 20 40  1  0
M  END
$$$$
