
     RDKit          3D

 31 33  0  0  0  0  0  0  0  0999 V2000
   -6.8432    0.3284   -0.2173 O   0  0  0  0  0  0  0  0  0  0  0  0
   -5.4750    0.6042   -0.2119 C   0  0  0  0  0  0  0  0  0  0  0  0
   -4.6420   -0.2658    0.4552 C   0  0  0  0  0  0  0  0  0  0  0  0
   -3.2619   -0.0206    0.4818 C   0  0  0  0  0  0  0  0  0  0  0  0
   -2.7305    1.0709   -0.1465 C   0  0  0  0  0  0  0  0  0  0  0  0
   -1.3521    1.3053   -0.1370 N   0  0  0  0  0  0  0  0  0  0  0  0
   -0.3296    0.3484   -0.0489 C   0  0  0  0  0  0  0  0  0  0  0  0
    0.9055    0.3152    0.0447 N   0  0  0  0  0  0  0  0  0  0  0  0
    1.6954   -0.6741    0.0901 C   0  0  0  0  0  0  0  0  0  0  0  0
    3.1871   -0.5917    0.2046 C   0  0  0  0  0  0  0  0  0  0  0  0
    3.8201    0.6343    0.2706 C   0  0  0  0  0  0  0  0  0  0  0  0
    5.1852    0.7552    0.3760 C   0  0  0  0  0  0  0  0  0  0  0  0
    5.9462   -0.4150    0.4166 C   0  0  0  0  0  0  0  0  0  0  0  0
    7.6981   -0.3068    0.5509 Cl  0  0  0  0  0  0  0  0  0  0  0  0
    5.3444   -1.6422    0.3530 C   0  0  0  0  0  0  0  0  0  0  0  0
    3.9582   -1.7065    0.2468 C   0  0  0  0  0  0  0  0  0  0  0  0
    1.1309   -1.9757    0.0277 C   0  0  0  0  0  0  0  0  0  0  0  0
   -0.6654   -1.4944   -0.1018 S   0  0  0  0  0  0  0  0  0  0  0  0
   -3.6029    1.9144   -0.8017 C   0  0  0  0  0  0  0  0  0  0  0  0
   -4.9580    1.7102   -0.8506 C   0  0  0  0  0  0  0  0  0  0  0  0
   -7.1758   -0.6095   -0.0330 H   0  0  0  0  0  0  0  0  0  0  0  0
   -5.0629   -1.1262    0.9495 H   0  0  0  0  0  0  0  0  0  0  0  0
   -2.7044   -0.7553    1.0415 H   0  0  0  0  0  0  0  0  0  0  0  0
   -1.0100    2.3121   -0.2037 H   0  0  0  0  0  0  0  0  0  0  0  0
    3.2202    1.5188    0.2378 H   0  0  0  0  0  0  0  0  0  0  0  0
    5.6476    1.7306    0.4254 H   0  0  0  0  0  0  0  0  0  0  0  0
    5.9170   -2.5410    0.3834 H   0  0  0  0  0  0  0  0  0  0  0  0
    3.5262   -2.7054    0.1992 H   0  0  0  0  0  0  0  0  0  0  0  0
    1.5015   -2.8826    0.0425 H   0  0  0  0  0  0  0  0  0  0  0  0
   -3.2220    2.7896   -1.3110 H   0  0  0  0  0  0  0  0  0  0  0  0
   -5.6480    2.3751   -1.3669 H   0  0  0  0  0  0  0  0  0  0  0  0
  1  2  1  0
  2  3  2  0
  3  4  1  0
  4  5  2  0
  5  6  1  0
  6  7  1  0
  7  8  2  0
  8  9  1  0
  9 10  1  0
 10 11  2  0
 11 12  1  0
 12 13  2  0
 13 14  1  0
 13 15  1  0
 15 16  2  0
  9 17  2  0
 17 18  1  0
  5 19  1  0
 19 20  2  0
 20  2  1  0
 18  7  1  0
 16 10  1  0
  1 21  1  0
  3 22  1  0
  4 23  1  0
  6 24  1  0
 11 25  1  0
 12 26  1  0
 15 27  1  0
 16 28  1  0
 17 29  1  0
 19 30  1  0
 20 31  1  0
M  END
$$$$
