@<TRIPOS>MOLECULE
*****
 31 33 0 0 0
SMALL
GASTEIGER

@<TRIPOS>ATOM
      1 O          -6.8432    0.3284   -0.2173 O.3     1  UNL1       -0.5068
      2 C          -5.4750    0.6042   -0.2119 C.ar    1  UNL1        0.1170
      3 C          -4.6420   -0.2658    0.4552 C.ar    1  UNL1       -0.0184
      4 C          -3.2619   -0.0206    0.4818 C.ar    1  UNL1       -0.0370
      5 C          -2.7305    1.0709   -0.1465 C.ar    1  UNL1        0.0330
      6 N          -1.3521    1.3053   -0.1370 N.pl3   1  UNL1       -0.2937
      7 C          -0.3296    0.3484   -0.0489 C.ar    1  UNL1        0.1629
      8 N           0.9055    0.3152    0.0447 N.ar    1  UNL1       -0.2247
      9 C           1.6954   -0.6741    0.0901 C.ar    1  UNL1        0.0802
     10 C           3.1871   -0.5917    0.2046 C.ar    1  UNL1        0.0010
     11 C           3.8201    0.6343    0.2706 C.ar    1  UNL1       -0.0512
     12 C           5.1852    0.7552    0.3760 C.ar    1  UNL1       -0.0428
     13 C           5.9462   -0.4150    0.4166 C.ar    1  UNL1        0.0410
     14 CL          7.6981   -0.3068    0.5509 Cl      1  UNL1       -0.0835
     15 C           5.3444   -1.6422    0.3530 C.ar    1  UNL1       -0.0428
     16 C           3.9582   -1.7065    0.2468 C.ar    1  UNL1       -0.0512
     17 C           1.1309   -1.9757    0.0277 C.ar    1  UNL1        0.0049
     18 S          -0.6654   -1.4944   -0.1018 S.2     1  UNL1       -0.0599
     19 C          -3.6029    1.9144   -0.8017 C.ar    1  UNL1       -0.0370
     20 C          -4.9580    1.7102   -0.8506 C.ar    1  UNL1       -0.0184
     21 H          -7.1758   -0.6095   -0.0330 H       1  UNL1        0.2921
     22 H          -5.0629   -1.1262    0.9495 H       1  UNL1        0.0655
     23 H          -2.7044   -0.7553    1.0415 H       1  UNL1        0.0637
     24 H          -1.0100    2.3121   -0.2037 H       1  UNL1        0.1541
     25 H           3.2202    1.5188    0.2378 H       1  UNL1        0.0625
     26 H           5.6476    1.7306    0.4254 H       1  UNL1        0.0632
     27 H           5.9170   -2.5410    0.3834 H       1  UNL1        0.0632
     28 H           3.5262   -2.7054    0.1992 H       1  UNL1        0.0625
     29 H           1.5015   -2.8826    0.0425 H       1  UNL1        0.0716
     30 H          -3.2220    2.7896   -1.3110 H       1  UNL1        0.0637
     31 H          -5.6480    2.3751   -1.3669 H       1  UNL1        0.0655
@<TRIPOS>BOND
     1     1     2    1
     2     2     3   ar
     3     3     4   ar
     4     4     5   ar
     5     5     6    1
     6     6     7    1
     7     7     8   ar
     8     8     9   ar
     9     9    10    1
    10    10    11   ar
    11    11    12   ar
    12    12    13   ar
    13    13    14    1
    14    13    15   ar
    15    15    16   ar
    16     9    17   ar
    17    17    18   ar
    18     5    19   ar
    19    19    20   ar
    20    20     2   ar
    21    18     7   ar
    22    16    10   ar
    23     1    21    1
    24     3    22    1
    25     4    23    1
    26     6    24    1
    27    11    25    1
    28    12    26    1
    29    15    27    1
    30    16    28    1
    31    17    29    1
    32    19    30    1
    33    20    31    1
