
     RDKit          3D

 43 45  0  0  0  0  0  0  0  0999 V2000
    0.4785   -1.6111    0.8427 C   0  0  1  0  0  0  0  0  0  0  0  0
    1.8270   -1.1181    1.2912 C   0  0  0  0  0  0  0  0  0  0  0  0
    2.8776   -1.7605    0.6160 O   0  0  0  0  0  0  0  0  0  0  0  0
    4.3783   -1.2383    1.0886 S   0  0  0  0  0  0  0  0  0  0  0  0
    4.2250   -0.4914    2.3842 O   0  0  0  0  0  0  0  0  0  0  0  0
    5.2468   -2.4770    1.2642 O   0  0  0  0  0  0  0  0  0  0  0  0
    5.1813   -0.2506   -0.0488 N   0  0  0  0  0  0  0  0  0  0  0  0
    4.5137    0.9738   -0.3636 C   0  0  0  0  0  0  0  0  0  0  0  0
    5.3180    1.7573   -1.3760 C   0  0  0  0  0  0  0  0  0  0  0  0
   -0.5686   -0.9854    1.5010 O   0  0  0  0  0  0  0  0  0  0  0  0
   -1.6936   -1.0872    0.7174 C   0  0  1  0  0  0  0  0  0  0  0  0
   -2.2915    0.2318    0.6162 N   0  0  0  0  0  0  0  0  0  0  0  0
   -1.7898    1.4717    0.6653 C   0  0  0  0  0  0  0  0  0  0  0  0
   -2.7901    2.3679    0.5159 N   0  0  0  0  0  0  0  0  0  0  0  0
   -3.9518    1.7059    0.3684 C   0  0  0  0  0  0  0  0  0  0  0  0
   -5.2421    2.1585    0.1864 C   0  0  0  0  0  0  0  0  0  0  0  0
   -5.5400    3.5577    0.1246 N   0  0  0  0  0  0  0  0  0  0  0  0
   -6.1754    1.2150    0.0742 N   0  0  0  0  0  0  0  0  0  0  0  0
   -5.9358   -0.1111    0.1269 C   0  0  0  0  0  0  0  0  0  0  0  0
   -4.6560   -0.5301    0.3070 N   0  0  0  0  0  0  0  0  0  0  0  0
   -3.6274    0.3561    0.4330 C   0  0  0  0  0  0  0  0  0  0  0  0
   -1.2880   -1.6157   -0.6452 C   0  0  2  0  0  0  0  0  0  0  0  0
   -1.5239   -2.9865   -0.7138 O   0  0  0  0  0  0  0  0  0  0  0  0
    0.1974   -1.3074   -0.6156 C   0  0  2  0  0  0  0  0  0  0  0  0
    0.9139   -2.1268   -1.4759 O   0  0  0  0  0  0  0  0  0  0  0  0
    0.3514   -2.7029    0.9733 H   0  0  0  0  0  0  0  0  0  0  0  0
    1.8834   -1.2081    2.3797 H   0  0  0  0  0  0  0  0  0  0  0  0
    1.8619   -0.0308    0.9962 H   0  0  0  0  0  0  0  0  0  0  0  0
    6.1287   -0.0589    0.3353 H   0  0  0  0  0  0  0  0  0  0  0  0
    3.5338    0.7332   -0.8238 H   0  0  0  0  0  0  0  0  0  0  0  0
    4.3814    1.6505    0.5067 H   0  0  0  0  0  0  0  0  0  0  0  0
    4.6851    2.1804   -2.1839 H   0  0  0  0  0  0  0  0  0  0  0  0
    6.0950    1.1532   -1.8753 H   0  0  0  0  0  0  0  0  0  0  0  0
    5.8185    2.6537   -0.9214 H   0  0  0  0  0  0  0  0  0  0  0  0
   -2.3869   -1.7971    1.2364 H   0  0  0  0  0  0  0  0  0  0  0  0
   -0.7061    1.6015    0.8104 H   0  0  0  0  0  0  0  0  0  0  0  0
   -5.7517    3.6408    1.1381 H   0  0  0  0  0  0  0  0  0  0  0  0
   -5.4255    3.8986   -0.8717 H   0  0  0  0  0  0  0  0  0  0  0  0
   -6.7573   -0.8208    0.0263 H   0  0  0  0  0  0  0  0  0  0  0  0
   -1.7850   -1.0634   -1.4662 H   0  0  0  0  0  0  0  0  0  0  0  0
   -0.6653   -3.4660   -0.8165 H   0  0  0  0  0  0  0  0  0  0  0  0
    0.3080   -0.2364   -0.8499 H   0  0  0  0  0  0  0  0  0  0  0  0
    0.3469   -2.2261   -2.2908 H   0  0  0  0  0  0  0  0  0  0  0  0
  1  2  1  0
  2  3  1  0
  3  4  1  0
  4  5  2  0
  4  6  2  0
  4  7  1  0
  7  8  1  0
  8  9  1  0
  1 10  1  0
 10 11  1  0
 11 12  1  0
 12 13  1  0
 13 14  2  0
 14 15  1  0
 15 16  2  0
 16 17  1  0
 16 18  1  0
 18 19  2  0
 19 20  1  0
 20 21  2  0
 11 22  1  0
 22 23  1  0
 22 24  1  0
 24 25  1  0
 24  1  1  0
 21 12  1  0
 21 15  1  0
  1 26  1  6
  2 27  1  0
  2 28  1  0
  7 29  1  0
  8 30  1  0
  8 31  1  0
  9 32  1  0
  9 33  1  0
  9 34  1  0
 11 35  1  1
 13 36  1  0
 17 37  1  0
 17 38  1  0
 19 39  1  0
 22 40  1  6
 23 41  1  0
 24 42  1  6
 25 43  1  0
M  END
$$$$
