@<TRIPOS>MOLECULE
*****
 43 45 0 0 0
SMALL
GASTEIGER

@<TRIPOS>ATOM
      1 C           0.4785   -1.6111    0.8427 C.3     1  UNL1        0.1151
      2 C           1.8270   -1.1181    1.2912 C.3     1  UNL1        0.1067
      3 O           2.8776   -1.7605    0.6160 O.3     1  UNL1       -0.2223
      4 S           4.3783   -1.2383    1.0886 S.O2    1  UNL1        0.1510
      5 O           4.2250   -0.4914    2.3842 O.2     1  UNL1       -0.1298
      6 O           5.2468   -2.4770    1.2642 O.2     1  UNL1       -0.1298
      7 N           5.1813   -0.2506   -0.0488 N.3     1  UNL1       -0.1701
      8 C           4.5137    0.9738   -0.3636 C.3     1  UNL1        0.0165
      9 C           5.3180    1.7573   -1.3760 C.3     1  UNL1       -0.0509
     10 O          -0.5686   -0.9854    1.5010 O.3     1  UNL1       -0.3456
     11 C          -1.6936   -1.0872    0.7174 C.3     1  UNL1        0.1667
     12 N          -2.2915    0.2318    0.6162 N.ar    1  UNL1       -0.2855
     13 C          -1.7898    1.4717    0.6653 C.ar    1  UNL1        0.1004
     14 N          -2.7901    2.3679    0.5159 N.ar    1  UNL1       -0.2306
     15 C          -3.9518    1.7059    0.3684 C.ar    1  UNL1        0.1473
     16 C          -5.2421    2.1585    0.1864 C.ar    1  UNL1        0.1472
     17 N          -5.5400    3.5577    0.1246 N.pl3   1  UNL1       -0.3413
     18 N          -6.1754    1.2150    0.0742 N.ar    1  UNL1       -0.2188
     19 C          -5.9358   -0.1111    0.1269 C.ar    1  UNL1        0.1205
     20 N          -4.6560   -0.5301    0.3070 N.ar    1  UNL1       -0.2159
     21 C          -3.6274    0.3561    0.4330 C.ar    1  UNL1        0.1674
     22 C          -1.2880   -1.6157   -0.6452 C.3     1  UNL1        0.1285
     23 O          -1.5239   -2.9865   -0.7138 O.3     1  UNL1       -0.3847
     24 C           0.1974   -1.3074   -0.6156 C.3     1  UNL1        0.1136
     25 O           0.9139   -2.1268   -1.4759 O.3     1  UNL1       -0.3864
     26 H           0.3514   -2.7029    0.9733 H       1  UNL1        0.0647
     27 H           1.8834   -1.2081    2.3797 H       1  UNL1        0.0611
     28 H           1.8619   -0.0308    0.9962 H       1  UNL1        0.0611
     29 H           6.1287   -0.0589    0.3353 H       1  UNL1        0.1500
     30 H           3.5338    0.7332   -0.8238 H       1  UNL1        0.0439
     31 H           4.3814    1.6505    0.5067 H       1  UNL1        0.0439
     32 H           4.6851    2.1804   -2.1839 H       1  UNL1        0.0242
     33 H           6.0950    1.1532   -1.8753 H       1  UNL1        0.0242
     34 H           5.8185    2.6537   -0.9214 H       1  UNL1        0.0242
     35 H          -2.3869   -1.7971    1.2364 H       1  UNL1        0.0866
     36 H          -0.7061    1.6015    0.8104 H       1  UNL1        0.1030
     37 H          -5.7517    3.6408    1.1381 H       1  UNL1        0.1438
     38 H          -5.4255    3.8986   -0.8717 H       1  UNL1        0.1438
     39 H          -6.7573   -0.8208    0.0263 H       1  UNL1        0.1048
     40 H          -1.7850   -1.0634   -1.4662 H       1  UNL1        0.0665
     41 H          -0.6653   -3.4660   -0.8165 H       1  UNL1        0.2101
     42 H           0.3080   -0.2364   -0.8499 H       1  UNL1        0.0647
     43 H           0.3469   -2.2261   -2.2908 H       1  UNL1        0.2100
@<TRIPOS>BOND
     1     1     2    1
     2     2     3    1
     3     3     4    1
     4     4     5    2
     5     4     6    2
     6     4     7    1
     7     7     8    1
     8     8     9    1
     9     1    10    1
    10    10    11    1
    11    11    12    1
    12    12    13   ar
    13    13    14   ar
    14    14    15   ar
    15    15    16   ar
    16    16    17    1
    17    16    18   ar
    18    18    19   ar
    19    19    20   ar
    20    20    21   ar
    21    11    22    1
    22    22    23    1
    23    22    24    1
    24    24    25    1
    25    24     1    1
    26    21    12   ar
    27    21    15   ar
    28     1    26    1
    29     2    27    1
    30     2    28    1
    31     7    29    1
    32     8    30    1
    33     8    31    1
    34     9    32    1
    35     9    33    1
    36     9    34    1
    37    11    35    1
    38    13    36    1
    39    17    37    1
    40    17    38    1
    41    19    39    1
    42    22    40    1
    43    23    41    1
    44    24    42    1
    45    25    43    1
