@<TRIPOS>MOLECULE
*****
 58 61 0 0 0
SMALL
GASTEIGER

@<TRIPOS>ATOM
      1 C          -9.7093    2.0249   -0.3462 C.3     1  UNL1        0.0790
      2 O          -8.4648    2.3173    0.2289 O.3     1  UNL1       -0.4914
      3 C          -7.3085    1.5968   -0.0155 C.ar    1  UNL1        0.1635
      4 C          -7.2676    0.5080   -0.8589 C.ar    1  UNL1        0.0099
      5 C          -6.0613   -0.1654   -1.0528 C.ar    1  UNL1        0.0815
      6 N          -5.9721   -1.2277   -1.8616 N.ar    1  UNL1       -0.2350
      7 C          -4.8071   -1.8787   -2.0491 C.ar    1  UNL1        0.1204
      8 N          -3.6982   -1.4538   -1.4079 N.ar    1  UNL1       -0.2006
      9 C          -3.7258   -0.3926   -0.5830 C.ar    1  UNL1        0.2312
     10 O          -2.5550    0.0336    0.0763 O.3     1  UNL1       -0.4373
     11 C          -1.3891   -0.6804   -0.1587 C.ar    1  UNL1        0.1304
     12 C          -0.9878   -1.7578    0.6043 C.ar    1  UNL1       -0.0190
     13 C           0.1886   -2.4427    0.3308 C.ar    1  UNL1       -0.0546
     14 C           1.0019   -2.0691   -0.7179 C.ar    1  UNL1       -0.0384
     15 C           2.2712   -2.7791   -1.0409 C.3     1  UNL1        0.0494
     16 C           3.3894   -2.1145   -0.2917 C.2     1  UNL1        0.2216
     17 O           3.1580   -1.1249    0.4517 O.2     1  UNL1       -0.2751
     18 N           4.7271   -2.5701   -0.3922 N.am    1  UNL1       -0.2828
     19 C           5.7430   -1.9053    0.3357 C.ar    1  UNL1        0.0713
     20 C           6.2257   -2.1200    1.5989 C.ar    1  UNL1        0.0706
     21 N           7.1862   -1.2163    1.8083 N.ar    1  UNL1       -0.1775
     22 N           7.3148   -0.4579    0.7330 N.ar    1  UNL1       -0.2671
     23 C           8.2577    0.6401    0.5719 C.3     1  UNL1        0.0471
     24 C           8.1055    1.5695    1.7561 C.3     1  UNL1       -0.0429
     25 C           7.9451    1.4390   -0.6750 C.3     1  UNL1       -0.0429
     26 C           6.4466   -0.8339   -0.2197 C.ar    1  UNL1        0.0470
     27 C           0.6063   -0.9932   -1.4838 C.ar    1  UNL1       -0.0546
     28 C          -0.5701   -0.3121   -1.2066 C.ar    1  UNL1       -0.0190
     29 C          -4.9214    0.2561   -0.4056 C.ar    1  UNL1        0.0660
     30 C          -4.9462    1.3434    0.4411 C.ar    1  UNL1       -0.0020
     31 C          -6.1468    1.9970    0.6210 C.ar    1  UNL1        0.1623
     32 O          -6.2160    3.0938    1.4627 O.3     1  UNL1       -0.4914
     33 C          -5.0434    3.5147    2.1185 C.3     1  UNL1        0.0790
     34 H         -10.2367    1.3153    0.3250 H       1  UNL1        0.0660
     35 H         -10.3595    2.9270   -0.4244 H       1  UNL1        0.0660
     36 H          -9.6421    1.5223   -1.3316 H       1  UNL1        0.0660
     37 H          -8.1271    0.1599   -1.3705 H       1  UNL1        0.0677
     38 H          -4.7300   -2.7523   -2.7134 H       1  UNL1        0.1048
     39 H          -1.6232   -2.0615    1.4360 H       1  UNL1        0.0654
     40 H           0.4919   -3.2885    0.9400 H       1  UNL1        0.0622
     41 H           2.2387   -3.8270   -0.6737 H       1  UNL1        0.0407
     42 H           2.4814   -2.8211   -2.1175 H       1  UNL1        0.0407
     43 H           4.9583   -3.3773   -0.9891 H       1  UNL1        0.1549
     44 H           5.8511   -2.9026    2.2614 H       1  UNL1        0.0867
     45 H           9.3002    0.2742    0.5709 H       1  UNL1        0.0539
     46 H           7.4112    2.4073    1.5293 H       1  UNL1        0.0250
     47 H           7.7444    0.9855    2.6191 H       1  UNL1        0.0250
     48 H           9.1004    2.0466    1.9482 H       1  UNL1        0.0250
     49 H           6.8722    1.5328   -0.8507 H       1  UNL1        0.0250
     50 H           8.3947    2.4580   -0.5469 H       1  UNL1        0.0250
     51 H           8.5025    0.9508   -1.5086 H       1  UNL1        0.0250
     52 H           6.3115   -0.4047   -1.2126 H       1  UNL1        0.0845
     53 H           1.2528   -0.7010   -2.3124 H       1  UNL1        0.0622
     54 H          -0.8520    0.5244   -1.8225 H       1  UNL1        0.0654
     55 H          -4.0311    1.6475    0.9338 H       1  UNL1        0.0663
     56 H          -5.2308    4.4054    2.7661 H       1  UNL1        0.0660
     57 H          -4.6255    2.6792    2.7469 H       1  UNL1        0.0660
     58 H          -4.2294    3.8058    1.4251 H       1  UNL1        0.0660
@<TRIPOS>BOND
     1     1     2    1
     2     2     3    1
     3     3     4   ar
     4     4     5   ar
     5     5     6   ar
     6     6     7   ar
     7     7     8   ar
     8     8     9   ar
     9     9    10    1
    10    10    11    1
    11    11    12   ar
    12    12    13   ar
    13    13    14   ar
    14    14    15    1
    15    15    16    1
    16    16    17    2
    17    16    18   am
    18    18    19    1
    19    19    20   ar
    20    20    21   ar
    21    21    22   ar
    22    22    23    1
    23    23    24    1
    24    23    25    1
    25    22    26   ar
    26    14    27   ar
    27    27    28   ar
    28     9    29   ar
    29    29    30   ar
    30    30    31   ar
    31    31    32    1
    32    32    33    1
    33    31     3   ar
    34    29     5   ar
    35    28    11   ar
    36    26    19   ar
    37     1    34    1
    38     1    35    1
    39     1    36    1
    40     4    37    1
    41     7    38    1
    42    12    39    1
    43    13    40    1
    44    15    41    1
    45    15    42    1
    46    18    43    1
    47    20    44    1
    48    23    45    1
    49    24    46    1
    50    24    47    1
    51    24    48    1
    52    25    49    1
    53    25    50    1
    54    25    51    1
    55    26    52    1
    56    27    53    1
    57    28    54    1
    58    30    55    1
    59    33    56    1
    60    33    57    1
    61    33    58    1
