
     RDKit          3D

 58 61  0  0  0  0  0  0  0  0999 V2000
   -9.7093    2.0249   -0.3462 C   0  0  0  0  0  0  0  0  0  0  0  0
   -8.4648    2.3173    0.2289 O   0  0  0  0  0  0  0  0  0  0  0  0
   -7.3085    1.5968   -0.0155 C   0  0  0  0  0  0  0  0  0  0  0  0
   -7.2676    0.5080   -0.8589 C   0  0  0  0  0  0  0  0  0  0  0  0
   -6.0613   -0.1654   -1.0528 C   0  0  0  0  0  0  0  0  0  0  0  0
   -5.9721   -1.2277   -1.8616 N   0  0  0  0  0  0  0  0  0  0  0  0
   -4.8071   -1.8787   -2.0491 C   0  0  0  0  0  0  0  0  0  0  0  0
   -3.6982   -1.4538   -1.4079 N   0  0  0  0  0  0  0  0  0  0  0  0
   -3.7258   -0.3926   -0.5830 C   0  0  0  0  0  0  0  0  0  0  0  0
   -2.5550    0.0336    0.0763 O   0  0  0  0  0  0  0  0  0  0  0  0
   -1.3891   -0.6804   -0.1587 C   0  0  0  0  0  0  0  0  0  0  0  0
   -0.9878   -1.7578    0.6043 C   0  0  0  0  0  0  0  0  0  0  0  0
    0.1886   -2.4427    0.3308 C   0  0  0  0  0  0  0  0  0  0  0  0
    1.0019   -2.0691   -0.7179 C   0  0  0  0  0  0  0  0  0  0  0  0
    2.2712   -2.7791   -1.0409 C   0  0  0  0  0  0  0  0  0  0  0  0
    3.3894   -2.1145   -0.2917 C   0  0  0  0  0  0  0  0  0  0  0  0
    3.1580   -1.1249    0.4517 O   0  0  0  0  0  0  0  0  0  0  0  0
    4.7271   -2.5701   -0.3922 N   0  0  0  0  0  0  0  0  0  0  0  0
    5.7430   -1.9053    0.3357 C   0  0  0  0  0  0  0  0  0  0  0  0
    6.2257   -2.1200    1.5989 C   0  0  0  0  0  0  0  0  0  0  0  0
    7.1862   -1.2163    1.8083 N   0  0  0  0  0  0  0  0  0  0  0  0
    7.3148   -0.4579    0.7330 N   0  0  0  0  0  0  0  0  0  0  0  0
    8.2577    0.6401    0.5719 C   0  0  0  0  0  0  0  0  0  0  0  0
    8.1055    1.5695    1.7561 C   0  0  0  0  0  0  0  0  0  0  0  0
    7.9451    1.4390   -0.6750 C   0  0  0  0  0  0  0  0  0  0  0  0
    6.4466   -0.8339   -0.2197 C   0  0  0  0  0  0  0  0  0  0  0  0
    0.6063   -0.9932   -1.4838 C   0  0  0  0  0  0  0  0  0  0  0  0
   -0.5701   -0.3121   -1.2066 C   0  0  0  0  0  0  0  0  0  0  0  0
   -4.9214    0.2561   -0.4056 C   0  0  0  0  0  0  0  0  0  0  0  0
   -4.9462    1.3434    0.4411 C   0  0  0  0  0  0  0  0  0  0  0  0
   -6.1468    1.9970    0.6210 C   0  0  0  0  0  0  0  0  0  0  0  0
   -6.2160    3.0938    1.4627 O   0  0  0  0  0  0  0  0  0  0  0  0
   -5.0434    3.5147    2.1185 C   0  0  0  0  0  0  0  0  0  0  0  0
  -10.2367    1.3153    0.3250 H   0  0  0  0  0  0  0  0  0  0  0  0
  -10.3595    2.9270   -0.4244 H   0  0  0  0  0  0  0  0  0  0  0  0
   -9.6421    1.5223   -1.3316 H   0  0  0  0  0  0  0  0  0  0  0  0
   -8.1271    0.1599   -1.3705 H   0  0  0  0  0  0  0  0  0  0  0  0
   -4.7300   -2.7523   -2.7134 H   0  0  0  0  0  0  0  0  0  0  0  0
   -1.6232   -2.0615    1.4360 H   0  0  0  0  0  0  0  0  0  0  0  0
    0.4919   -3.2885    0.9400 H   0  0  0  0  0  0  0  0  0  0  0  0
    2.2387   -3.8270   -0.6737 H   0  0  0  0  0  0  0  0  0  0  0  0
    2.4814   -2.8211   -2.1175 H   0  0  0  0  0  0  0  0  0  0  0  0
    4.9583   -3.3773   -0.9891 H   0  0  0  0  0  0  0  0  0  0  0  0
    5.8511   -2.9026    2.2614 H   0  0  0  0  0  0  0  0  0  0  0  0
    9.3002    0.2742    0.5709 H   0  0  0  0  0  0  0  0  0  0  0  0
    7.4112    2.4073    1.5293 H   0  0  0  0  0  0  0  0  0  0  0  0
    7.7444    0.9855    2.6191 H   0  0  0  0  0  0  0  0  0  0  0  0
    9.1004    2.0466    1.9482 H   0  0  0  0  0  0  0  0  0  0  0  0
    6.8722    1.5328   -0.8507 H   0  0  0  0  0  0  0  0  0  0  0  0
    8.3947    2.4580   -0.5469 H   0  0  0  0  0  0  0  0  0  0  0  0
    8.5025    0.9508   -1.5086 H   0  0  0  0  0  0  0  0  0  0  0  0
    6.3115   -0.4047   -1.2126 H   0  0  0  0  0  0  0  0  0  0  0  0
    1.2528   -0.7010   -2.3124 H   0  0  0  0  0  0  0  0  0  0  0  0
   -0.8520    0.5244   -1.8225 H   0  0  0  0  0  0  0  0  0  0  0  0
   -4.0311    1.6475    0.9338 H   0  0  0  0  0  0  0  0  0  0  0  0
   -5.2308    4.4054    2.7661 H   0  0  0  0  0  0  0  0  0  0  0  0
   -4.6255    2.6792    2.7469 H   0  0  0  0  0  0  0  0  0  0  0  0
   -4.2294    3.8058    1.4251 H   0  0  0  0  0  0  0  0  0  0  0  0
  1  2  1  0
  2  3  1  0
  3  4  2  0
  4  5  1  0
  5  6  2  0
  6  7  1  0
  7  8  2  0
  8  9  1  0
  9 10  1  0
 10 11  1  0
 11 12  2  0
 12 13  1  0
 13 14  2  0
 14 15  1  0
 15 16  1  0
 16 17  2  0
 16 18  1  0
 18 19  1  0
 19 20  1  0
 20 21  2  0
 21 22  1  0
 22 23  1  0
 23 24  1  0
 23 25  1  0
 22 26  1  0
 14 27  1  0
 27 28  2  0
  9 29  2  0
 29 30  1  0
 30 31  2  0
 31 32  1  0
 32 33  1  0
 31  3  1  0
 29  5  1  0
 28 11  1  0
 26 19  2  0
  1 34  1  0
  1 35  1  0
  1 36  1  0
  4 37  1  0
  7 38  1  0
 12 39  1  0
 13 40  1  0
 15 41  1  0
 15 42  1  0
 18 43  1  0
 20 44  1  0
 23 45  1  0
 24 46  1  0
 24 47  1  0
 24 48  1  0
 25 49  1  0
 25 50  1  0
 25 51  1  0
 26 52  1  0
 27 53  1  0
 28 54  1  0
 30 55  1  0
 33 56  1  0
 33 57  1  0
 33 58  1  0
M  END
$$$$
