@<TRIPOS>MOLECULE
*****
 32 34 0 0 0
SMALL
GASTEIGER

@<TRIPOS>ATOM
      1 N          -4.8162    2.6851   -0.2448 N.pl3   1  UNL1       -0.3274
      2 C          -3.8199    1.6610   -0.1256 C.ar    1  UNL1        0.2142
      3 N          -2.5459    1.9508    0.1935 N.ar    1  UNL1       -0.2227
      4 C          -1.5656    1.0400    0.3209 C.ar    1  UNL1        0.0379
      5 C          -1.8613   -0.2756    0.1167 C.ar    1  UNL1        0.0146
      6 C          -0.9038   -1.3913    0.2176 C.3     1  UNL1        0.0023
      7 C           0.4537   -0.9512    0.5713 C.ar    1  UNL1       -0.0422
      8 C           0.8539   -0.8564    1.8837 C.ar    1  UNL1       -0.0562
      9 C           2.1518   -0.4352    2.2073 C.ar    1  UNL1       -0.0355
     10 C           3.0455   -0.1098    1.2078 C.ar    1  UNL1        0.0710
     11 N           4.3008    0.2992    1.4647 N.ar    1  UNL1       -0.2550
     12 C           5.1476    0.6089    0.4706 C.ar    1  UNL1        0.0283
     13 C           4.7883    0.5282   -0.8608 C.ar    1  UNL1       -0.0430
     14 C           3.5117    0.1132   -1.1555 C.ar    1  UNL1       -0.0511
     15 C           2.6502   -0.2028   -0.1104 C.ar    1  UNL1        0.0007
     16 C           1.3551   -0.6237   -0.4141 C.ar    1  UNL1       -0.0491
     17 C          -3.1684   -0.5751   -0.2109 C.ar    1  UNL1        0.1247
     18 N          -3.5437   -1.9356   -0.4379 N.pl3   1  UNL1       -0.3428
     19 N          -4.1208    0.3657   -0.3289 N.ar    1  UNL1       -0.1999
     20 H          -5.3934    2.7682   -1.1097 H       1  UNL1        0.1452
     21 H          -5.0048    3.3779    0.5111 H       1  UNL1        0.1452
     22 H          -0.5511    1.3039    0.5785 H       1  UNL1        0.0834
     23 H          -0.8713   -1.8701   -0.8047 H       1  UNL1        0.0363
     24 H          -1.2947   -2.1844    0.8878 H       1  UNL1        0.0363
     25 H           0.1643   -1.1075    2.6541 H       1  UNL1        0.0621
     26 H           2.4605   -0.3628    3.2436 H       1  UNL1        0.0639
     27 H           6.1721    0.9431    0.6635 H       1  UNL1        0.0830
     28 H           5.5126    0.7912   -1.6443 H       1  UNL1        0.0633
     29 H           3.1745    0.0313   -2.1894 H       1  UNL1        0.0625
     30 H           1.0997   -0.6780   -1.4633 H       1  UNL1        0.0627
     31 H          -4.3003   -2.3771    0.1241 H       1  UNL1        0.1437
     32 H          -3.0811   -2.5311   -1.1647 H       1  UNL1        0.1437
@<TRIPOS>BOND
     1     1     2    1
     2     2     3   ar
     3     3     4   ar
     4     4     5   ar
     5     5     6    1
     6     6     7    1
     7     7     8   ar
     8     8     9   ar
     9     9    10   ar
    10    10    11   ar
    11    11    12   ar
    12    12    13   ar
    13    13    14   ar
    14    14    15   ar
    15    15    16   ar
    16     5    17   ar
    17    17    18    1
    18    17    19   ar
    19    19     2   ar
    20    16     7   ar
    21    15    10   ar
    22     1    20    1
    23     1    21    1
    24     4    22    1
    25     6    23    1
    26     6    24    1
    27     8    25    1
    28     9    26    1
    29    12    27    1
    30    13    28    1
    31    14    29    1
    32    16    30    1
    33    18    31    1
    34    18    32    1
