@<TRIPOS>MOLECULE
*****
 49 53 0 0 0
SMALL
GASTEIGER

@<TRIPOS>ATOM
      1 C           0.0255   -1.4799   -2.9469 C.3     1  UNL1        0.0790
      2 O          -0.8855   -1.0682   -1.9496 O.3     1  UNL1       -0.4914
      3 C          -0.4021   -0.5516   -0.7680 C.ar    1  UNL1        0.1623
      4 C           0.9770   -0.4308   -0.5534 C.ar    1  UNL1       -0.0038
      5 C           1.5074    0.0786    0.6120 C.ar    1  UNL1        0.0441
      6 C           2.8730    0.2011    0.8383 C.ar    1  UNL1        0.1340
      7 N           3.7821   -0.2129   -0.1355 N.pl3   1  UNL1       -0.2988
      8 C           5.2071   -0.0883   -0.0262 C.ar    1  UNL1        0.0338
      9 C           5.8552    0.7727    0.8139 C.ar    1  UNL1       -0.0404
     10 C           7.2466    0.8073    0.8631 C.ar    1  UNL1       -0.0586
     11 C           7.9868   -0.0189    0.0718 C.ar    1  UNL1       -0.0433
     12 C           7.3809   -0.9014   -0.7893 C.ar    1  UNL1        0.0427
     13 CL          8.3714   -1.9342   -1.7810 Cl      1  UNL1       -0.0835
     14 C           6.0096   -0.9086   -0.8115 C.ar    1  UNL1       -0.0222
     15 N           3.2306    0.7137    2.0239 N.ar    1  UNL1       -0.2200
     16 C           2.4028    1.1095    2.9886 C.ar    1  UNL1        0.1187
     17 N           1.0903    0.9847    2.7551 N.ar    1  UNL1       -0.2352
     18 C           0.6164    0.4871    1.6102 C.ar    1  UNL1        0.0797
     19 C          -0.7397    0.3585    1.3754 C.ar    1  UNL1        0.0099
     20 C          -1.2811   -0.1480    0.2180 C.ar    1  UNL1        0.1646
     21 O          -2.6394   -0.2727   -0.0077 O.3     1  UNL1       -0.4801
     22 C          -3.6706    0.0717    0.8565 C.3     1  UNL1        0.1519
     23 C          -4.5707   -1.1613    1.0030 C.3     1  UNL1        0.0877
     24 O          -5.1403   -1.2330   -0.2636 O.3     1  UNL1       -0.3672
     25 C          -5.4207    0.0478   -0.6897 C.3     1  UNL1        0.1214
     26 C          -4.6028    1.0028    0.1016 C.3     1  UNL1        0.1265
     27 O          -5.4110    1.7477    0.9023 O.3     1  UNL1       -0.3672
     28 C          -6.6973    1.3034    0.8323 C.3     1  UNL1        0.0819
     29 C          -6.8383    0.3875   -0.3580 C.3     1  UNL1        0.1526
     30 F          -7.4420    1.0076   -1.4249 F       1  UNL1       -0.2403
     31 H           0.4946   -0.5897   -3.4575 H       1  UNL1        0.0660
     32 H           0.7847   -2.1568   -2.4998 H       1  UNL1        0.0660
     33 H          -0.5176   -2.0110   -3.7857 H       1  UNL1        0.0660
     34 H           1.6423   -0.7468   -1.3330 H       1  UNL1        0.0663
     35 H           3.4469   -0.6444   -1.0171 H       1  UNL1        0.1536
     36 H           5.2825    1.4423    1.4416 H       1  UNL1        0.0636
     37 H           7.7283    1.5007    1.5398 H       1  UNL1        0.0619
     38 H           9.0859   -0.0019    0.1016 H       1  UNL1        0.0632
     39 H           5.5016   -1.5929   -1.4771 H       1  UNL1        0.0651
     40 H           2.7793    1.5233    3.9417 H       1  UNL1        0.1048
     41 H          -1.3949    0.6851    2.1693 H       1  UNL1        0.0677
     42 H          -3.3821    0.4752    1.8293 H       1  UNL1        0.0784
     43 H          -5.3075   -1.0194    1.7961 H       1  UNL1        0.0598
     44 H          -3.9007   -2.0235    1.1834 H       1  UNL1        0.0598
     45 H          -5.1806    0.2092   -1.7638 H       1  UNL1        0.0653
     46 H          -3.9732    1.6845   -0.5064 H       1  UNL1        0.0661
     47 H          -7.0960    0.8750    1.7642 H       1  UNL1        0.0589
     48 H          -7.3513    2.1916    0.6112 H       1  UNL1        0.0589
     49 H          -7.4635   -0.4724   -0.0500 H       1  UNL1        0.0702
@<TRIPOS>BOND
     1     1     2    1
     2     2     3    1
     3     3     4   ar
     4     4     5   ar
     5     5     6   ar
     6     6     7    1
     7     7     8    1
     8     8     9   ar
     9     9    10   ar
    10    10    11   ar
    11    11    12   ar
    12    12    13    1
    13    12    14   ar
    14     6    15   ar
    15    15    16   ar
    16    16    17   ar
    17    17    18   ar
    18    18    19   ar
    19    19    20   ar
    20    20    21    1
    21    21    22    1
    22    22    23    1
    23    23    24    1
    24    24    25    1
    25    25    26    1
    26    26    27    1
    27    27    28    1
    28    28    29    1
    29    29    30    1
    30    20     3   ar
    31    26    22    1
    32    18     5   ar
    33    29    25    1
    34    14     8   ar
    35     1    31    1
    36     1    32    1
    37     1    33    1
    38     4    34    1
    39     7    35    1
    40     9    36    1
    41    10    37    1
    42    11    38    1
    43    14    39    1
    44    16    40    1
    45    19    41    1
    46    22    42    1
    47    23    43    1
    48    23    44    1
    49    25    45    1
    50    26    46    1
    51    28    47    1
    52    28    48    1
    53    29    49    1
