@<TRIPOS>MOLECULE
*****
 57 62 0 0 0
SMALL
GASTEIGER

@<TRIPOS>ATOM
      1 C           2.9453    2.8934   -1.1741 C.3     1  UNL1       -0.0203
      2 C           2.7703    1.4857   -0.7360 C.ar    1  UNL1        0.0660
      3 N           3.6824    0.5937   -0.3226 N.ar    1  UNL1       -0.1751
      4 N           3.1346   -0.5667   -0.0152 N.ar    1  UNL1       -0.2531
      5 C           3.7950   -1.7749    0.4685 C.3     1  UNL1        0.0788
      6 C           4.1092   -1.7756    1.9412 C.3     1  UNL1        0.0223
      7 N           5.4775   -2.1782    1.5807 N.3     1  UNL1       -0.3012
      8 C           5.5994   -3.6218    1.6445 C.3     1  UNL1       -0.0126
      9 C           5.2719   -1.7794    0.1867 C.3     1  UNL1        0.0223
     10 C           1.8167   -0.4370   -0.2329 C.ar    1  UNL1        0.1298
     11 C           1.5468    0.8253   -0.6821 C.ar    1  UNL1        0.0304
     12 C           0.0765    1.0214   -0.9375 C.3     1  UNL1        0.0854
     13 C          -0.4143    2.1699   -0.1785 C.ar    1  UNL1       -0.0221
     14 C          -0.5772    2.1564    1.1855 C.ar    1  UNL1       -0.0551
     15 C          -1.0416    3.2642    1.8548 C.ar    1  UNL1       -0.0431
     16 C          -1.3516    4.4052    1.1740 C.ar    1  UNL1        0.0410
     17 CL         -1.9468    5.8277    2.0247 Cl      1  UNL1       -0.0835
     18 C          -1.2021    4.4586   -0.1916 C.ar    1  UNL1       -0.0431
     19 C          -0.7350    3.3350   -0.8390 C.ar    1  UNL1       -0.0551
     20 N          -0.5016   -0.2292   -0.6156 N.am    1  UNL1       -0.2531
     21 C          -1.8705   -0.5820   -0.7030 C.ar    1  UNL1        0.0545
     22 C          -2.3991   -1.1026   -1.8915 C.ar    1  UNL1       -0.0324
     23 C          -3.7203   -1.4637   -2.0284 C.ar    1  UNL1       -0.0041
     24 C          -4.2230   -2.0133   -3.3229 C.3     1  UNL1       -0.0361
     25 C          -4.5381   -1.2937   -0.9266 C.ar    1  UNL1        0.1641
     26 N          -5.8286   -1.5426   -0.7473 N.ar    1  UNL1       -0.1292
     27 N          -6.1454   -1.2048    0.4993 N.ar    1  UNL1       -0.1340
     28 C          -5.0623   -0.7336    1.1395 C.ar    1  UNL1        0.1347
     29 C          -5.0246   -0.2582    2.5454 C.3     1  UNL1       -0.0041
     30 N          -4.0531   -0.7928    0.2341 N.ar    1  UNL1       -0.2846
     31 C          -2.7638   -0.4494    0.3406 C.ar    1  UNL1        0.0344
     32 C           0.5071   -1.1209   -0.1866 C.2     1  UNL1        0.2700
     33 O           0.4045   -2.3207    0.1923 O.2     1  UNL1       -0.2679
     34 H           2.2054    3.5789   -0.7466 H       1  UNL1        0.0293
     35 H           2.8984    2.9985   -2.2768 H       1  UNL1        0.0293
     36 H           3.9488    3.2539   -0.8391 H       1  UNL1        0.0293
     37 H           3.3371   -2.7232    0.1242 H       1  UNL1        0.0570
     38 H           4.0826   -0.7343    2.3312 H       1  UNL1        0.0448
     39 H           3.5406   -2.5265    2.4960 H       1  UNL1        0.0448
     40 H           6.3398   -3.9592    0.8688 H       1  UNL1        0.0391
     41 H           4.5806   -4.0548    1.4255 H       1  UNL1        0.0391
     42 H           5.9405   -3.9327    2.6528 H       1  UNL1        0.0391
     43 H           5.6268   -2.5129   -0.5593 H       1  UNL1        0.0448
     44 H           5.7029   -0.7835   -0.0619 H       1  UNL1        0.0448
     45 H          -0.1047    1.2085   -2.0197 H       1  UNL1        0.0606
     46 H          -0.3445    1.2827    1.7434 H       1  UNL1        0.0621
     47 H          -1.1599    3.2235    2.9307 H       1  UNL1        0.0632
     48 H          -1.4590    5.3820   -0.6929 H       1  UNL1        0.0632
     49 H          -0.6175    3.3767   -1.9117 H       1  UNL1        0.0621
     50 H          -1.7239   -1.2262   -2.7504 H       1  UNL1        0.0640
     51 H          -3.4624   -2.6674   -3.7666 H       1  UNL1        0.0279
     52 H          -4.4851   -1.1979   -4.0266 H       1  UNL1        0.0279
     53 H          -5.1292   -2.6150   -3.1511 H       1  UNL1        0.0279
     54 H          -5.2739    0.8078    2.6270 H       1  UNL1        0.0308
     55 H          -4.0166   -0.4694    3.0081 H       1  UNL1        0.0308
     56 H          -5.7379   -0.8522    3.1864 H       1  UNL1        0.0308
     57 H          -2.4269   -0.0530    1.2995 H       1  UNL1        0.0833
@<TRIPOS>BOND
     1     1     2    1
     2     2     3   ar
     3     3     4   ar
     4     4     5    1
     5     5     6    1
     6     6     7    1
     7     7     8    1
     8     7     9    1
     9     4    10   ar
    10    10    11   ar
    11    11    12    1
    12    12    13    1
    13    13    14   ar
    14    14    15   ar
    15    15    16   ar
    16    16    17    1
    17    16    18   ar
    18    18    19   ar
    19    12    20    1
    20    20    21    1
    21    21    22   ar
    22    22    23   ar
    23    23    24    1
    24    23    25   ar
    25    25    26   ar
    26    26    27   ar
    27    27    28   ar
    28    28    29    1
    29    28    30   ar
    30    30    31   ar
    31    20    32   am
    32    32    33    2
    33    11     2   ar
    34    19    13   ar
    35    31    21   ar
    36     9     5    1
    37    32    10    1
    38    30    25   ar
    39     1    34    1
    40     1    35    1
    41     1    36    1
    42     5    37    1
    43     6    38    1
    44     6    39    1
    45     8    40    1
    46     8    41    1
    47     8    42    1
    48     9    43    1
    49     9    44    1
    50    12    45    1
    51    14    46    1
    52    15    47    1
    53    18    48    1
    54    19    49    1
    55    22    50    1
    56    24    51    1
    57    24    52    1
    58    24    53    1
    59    29    54    1
    60    29    55    1
    61    29    56    1
    62    31    57    1
