@<TRIPOS>MOLECULE
*****
 31 33 0 0 0
SMALL
GASTEIGER

@<TRIPOS>ATOM
      1 C          -1.0765   -3.3229   -1.2392 C.3     1  UNL1       -0.0454
      2 C          -0.8770   -2.7367    0.1131 C.3     1  UNL1        0.0411
      3 N          -0.3281   -1.4259    0.1324 N.ar    1  UNL1       -0.2432
      4 N           0.9676   -1.1913    0.1771 N.ar    1  UNL1       -0.1487
      5 C           1.4924    0.0644    0.1956 C.ar    1  UNL1        0.1873
      6 C           2.9571    0.2249    0.2460 C.ar    1  UNL1        0.0580
      7 C           3.8516    0.4719    1.2000 C.ar    1  UNL1       -0.0439
      8 C           5.1449    0.5674    0.9580 C.ar    1  UNL1       -0.0540
      9 C           5.6016    0.3975   -0.3902 C.ar    1  UNL1       -0.0236
     10 S           4.0143    0.0892   -1.2779 S.2     1  UNL1       -0.0935
     11 N           0.7015    1.1712    0.1688 N.ar    1  UNL1       -0.2168
     12 C          -0.6079    1.0134    0.1238 C.ar    1  UNL1        0.1744
     13 C          -1.4810    2.0742    0.0941 C.ar    1  UNL1        0.2841
     14 O          -1.0654    3.2468    0.1089 O.2     1  UNL1       -0.2651
     15 N          -2.8032    1.7659    0.0486 N.ar    1  UNL1       -0.2607
     16 C          -3.7087    2.9156    0.0179 C.3     1  UNL1        0.0197
     17 C          -3.2605    0.5148    0.0324 C.ar    1  UNL1        0.3529
     18 O          -4.5090    0.3481   -0.0106 O.2     1  UNL1       -0.2443
     19 N          -2.4647   -0.5779    0.0593 N.ar    1  UNL1       -0.1717
     20 C          -1.1412   -0.3581    0.1049 C.ar    1  UNL1        0.1860
     21 H          -0.3601   -2.9828   -2.0062 H       1  UNL1        0.0247
     22 H          -0.9820   -4.4257   -1.1588 H       1  UNL1        0.0247
     23 H          -2.1380   -3.1368   -1.5383 H       1  UNL1        0.0247
     24 H          -0.1620   -3.4050    0.6766 H       1  UNL1        0.0507
     25 H          -1.8337   -2.8162    0.6753 H       1  UNL1        0.0507
     26 H           3.4067    0.5971    2.2634 H       1  UNL1        0.0630
     27 H           5.8963    0.7739    1.7535 H       1  UNL1        0.0623
     28 H           6.5592    0.4280   -0.8185 H       1  UNL1        0.0693
     29 H          -3.6821    3.4278    1.0081 H       1  UNL1        0.0458
     30 H          -3.3752    3.6754   -0.7252 H       1  UNL1        0.0458
     31 H          -4.7369    2.6121   -0.2535 H       1  UNL1        0.0458
@<TRIPOS>BOND
     1     1     2    1
     2     2     3    1
     3     3     4   ar
     4     4     5   ar
     5     5     6    1
     6     6     7   ar
     7     7     8   ar
     8     8     9   ar
     9     9    10   ar
    10     5    11   ar
    11    11    12   ar
    12    12    13   ar
    13    13    14    2
    14    13    15   ar
    15    15    16    1
    16    15    17   ar
    17    17    18    2
    18    17    19   ar
    19    19    20   ar
    20    20     3   ar
    21    10     6   ar
    22    20    12    1
    23     1    21    1
    24     1    22    1
    25     1    23    1
    26     2    24    1
    27     2    25    1
    28     7    26    1
    29     8    27    1
    30     9    28    1
    31    16    29    1
    32    16    30    1
    33    16    31    1
