@<TRIPOS>MOLECULE
*****
 34 36 0 0 0
SMALL
GASTEIGER

@<TRIPOS>ATOM
      1 C          -3.8580   -0.9247   -0.5968 C.3     1  UNL1        0.0084
      2 N          -2.5931   -0.8447    0.1044 N.am    1  UNL1       -0.2724
      3 C          -1.8531    0.3535   -0.2143 C.ar    1  UNL1        0.0579
      4 C          -0.4942    0.5450   -0.0673 C.ar    1  UNL1        0.0640
      5 C           0.1548    1.7195   -0.3920 C.ar    1  UNL1       -0.0198
      6 C          -0.6361    2.7438   -0.8918 C.ar    1  UNL1        0.0429
      7 CL          0.0992    4.2894   -1.3380 Cl      1  UNL1       -0.0835
      8 C          -2.0074    2.5792   -1.0506 C.ar    1  UNL1       -0.0415
      9 C          -2.6303    1.3793   -0.7124 C.ar    1  UNL1       -0.0371
     10 N           0.4870   -0.3645    0.4210 N.am    1  UNL1       -0.2381
     11 C           1.8825   -0.0997    0.3029 C.ar    1  UNL1        0.0414
     12 C           2.3782   -0.6148   -0.9003 C.ar    1  UNL1       -0.0399
     13 C           3.7209   -0.4811   -1.2447 C.ar    1  UNL1       -0.0600
     14 C           4.5591    0.1704   -0.3766 C.ar    1  UNL1       -0.0616
     15 C           4.0681    0.6775    0.8093 C.ar    1  UNL1       -0.0600
     16 C           2.7447    0.5543    1.1650 C.ar    1  UNL1       -0.0399
     17 C           0.2395   -1.6114    1.0675 C.2     1  UNL1        0.2330
     18 O           1.1990   -2.4511    1.0099 O.2     1  UNL1       -0.2744
     19 C          -0.9861   -2.0637    1.7993 C.3     1  UNL1        0.1017
     20 C          -2.2173   -1.8975    0.9945 C.2     1  UNL1        0.2284
     21 O          -3.1467   -2.7583    1.0211 O.2     1  UNL1       -0.2747
     22 H          -4.1047   -2.0259   -0.6048 H       1  UNL1        0.0433
     23 H          -3.7978   -0.6562   -1.6686 H       1  UNL1        0.0433
     24 H          -4.6648   -0.4385   -0.0328 H       1  UNL1        0.0433
     25 H           1.2063    1.8404   -0.2683 H       1  UNL1        0.0651
     26 H          -2.6101    3.3708   -1.4354 H       1  UNL1        0.0633
     27 H          -3.6720    1.1897   -0.8095 H       1  UNL1        0.0637
     28 H           1.8088   -1.1471   -1.6613 H       1  UNL1        0.0636
     29 H           4.1492   -0.8573   -2.1530 H       1  UNL1        0.0618
     30 H           5.6077    0.2892   -0.6180 H       1  UNL1        0.0618
     31 H           4.6745    1.1966    1.5284 H       1  UNL1        0.0618
     32 H           2.2448    0.8997    2.0465 H       1  UNL1        0.0636
     33 H          -1.0918   -1.4287    2.7210 H       1  UNL1        0.0454
     34 H          -0.8608   -3.1334    2.0459 H       1  UNL1        0.0454
@<TRIPOS>BOND
     1     1     2    1
     2     2     3    1
     3     3     4   ar
     4     4     5   ar
     5     5     6   ar
     6     6     7    1
     7     6     8   ar
     8     8     9   ar
     9     4    10    1
    10    10    11    1
    11    11    12   ar
    12    12    13   ar
    13    13    14   ar
    14    14    15   ar
    15    15    16   ar
    16    10    17   am
    17    17    18    2
    18    17    19    1
    19    19    20    1
    20    20    21    2
    21    20     2   am
    22     9     3   ar
    23    16    11   ar
    24     1    22    1
    25     1    23    1
    26     1    24    1
    27     5    25    1
    28     8    26    1
    29     9    27    1
    30    12    28    1
    31    13    29    1
    32    14    30    1
    33    15    31    1
    34    16    32    1
    35    19    33    1
    36    19    34    1
