
     RDKit          3D

 34 36  0  0  0  0  0  0  0  0999 V2000
   -3.8580   -0.9247   -0.5968 C   0  0  0  0  0  0  0  0  0  0  0  0
   -2.5931   -0.8447    0.1044 N   0  0  0  0  0  0  0  0  0  0  0  0
   -1.8531    0.3535   -0.2143 C   0  0  0  0  0  0  0  0  0  0  0  0
   -0.4942    0.5450   -0.0673 C   0  0  0  0  0  0  0  0  0  0  0  0
    0.1548    1.7195   -0.3920 C   0  0  0  0  0  0  0  0  0  0  0  0
   -0.6361    2.7438   -0.8918 C   0  0  0  0  0  0  0  0  0  0  0  0
    0.0992    4.2894   -1.3380 Cl  0  0  0  0  0  0  0  0  0  0  0  0
   -2.0074    2.5792   -1.0506 C   0  0  0  0  0  0  0  0  0  0  0  0
   -2.6303    1.3793   -0.7124 C   0  0  0  0  0  0  0  0  0  0  0  0
    0.4870   -0.3645    0.4210 N   0  0  0  0  0  0  0  0  0  0  0  0
    1.8825   -0.0997    0.3029 C   0  0  0  0  0  0  0  0  0  0  0  0
    2.3782   -0.6148   -0.9003 C   0  0  0  0  0  0  0  0  0  0  0  0
    3.7209   -0.4811   -1.2447 C   0  0  0  0  0  0  0  0  0  0  0  0
    4.5591    0.1704   -0.3766 C   0  0  0  0  0  0  0  0  0  0  0  0
    4.0681    0.6775    0.8093 C   0  0  0  0  0  0  0  0  0  0  0  0
    2.7447    0.5543    1.1650 C   0  0  0  0  0  0  0  0  0  0  0  0
    0.2395   -1.6114    1.0675 C   0  0  0  0  0  0  0  0  0  0  0  0
    1.1990   -2.4511    1.0099 O   0  0  0  0  0  0  0  0  0  0  0  0
   -0.9861   -2.0637    1.7993 C   0  0  0  0  0  0  0  0  0  0  0  0
   -2.2173   -1.8975    0.9945 C   0  0  0  0  0  0  0  0  0  0  0  0
   -3.1467   -2.7583    1.0211 O   0  0  0  0  0  0  0  0  0  0  0  0
   -4.1047   -2.0259   -0.6048 H   0  0  0  0  0  0  0  0  0  0  0  0
   -3.7978   -0.6562   -1.6686 H   0  0  0  0  0  0  0  0  0  0  0  0
   -4.6648   -0.4385   -0.0328 H   0  0  0  0  0  0  0  0  0  0  0  0
    1.2063    1.8404   -0.2683 H   0  0  0  0  0  0  0  0  0  0  0  0
   -2.6101    3.3708   -1.4354 H   0  0  0  0  0  0  0  0  0  0  0  0
   -3.6720    1.1897   -0.8095 H   0  0  0  0  0  0  0  0  0  0  0  0
    1.8088   -1.1471   -1.6613 H   0  0  0  0  0  0  0  0  0  0  0  0
    4.1492   -0.8573   -2.1530 H   0  0  0  0  0  0  0  0  0  0  0  0
    5.6077    0.2892   -0.6180 H   0  0  0  0  0  0  0  0  0  0  0  0
    4.6745    1.1966    1.5284 H   0  0  0  0  0  0  0  0  0  0  0  0
    2.2448    0.8997    2.0465 H   0  0  0  0  0  0  0  0  0  0  0  0
   -1.0918   -1.4287    2.7210 H   0  0  0  0  0  0  0  0  0  0  0  0
   -0.8608   -3.1334    2.0459 H   0  0  0  0  0  0  0  0  0  0  0  0
  1  2  1  0
  2  3  1  0
  3  4  2  0
  4  5  1  0
  5  6  2  0
  6  7  1  0
  6  8  1  0
  8  9  2  0
  4 10  1  0
 10 11  1  0
 11 12  2  0
 12 13  1  0
 13 14  2  0
 14 15  1  0
 15 16  2  0
 10 17  1  0
 17 18  2  0
 17 19  1  0
 19 20  1  0
 20 21  2  0
 20  2  1  0
  9  3  1  0
 16 11  1  0
  1 22  1  0
  1 23  1  0
  1 24  1  0
  5 25  1  0
  8 26  1  0
  9 27  1  0
 12 28  1  0
 13 29  1  0
 14 30  1  0
 15 31  1  0
 16 32  1  0
 19 33  1  0
 19 34  1  0
M  END
$$$$
