
     RDKit          3D

 76 80  0  0  0  0  0  0  0  0999 V2000
   -5.2106    4.0884    3.2391 C   0  0  0  0  0  0  0  0  0  0  0  0
   -5.1002    2.9305    2.2909 C   0  0  0  0  0  0  0  0  0  0  0  0
   -4.9869    1.6486    2.7735 C   0  0  0  0  0  0  0  0  0  0  0  0
   -4.8843    0.5696    1.9063 C   0  0  0  0  0  0  0  0  0  0  0  0
   -4.8921    0.7422    0.5328 C   0  0  0  0  0  0  0  0  0  0  0  0
   -4.7884   -0.3540   -0.3768 N   0  0  0  0  0  0  0  0  0  0  0  0
   -5.5666   -1.4406   -0.4159 N   0  0  0  0  0  0  0  0  0  0  0  0
   -5.1835   -2.2694   -1.4015 C   0  0  0  0  0  0  0  0  0  0  0  0
   -5.7987   -3.5857   -1.7691 C   0  0  0  0  0  0  0  0  0  0  0  0
   -5.0328   -4.1666   -2.9394 C   0  0  0  0  0  0  0  0  0  0  0  0
   -7.2503   -3.4000   -2.0675 C   0  0  0  0  0  0  0  0  0  0  0  0
   -5.6763   -4.4888   -0.5600 C   0  0  0  0  0  0  0  0  0  0  0  0
   -4.1032   -1.6574   -2.0079 C   0  0  0  0  0  0  0  0  0  0  0  0
   -3.8707   -0.4615   -1.3542 C   0  0  0  0  0  0  0  0  0  0  0  0
   -2.8495    0.4795   -1.6612 N   0  0  0  0  0  0  0  0  0  0  0  0
   -1.5543    0.4134   -1.0617 C   0  0  0  0  0  0  0  0  0  0  0  0
   -1.3463   -0.5171   -0.2436 O   0  0  0  0  0  0  0  0  0  0  0  0
   -0.5325    1.3542   -1.3680 N   0  0  0  0  0  0  0  0  0  0  0  0
    0.7383    1.2286   -0.7331 C   0  0  0  0  0  0  0  0  0  0  0  0
    1.7245    0.4709   -1.3175 C   0  0  0  0  0  0  0  0  0  0  0  0
    2.9700    0.3535   -0.6858 C   0  0  0  0  0  0  0  0  0  0  0  0
    3.2699    0.9591    0.4995 C   0  0  0  0  0  0  0  0  0  0  0  0
    4.4439    0.9031    1.1870 O   0  0  0  0  0  0  0  0  0  0  0  0
    5.6441    0.2794    0.9371 C   0  0  0  0  0  0  0  0  0  0  0  0
    6.3945    0.7075   -0.2797 C   0  0  0  0  0  0  0  0  0  0  0  0
    7.6385   -0.0041   -0.4560 N   0  0  0  0  0  0  0  0  0  0  0  0
    8.6408    0.2850    0.5190 C   0  0  0  0  0  0  0  0  0  0  0  0
    9.4163   -0.9418    0.9475 C   0  0  0  0  0  0  0  0  0  0  0  0
    9.7981   -1.7501   -0.0911 O   0  0  0  0  0  0  0  0  0  0  0  0
    8.8631   -1.9464   -1.0730 C   0  0  0  0  0  0  0  0  0  0  0  0
    7.4969   -1.4002   -0.7240 C   0  0  0  0  0  0  0  0  0  0  0  0
    2.2512    1.7264    1.0790 C   0  0  0  0  0  0  0  0  0  0  0  0
    2.4758    2.3726    2.2815 C   0  0  0  0  0  0  0  0  0  0  0  0
    1.4724    3.1250    2.8461 C   0  0  0  0  0  0  0  0  0  0  0  0
    0.2322    3.2470    2.2258 C   0  0  0  0  0  0  0  0  0  0  0  0
   -0.0019    2.6106    1.0332 C   0  0  0  0  0  0  0  0  0  0  0  0
    1.0245    1.8465    0.4646 C   0  0  0  0  0  0  0  0  0  0  0  0
   -5.0065    2.0353    0.0703 C   0  0  0  0  0  0  0  0  0  0  0  0
   -5.1095    3.1197    0.9165 C   0  0  0  0  0  0  0  0  0  0  0  0
   -6.3026    4.3518    3.2660 H   0  0  0  0  0  0  0  0  0  0  0  0
   -4.6870    4.9307    2.7386 H   0  0  0  0  0  0  0  0  0  0  0  0
   -4.7992    3.8419    4.2195 H   0  0  0  0  0  0  0  0  0  0  0  0
   -4.9809    1.5160    3.8462 H   0  0  0  0  0  0  0  0  0  0  0  0
   -4.7957   -0.4326    2.2736 H   0  0  0  0  0  0  0  0  0  0  0  0
   -5.4572   -5.1723   -3.1249 H   0  0  0  0  0  0  0  0  0  0  0  0
   -5.2729   -3.5568   -3.8474 H   0  0  0  0  0  0  0  0  0  0  0  0
   -3.9679   -4.2341   -2.7218 H   0  0  0  0  0  0  0  0  0  0  0  0
   -7.4218   -3.6927   -3.1237 H   0  0  0  0  0  0  0  0  0  0  0  0
   -7.5203   -2.3192   -1.9827 H   0  0  0  0  0  0  0  0  0  0  0  0
   -7.9196   -3.9408   -1.3628 H   0  0  0  0  0  0  0  0  0  0  0  0
   -4.6059   -4.6076   -0.3108 H   0  0  0  0  0  0  0  0  0  0  0  0
   -6.1359   -3.9542    0.2985 H   0  0  0  0  0  0  0  0  0  0  0  0
   -6.1583   -5.4603   -0.7362 H   0  0  0  0  0  0  0  0  0  0  0  0
   -3.5430   -2.0552   -2.8494 H   0  0  0  0  0  0  0  0  0  0  0  0
   -3.0231    1.2579   -2.3455 H   0  0  0  0  0  0  0  0  0  0  0  0
   -0.7135    2.1219   -2.0463 H   0  0  0  0  0  0  0  0  0  0  0  0
    1.5437   -0.0273   -2.2504 H   0  0  0  0  0  0  0  0  0  0  0  0
    3.7140   -0.2587   -1.1662 H   0  0  0  0  0  0  0  0  0  0  0  0
    5.5197   -0.8367    0.8610 H   0  0  0  0  0  0  0  0  0  0  0  0
    6.2808    0.4113    1.8541 H   0  0  0  0  0  0  0  0  0  0  0  0
    6.6856    1.7864   -0.1734 H   0  0  0  0  0  0  0  0  0  0  0  0
    5.8424    0.6132   -1.2214 H   0  0  0  0  0  0  0  0  0  0  0  0
    8.2368    0.7590    1.4131 H   0  0  0  0  0  0  0  0  0  0  0  0
    9.3970    1.0129    0.1008 H   0  0  0  0  0  0  0  0  0  0  0  0
   10.3569   -0.5580    1.4341 H   0  0  0  0  0  0  0  0  0  0  0  0
    8.8840   -1.4999    1.7694 H   0  0  0  0  0  0  0  0  0  0  0  0
    9.2016   -1.4158   -1.9859 H   0  0  0  0  0  0  0  0  0  0  0  0
    8.7555   -3.0314   -1.2592 H   0  0  0  0  0  0  0  0  0  0  0  0
    6.8649   -1.5155   -1.6400 H   0  0  0  0  0  0  0  0  0  0  0  0
    7.0080   -1.9786    0.0709 H   0  0  0  0  0  0  0  0  0  0  0  0
    3.4196    2.3050    2.7944 H   0  0  0  0  0  0  0  0  0  0  0  0
    1.5830    3.6574    3.7877 H   0  0  0  0  0  0  0  0  0  0  0  0
   -0.5715    3.8350    2.6545 H   0  0  0  0  0  0  0  0  0  0  0  0
   -0.9509    2.6803    0.5201 H   0  0  0  0  0  0  0  0  0  0  0  0
   -5.0179    2.2286   -0.9918 H   0  0  0  0  0  0  0  0  0  0  0  0
   -5.1984    4.1254    0.5334 H   0  0  0  0  0  0  0  0  0  0  0  0
  1  2  1  0
  2  3  2  0
  3  4  1  0
  4  5  2  0
  5  6  1  0
  6  7  1  0
  7  8  2  0
  8  9  1  0
  9 10  1  0
  9 11  1  0
  9 12  1  0
  8 13  1  0
 13 14  2  0
 14 15  1  0
 15 16  1  0
 16 17  2  0
 16 18  1  0
 18 19  1  0
 19 20  2  0
 20 21  1  0
 21 22  2  0
 22 23  1  0
 23 24  1  0
 24 25  1  0
 25 26  1  0
 26 27  1  0
 27 28  1  0
 28 29  1  0
 29 30  1  0
 30 31  1  0
 22 32  1  0
 32 33  2  0
 33 34  1  0
 34 35  2  0
 35 36  1  0
 36 37  2  0
  5 38  1  0
 38 39  2  0
 39  2  1  0
 14  6  1  0
 37 19  1  0
 31 26  1  0
 37 32  1  0
  1 40  1  0
  1 41  1  0
  1 42  1  0
  3 43  1  0
  4 44  1  0
 10 45  1  0
 10 46  1  0
 10 47  1  0
 11 48  1  0
 11 49  1  0
 11 50  1  0
 12 51  1  0
 12 52  1  0
 12 53  1  0
 13 54  1  0
 15 55  1  0
 18 56  1  0
 20 57  1  0
 21 58  1  0
 24 59  1  0
 24 60  1  0
 25 61  1  0
 25 62  1  0
 27 63  1  0
 27 64  1  0
 28 65  1  0
 28 66  1  0
 30 67  1  0
 30 68  1  0
 31 69  1  0
 31 70  1  0
 33 71  1  0
 34 72  1  0
 35 73  1  0
 36 74  1  0
 38 75  1  0
 39 76  1  0
M  END
$$$$
