@<TRIPOS>MOLECULE
*****
 76 80 0 0 0
SMALL
GASTEIGER

@<TRIPOS>ATOM
      1 C          -5.2106    4.0884    3.2391 C.3     1  UNL1       -0.0397
      2 C          -5.1002    2.9305    2.2909 C.ar    1  UNL1       -0.0503
      3 C          -4.9869    1.6486    2.7735 C.ar    1  UNL1       -0.0568
      4 C          -4.8843    0.5696    1.9063 C.ar    1  UNL1       -0.0359
      5 C          -4.8921    0.7422    0.5328 C.ar    1  UNL1        0.0674
      6 N          -4.7884   -0.3540   -0.3768 N.ar    1  UNL1       -0.2181
      7 N          -5.5666   -1.4406   -0.4159 N.ar    1  UNL1       -0.1691
      8 C          -5.1835   -2.2694   -1.4015 C.ar    1  UNL1        0.0706
      9 C          -5.7987   -3.5857   -1.7691 C.3     1  UNL1        0.0063
     10 C          -5.0328   -4.1666   -2.9394 C.3     1  UNL1       -0.0546
     11 C          -7.2503   -3.4000   -2.0675 C.3     1  UNL1       -0.0546
     12 C          -5.6763   -4.4888   -0.5600 C.3     1  UNL1       -0.0546
     13 C          -4.1032   -1.6574   -2.0079 C.ar    1  UNL1        0.0021
     14 C          -3.8707   -0.4615   -1.3542 C.ar    1  UNL1        0.1299
     15 N          -2.8495    0.4795   -1.6612 N.am    1  UNL1       -0.2538
     16 C          -1.5543    0.4134   -1.0617 C.2     1  UNL1        0.3092
     17 O          -1.3463   -0.5171   -0.2436 O.2     1  UNL1       -0.2521
     18 N          -0.5325    1.3542   -1.3680 N.am    1  UNL1       -0.2686
     19 C           0.7383    1.2286   -0.7331 C.ar    1  UNL1        0.0427
     20 C           1.7245    0.4709   -1.3175 C.ar    1  UNL1       -0.0364
     21 C           2.9700    0.3535   -0.6858 C.ar    1  UNL1       -0.0176
     22 C           3.2699    0.9591    0.4995 C.ar    1  UNL1        0.1283
     23 O           4.4439    0.9031    1.1870 O.3     1  UNL1       -0.4901
     24 C           5.6441    0.2794    0.9371 C.3     1  UNL1        0.1023
     25 C           6.3945    0.7075   -0.2797 C.3     1  UNL1        0.0333
     26 N           7.6385   -0.0041   -0.4560 N.3     1  UNL1       -0.2948
     27 C           8.6408    0.2850    0.5190 C.3     1  UNL1        0.0225
     28 C           9.4163   -0.9418    0.9475 C.3     1  UNL1        0.0604
     29 O           9.7981   -1.7501   -0.0911 O.3     1  UNL1       -0.3772
     30 C           8.8631   -1.9464   -1.0730 C.3     1  UNL1        0.0604
     31 C           7.4969   -1.4002   -0.7240 C.3     1  UNL1        0.0225
     32 C           2.2512    1.7264    1.0790 C.ar    1  UNL1        0.0256
     33 C           2.4758    2.3726    2.2815 C.ar    1  UNL1       -0.0505
     34 C           1.4724    3.1250    2.8461 C.ar    1  UNL1       -0.0611
     35 C           0.2322    3.2470    2.2258 C.ar    1  UNL1       -0.0611
     36 C          -0.0019    2.6106    1.0332 C.ar    1  UNL1       -0.0521
     37 C           1.0245    1.8465    0.4646 C.ar    1  UNL1        0.0069
     38 C          -5.0065    2.0353    0.0703 C.ar    1  UNL1       -0.0359
     39 C          -5.1095    3.1197    0.9165 C.ar    1  UNL1       -0.0568
     40 H          -6.3026    4.3518    3.2660 H       1  UNL1        0.0278
     41 H          -4.6870    4.9307    2.7386 H       1  UNL1        0.0278
     42 H          -4.7992    3.8419    4.2195 H       1  UNL1        0.0278
     43 H          -4.9809    1.5160    3.8462 H       1  UNL1        0.0621
     44 H          -4.7957   -0.4326    2.2736 H       1  UNL1        0.0639
     45 H          -5.4572   -5.1723   -3.1249 H       1  UNL1        0.0239
     46 H          -5.2729   -3.5568   -3.8474 H       1  UNL1        0.0239
     47 H          -3.9679   -4.2341   -2.7218 H       1  UNL1        0.0239
     48 H          -7.4218   -3.6927   -3.1237 H       1  UNL1        0.0239
     49 H          -7.5203   -2.3192   -1.9827 H       1  UNL1        0.0239
     50 H          -7.9196   -3.9408   -1.3628 H       1  UNL1        0.0239
     51 H          -4.6059   -4.6076   -0.3108 H       1  UNL1        0.0239
     52 H          -6.1359   -3.9542    0.2985 H       1  UNL1        0.0239
     53 H          -6.1583   -5.4603   -0.7362 H       1  UNL1        0.0239
     54 H          -3.5430   -2.0552   -2.8494 H       1  UNL1        0.0671
     55 H          -3.0231    1.2579   -2.3455 H       1  UNL1        0.1578
     56 H          -0.7135    2.1219   -2.0463 H       1  UNL1        0.1564
     57 H           1.5437   -0.0273   -2.2504 H       1  UNL1        0.0637
     58 H           3.7140   -0.2587   -1.1662 H       1  UNL1        0.0655
     59 H           5.5197   -0.8367    0.8610 H       1  UNL1        0.0709
     60 H           6.2808    0.4113    1.8541 H       1  UNL1        0.0709
     61 H           6.6856    1.7864   -0.1734 H       1  UNL1        0.0460
     62 H           5.8424    0.6132   -1.2214 H       1  UNL1        0.0460
     63 H           8.2368    0.7590    1.4131 H       1  UNL1        0.0449
     64 H           9.3970    1.0129    0.1008 H       1  UNL1        0.0449
     65 H          10.3569   -0.5580    1.4341 H       1  UNL1        0.0572
     66 H           8.8840   -1.4999    1.7694 H       1  UNL1        0.0572
     67 H           9.2016   -1.4158   -1.9859 H       1  UNL1        0.0572
     68 H           8.7555   -3.0314   -1.2592 H       1  UNL1        0.0572
     69 H           6.8649   -1.5155   -1.6400 H       1  UNL1        0.0449
     70 H           7.0080   -1.9786    0.0709 H       1  UNL1        0.0449
     71 H           3.4196    2.3050    2.7944 H       1  UNL1        0.0625
     72 H           1.5830    3.6574    3.7877 H       1  UNL1        0.0618
     73 H          -0.5715    3.8350    2.6545 H       1  UNL1        0.0618
     74 H          -0.9509    2.6803    0.5201 H       1  UNL1        0.0624
     75 H          -5.0179    2.2286   -0.9918 H       1  UNL1        0.0639
     76 H          -5.1984    4.1254    0.5334 H       1  UNL1        0.0621
@<TRIPOS>BOND
     1     1     2    1
     2     2     3   ar
     3     3     4   ar
     4     4     5   ar
     5     5     6    1
     6     6     7   ar
     7     7     8   ar
     8     8     9    1
     9     9    10    1
    10     9    11    1
    11     9    12    1
    12     8    13   ar
    13    13    14   ar
    14    14    15    1
    15    15    16   am
    16    16    17    2
    17    16    18   am
    18    18    19    1
    19    19    20   ar
    20    20    21   ar
    21    21    22   ar
    22    22    23    1
    23    23    24    1
    24    24    25    1
    25    25    26    1
    26    26    27    1
    27    27    28    1
    28    28    29    1
    29    29    30    1
    30    30    31    1
    31    22    32   ar
    32    32    33   ar
    33    33    34   ar
    34    34    35   ar
    35    35    36   ar
    36    36    37   ar
    37     5    38   ar
    38    38    39   ar
    39    39     2   ar
    40    14     6   ar
    41    37    19   ar
    42    31    26    1
    43    37    32   ar
    44     1    40    1
    45     1    41    1
    46     1    42    1
    47     3    43    1
    48     4    44    1
    49    10    45    1
    50    10    46    1
    51    10    47    1
    52    11    48    1
    53    11    49    1
    54    11    50    1
    55    12    51    1
    56    12    52    1
    57    12    53    1
    58    13    54    1
    59    15    55    1
    60    18    56    1
    61    20    57    1
    62    21    58    1
    63    24    59    1
    64    24    60    1
    65    25    61    1
    66    25    62    1
    67    27    63    1
    68    27    64    1
    69    28    65    1
    70    28    66    1
    71    30    67    1
    72    30    68    1
    73    31    69    1
    74    31    70    1
    75    33    71    1
    76    34    72    1
    77    35    73    1
    78    36    74    1
    79    38    75    1
    80    39    76    1
