@<TRIPOS>MOLECULE
*****
 79 81 0 0 0
SMALL
GASTEIGER

@<TRIPOS>ATOM
      1 C           9.4214   -0.5535   -2.4304 C.3     1  UNL1       -0.0524
      2 C           8.6602    0.3783   -1.4835 C.3     1  UNL1       -0.0040
      3 N           8.0411   -0.3487   -0.4360 N.3     1  UNL1       -0.3028
      4 C           8.9111   -0.9621    0.4999 C.3     1  UNL1       -0.0040
      5 C           9.6391    0.0648    1.3457 C.3     1  UNL1       -0.0524
      6 C           6.8503   -1.0216   -0.7795 C.3     1  UNL1       -0.0011
      7 C           5.7000   -0.0748   -1.0516 C.3     1  UNL1       -0.0388
      8 C           5.4076    0.7787    0.1644 C.3     1  UNL1       -0.0362
      9 C           5.0246   -0.0960    1.3124 C.3     1  UNL1        0.0118
     10 N           3.8437   -0.8890    1.0529 N.pl3   1  UNL1       -0.3134
     11 C           2.6125   -0.2225    0.8380 C.ar    1  UNL1        0.2171
     12 N           2.5443    1.1325    0.9053 N.ar    1  UNL1       -0.2222
     13 C           1.3734    1.7576    0.6997 C.ar    1  UNL1        0.0419
     14 C           0.2208    1.0686    0.4189 C.ar    1  UNL1        0.0381
     15 C          -0.9951    1.6922    0.2025 C.ar    1  UNL1       -0.0386
     16 C          -2.1331    0.9546   -0.0800 C.ar    1  UNL1        0.0233
     17 C          -3.4208    1.5680   -0.3226 C.ar    1  UNL1       -0.0077
     18 C          -3.9248    2.5088    0.5738 C.ar    1  UNL1       -0.0119
     19 C          -5.1140    3.1404    0.4202 C.ar    1  UNL1        0.1241
     20 O          -5.5042    4.0574    1.3834 O.3     1  UNL1       -0.4950
     21 C          -6.7424    4.7506    1.2746 C.3     1  UNL1        0.0788
     22 C          -5.8839    2.8424   -0.6889 C.ar    1  UNL1        0.0218
     23 C          -5.4317    1.9240   -1.5997 C.ar    1  UNL1        0.1241
     24 O          -6.2195    1.6390   -2.7068 O.3     1  UNL1       -0.4950
     25 C          -7.4628    2.2824   -2.8920 C.3     1  UNL1        0.0788
     26 C          -4.2028    1.2891   -1.4161 C.ar    1  UNL1       -0.0119
     27 C          -2.0116   -0.4113   -0.1369 C.ar    1  UNL1        0.1363
     28 N          -3.0923   -1.2918   -0.4126 N.am    1  UNL1       -0.2536
     29 C          -3.9061   -1.7712    0.6341 C.2     1  UNL1        0.3054
     30 O          -3.7400   -1.4656    1.8377 O.2     1  UNL1       -0.2525
     31 N          -4.9904   -2.6568    0.3383 N.am    1  UNL1       -0.2944
     32 C          -5.8693   -3.1917    1.3234 C.3     1  UNL1        0.0276
     33 C          -5.0570   -4.0003    2.3102 C.3     1  UNL1       -0.0442
     34 C          -6.6081   -2.1225    2.0986 C.3     1  UNL1       -0.0442
     35 C          -6.8916   -4.0755    0.6773 C.3     1  UNL1       -0.0442
     36 N          -0.8132   -1.0051    0.0776 N.ar    1  UNL1       -0.2116
     37 C           0.2953   -0.3066    0.3514 C.ar    1  UNL1        0.1668
     38 N           1.4873   -0.8947    0.5636 N.ar    1  UNL1       -0.1947
     39 H          10.4949   -0.3985   -2.2574 H       1  UNL1        0.0242
     40 H           9.2036   -0.2904   -3.4820 H       1  UNL1        0.0242
     41 H           9.1073   -1.6046   -2.2446 H       1  UNL1        0.0242
     42 H           9.3687    1.1532   -1.1140 H       1  UNL1        0.0424
     43 H           7.9105    0.9072   -2.0881 H       1  UNL1        0.0424
     44 H           8.3738   -1.6309    1.1932 H       1  UNL1        0.0424
     45 H           9.6640   -1.6076   -0.0207 H       1  UNL1        0.0424
     46 H           9.2118    0.0976    2.3804 H       1  UNL1        0.0242
     47 H           9.5378    1.0772    0.9084 H       1  UNL1        0.0242
     48 H          10.7134   -0.1444    1.4601 H       1  UNL1        0.0242
     49 H           6.5740   -1.7339    0.0474 H       1  UNL1        0.0426
     50 H           6.9711   -1.6014   -1.7379 H       1  UNL1        0.0426
     51 H           5.9602    0.5733   -1.8807 H       1  UNL1        0.0278
     52 H           4.7846   -0.6824   -1.2384 H       1  UNL1        0.0278
     53 H           6.3231    1.3361    0.4813 H       1  UNL1        0.0281
     54 H           4.6138    1.4846   -0.1488 H       1  UNL1        0.0281
     55 H           5.8967   -0.6973    1.6255 H       1  UNL1        0.0462
     56 H           4.7795    0.6118    2.1639 H       1  UNL1        0.0462
     57 H           3.8949   -1.9228    1.0241 H       1  UNL1        0.1489
     58 H           1.3347    2.8321    0.7573 H       1  UNL1        0.0838
     59 H          -1.0835    2.7556    0.2493 H       1  UNL1        0.0632
     60 H          -3.3094    2.7290    1.4339 H       1  UNL1        0.0660
     61 H          -6.8328    5.5429    2.0266 H       1  UNL1        0.0660
     62 H          -6.7894    5.1170    0.2278 H       1  UNL1        0.0660
     63 H          -7.5867    4.0518    1.4214 H       1  UNL1        0.0660
     64 H          -6.8373    3.3413   -0.8209 H       1  UNL1        0.0691
     65 H          -8.1180    2.0823   -2.0127 H       1  UNL1        0.0660
     66 H          -7.9010    1.8198   -3.8221 H       1  UNL1        0.0660
     67 H          -7.3469    3.3695   -3.0217 H       1  UNL1        0.0660
     68 H          -3.8728    0.5742   -2.1602 H       1  UNL1        0.0660
     69 H          -3.2626   -1.5704   -1.3939 H       1  UNL1        0.1578
     70 H          -5.1279   -2.9112   -0.6601 H       1  UNL1        0.1508
     71 H          -5.7268   -4.7897    2.7109 H       1  UNL1        0.0250
     72 H          -4.6788   -3.3571    3.1366 H       1  UNL1        0.0250
     73 H          -4.1925   -4.3998    1.7618 H       1  UNL1        0.0250
     74 H          -5.9921   -1.6073    2.8415 H       1  UNL1        0.0250
     75 H          -7.4170   -2.6627    2.6729 H       1  UNL1        0.0250
     76 H          -7.1515   -1.4546    1.4069 H       1  UNL1        0.0250
     77 H          -7.4218   -3.5399   -0.1457 H       1  UNL1        0.0250
     78 H          -7.6922   -4.3611    1.4008 H       1  UNL1        0.0250
     79 H          -6.3953   -4.9566    0.2166 H       1  UNL1        0.0250
@<TRIPOS>BOND
     1     1     2    1
     2     2     3    1
     3     3     4    1
     4     4     5    1
     5     3     6    1
     6     6     7    1
     7     7     8    1
     8     8     9    1
     9     9    10    1
    10    10    11    1
    11    11    12   ar
    12    12    13   ar
    13    13    14   ar
    14    14    15   ar
    15    15    16   ar
    16    16    17    1
    17    17    18   ar
    18    18    19   ar
    19    19    20    1
    20    20    21    1
    21    19    22   ar
    22    22    23   ar
    23    23    24    1
    24    24    25    1
    25    23    26   ar
    26    16    27   ar
    27    27    28    1
    28    28    29   am
    29    29    30    2
    30    29    31   am
    31    31    32    1
    32    32    33    1
    33    32    34    1
    34    32    35    1
    35    27    36   ar
    36    36    37   ar
    37    37    38   ar
    38    38    11   ar
    39    37    14   ar
    40    26    17   ar
    41     1    39    1
    42     1    40    1
    43     1    41    1
    44     2    42    1
    45     2    43    1
    46     4    44    1
    47     4    45    1
    48     5    46    1
    49     5    47    1
    50     5    48    1
    51     6    49    1
    52     6    50    1
    53     7    51    1
    54     7    52    1
    55     8    53    1
    56     8    54    1
    57     9    55    1
    58     9    56    1
    59    10    57    1
    60    13    58    1
    61    15    59    1
    62    18    60    1
    63    21    61    1
    64    21    62    1
    65    21    63    1
    66    22    64    1
    67    25    65    1
    68    25    66    1
    69    25    67    1
    70    26    68    1
    71    28    69    1
    72    31    70    1
    73    33    71    1
    74    33    72    1
    75    33    73    1
    76    34    74    1
    77    34    75    1
    78    34    76    1
    79    35    77    1
    80    35    78    1
    81    35    79    1
