
     RDKit          3D

 79 81  0  0  0  0  0  0  0  0999 V2000
    9.4214   -0.5535   -2.4304 C   0  0  0  0  0  0  0  0  0  0  0  0
    8.6602    0.3783   -1.4835 C   0  0  0  0  0  0  0  0  0  0  0  0
    8.0411   -0.3487   -0.4360 N   0  0  0  0  0  0  0  0  0  0  0  0
    8.9111   -0.9621    0.4999 C   0  0  0  0  0  0  0  0  0  0  0  0
    9.6391    0.0648    1.3457 C   0  0  0  0  0  0  0  0  0  0  0  0
    6.8503   -1.0216   -0.7795 C   0  0  0  0  0  0  0  0  0  0  0  0
    5.7000   -0.0748   -1.0516 C   0  0  0  0  0  0  0  0  0  0  0  0
    5.4076    0.7787    0.1644 C   0  0  0  0  0  0  0  0  0  0  0  0
    5.0246   -0.0960    1.3124 C   0  0  0  0  0  0  0  0  0  0  0  0
    3.8437   -0.8890    1.0529 N   0  0  0  0  0  0  0  0  0  0  0  0
    2.6125   -0.2225    0.8380 C   0  0  0  0  0  0  0  0  0  0  0  0
    2.5443    1.1325    0.9053 N   0  0  0  0  0  0  0  0  0  0  0  0
    1.3734    1.7576    0.6997 C   0  0  0  0  0  0  0  0  0  0  0  0
    0.2208    1.0686    0.4189 C   0  0  0  0  0  0  0  0  0  0  0  0
   -0.9951    1.6922    0.2025 C   0  0  0  0  0  0  0  0  0  0  0  0
   -2.1331    0.9546   -0.0800 C   0  0  0  0  0  0  0  0  0  0  0  0
   -3.4208    1.5680   -0.3226 C   0  0  0  0  0  0  0  0  0  0  0  0
   -3.9248    2.5088    0.5738 C   0  0  0  0  0  0  0  0  0  0  0  0
   -5.1140    3.1404    0.4202 C   0  0  0  0  0  0  0  0  0  0  0  0
   -5.5042    4.0574    1.3834 O   0  0  0  0  0  0  0  0  0  0  0  0
   -6.7424    4.7506    1.2746 C   0  0  0  0  0  0  0  0  0  0  0  0
   -5.8839    2.8424   -0.6889 C   0  0  0  0  0  0  0  0  0  0  0  0
   -5.4317    1.9240   -1.5997 C   0  0  0  0  0  0  0  0  0  0  0  0
   -6.2195    1.6390   -2.7068 O   0  0  0  0  0  0  0  0  0  0  0  0
   -7.4628    2.2824   -2.8920 C   0  0  0  0  0  0  0  0  0  0  0  0
   -4.2028    1.2891   -1.4161 C   0  0  0  0  0  0  0  0  0  0  0  0
   -2.0116   -0.4113   -0.1369 C   0  0  0  0  0  0  0  0  0  0  0  0
   -3.0923   -1.2918   -0.4126 N   0  0  0  0  0  0  0  0  0  0  0  0
   -3.9061   -1.7712    0.6341 C   0  0  0  0  0  0  0  0  0  0  0  0
   -3.7400   -1.4656    1.8377 O   0  0  0  0  0  0  0  0  0  0  0  0
   -4.9904   -2.6568    0.3383 N   0  0  0  0  0  0  0  0  0  0  0  0
   -5.8693   -3.1917    1.3234 C   0  0  0  0  0  0  0  0  0  0  0  0
   -5.0570   -4.0003    2.3102 C   0  0  0  0  0  0  0  0  0  0  0  0
   -6.6081   -2.1225    2.0986 C   0  0  0  0  0  0  0  0  0  0  0  0
   -6.8916   -4.0755    0.6773 C   0  0  0  0  0  0  0  0  0  0  0  0
   -0.8132   -1.0051    0.0776 N   0  0  0  0  0  0  0  0  0  0  0  0
    0.2953   -0.3066    0.3514 C   0  0  0  0  0  0  0  0  0  0  0  0
    1.4873   -0.8947    0.5636 N   0  0  0  0  0  0  0  0  0  0  0  0
   10.4949   -0.3985   -2.2574 H   0  0  0  0  0  0  0  0  0  0  0  0
    9.2036   -0.2904   -3.4820 H   0  0  0  0  0  0  0  0  0  0  0  0
    9.1073   -1.6046   -2.2446 H   0  0  0  0  0  0  0  0  0  0  0  0
    9.3687    1.1532   -1.1140 H   0  0  0  0  0  0  0  0  0  0  0  0
    7.9105    0.9072   -2.0881 H   0  0  0  0  0  0  0  0  0  0  0  0
    8.3738   -1.6309    1.1932 H   0  0  0  0  0  0  0  0  0  0  0  0
    9.6640   -1.6076   -0.0207 H   0  0  0  0  0  0  0  0  0  0  0  0
    9.2118    0.0976    2.3804 H   0  0  0  0  0  0  0  0  0  0  0  0
    9.5378    1.0772    0.9084 H   0  0  0  0  0  0  0  0  0  0  0  0
   10.7134   -0.1444    1.4601 H   0  0  0  0  0  0  0  0  0  0  0  0
    6.5740   -1.7339    0.0474 H   0  0  0  0  0  0  0  0  0  0  0  0
    6.9711   -1.6014   -1.7379 H   0  0  0  0  0  0  0  0  0  0  0  0
    5.9602    0.5733   -1.8807 H   0  0  0  0  0  0  0  0  0  0  0  0
    4.7846   -0.6824   -1.2384 H   0  0  0  0  0  0  0  0  0  0  0  0
    6.3231    1.3361    0.4813 H   0  0  0  0  0  0  0  0  0  0  0  0
    4.6138    1.4846   -0.1488 H   0  0  0  0  0  0  0  0  0  0  0  0
    5.8967   -0.6973    1.6255 H   0  0  0  0  0  0  0  0  0  0  0  0
    4.7795    0.6118    2.1639 H   0  0  0  0  0  0  0  0  0  0  0  0
    3.8949   -1.9228    1.0241 H   0  0  0  0  0  0  0  0  0  0  0  0
    1.3347    2.8321    0.7573 H   0  0  0  0  0  0  0  0  0  0  0  0
   -1.0835    2.7556    0.2493 H   0  0  0  0  0  0  0  0  0  0  0  0
   -3.3094    2.7290    1.4339 H   0  0  0  0  0  0  0  0  0  0  0  0
   -6.8328    5.5429    2.0266 H   0  0  0  0  0  0  0  0  0  0  0  0
   -6.7894    5.1170    0.2278 H   0  0  0  0  0  0  0  0  0  0  0  0
   -7.5867    4.0518    1.4214 H   0  0  0  0  0  0  0  0  0  0  0  0
   -6.8373    3.3413   -0.8209 H   0  0  0  0  0  0  0  0  0  0  0  0
   -8.1180    2.0823   -2.0127 H   0  0  0  0  0  0  0  0  0  0  0  0
   -7.9010    1.8198   -3.8221 H   0  0  0  0  0  0  0  0  0  0  0  0
   -7.3469    3.3695   -3.0217 H   0  0  0  0  0  0  0  0  0  0  0  0
   -3.8728    0.5742   -2.1602 H   0  0  0  0  0  0  0  0  0  0  0  0
   -3.2626   -1.5704   -1.3939 H   0  0  0  0  0  0  0  0  0  0  0  0
   -5.1279   -2.9112   -0.6601 H   0  0  0  0  0  0  0  0  0  0  0  0
   -5.7268   -4.7897    2.7109 H   0  0  0  0  0  0  0  0  0  0  0  0
   -4.6788   -3.3571    3.1366 H   0  0  0  0  0  0  0  0  0  0  0  0
   -4.1925   -4.3998    1.7618 H   0  0  0  0  0  0  0  0  0  0  0  0
   -5.9921   -1.6073    2.8415 H   0  0  0  0  0  0  0  0  0  0  0  0
   -7.4170   -2.6627    2.6729 H   0  0  0  0  0  0  0  0  0  0  0  0
   -7.1515   -1.4546    1.4069 H   0  0  0  0  0  0  0  0  0  0  0  0
   -7.4218   -3.5399   -0.1457 H   0  0  0  0  0  0  0  0  0  0  0  0
   -7.6922   -4.3611    1.4008 H   0  0  0  0  0  0  0  0  0  0  0  0
   -6.3953   -4.9566    0.2166 H   0  0  0  0  0  0  0  0  0  0  0  0
  1  2  1  0
  2  3  1  0
  3  4  1  0
  4  5  1  0
  3  6  1  0
  6  7  1  0
  7  8  1  0
  8  9  1  0
  9 10  1  0
 10 11  1  0
 11 12  2  0
 12 13  1  0
 13 14  2  0
 14 15  1  0
 15 16  2  0
 16 17  1  0
 17 18  2  0
 18 19  1  0
 19 20  1  0
 20 21  1  0
 19 22  2  0
 22 23  1  0
 23 24  1  0
 24 25  1  0
 23 26  2  0
 16 27  1  0
 27 28  1  0
 28 29  1  0
 29 30  2  0
 29 31  1  0
 31 32  1  0
 32 33  1  0
 32 34  1  0
 32 35  1  0
 27 36  2  0
 36 37  1  0
 37 38  2  0
 38 11  1  0
 37 14  1  0
 26 17  1  0
  1 39  1  0
  1 40  1  0
  1 41  1  0
  2 42  1  0
  2 43  1  0
  4 44  1  0
  4 45  1  0
  5 46  1  0
  5 47  1  0
  5 48  1  0
  6 49  1  0
  6 50  1  0
  7 51  1  0
  7 52  1  0
  8 53  1  0
  8 54  1  0
  9 55  1  0
  9 56  1  0
 10 57  1  0
 13 58  1  0
 15 59  1  0
 18 60  1  0
 21 61  1  0
 21 62  1  0
 21 63  1  0
 22 64  1  0
 25 65  1  0
 25 66  1  0
 25 67  1  0
 26 68  1  0
 28 69  1  0
 31 70  1  0
 33 71  1  0
 33 72  1  0
 33 73  1  0
 34 74  1  0
 34 75  1  0
 34 76  1  0
 35 77  1  0
 35 78  1  0
 35 79  1  0
M  END
$$$$
