
     RDKit          3D

 32 33  0  0  0  0  0  0  0  0999 V2000
    6.4264    0.5903    0.8685 C   0  0  0  0  0  0  0  0  0  0  0  0
    5.2567    1.3504    0.8879 O   0  0  0  0  0  0  0  0  0  0  0  0
    4.0176    0.7776    0.6218 C   0  0  0  0  0  0  0  0  0  0  0  0
    3.9504   -0.5660    0.3343 C   0  0  0  0  0  0  0  0  0  0  0  0
    2.7186   -1.1227    0.0724 C   0  0  0  0  0  0  0  0  0  0  0  0
    1.5302   -0.4120    0.0793 C   0  0  0  0  0  0  0  0  0  0  0  0
    0.2866   -1.0976   -0.2109 C   0  0  0  0  0  0  0  0  0  0  0  0
    0.3145   -2.3303   -0.4641 O   0  0  0  0  0  0  0  0  0  0  0  0
   -0.9918   -0.3928   -0.2158 C   0  0  0  0  0  0  0  0  0  0  0  0
   -2.1097   -1.0551   -0.4862 C   0  0  0  0  0  0  0  0  0  0  0  0
   -3.4179   -0.4332   -0.5120 C   0  0  0  0  0  0  0  0  0  0  0  0
   -3.6699    0.8932   -0.2658 C   0  0  0  0  0  0  0  0  0  0  0  0
   -4.9633    1.4105   -0.3116 C   0  0  0  0  0  0  0  0  0  0  0  0
   -6.0456    0.6145   -0.6056 C   0  0  0  0  0  0  0  0  0  0  0  0
   -5.7984   -0.7176   -0.8536 C   0  0  0  0  0  0  0  0  0  0  0  0
   -4.5177   -1.2288   -0.8081 C   0  0  0  0  0  0  0  0  0  0  0  0
   -4.2599   -2.9439   -1.1345 Cl  0  0  0  0  0  0  0  0  0  0  0  0
    1.6280    0.9311    0.3704 C   0  0  0  0  0  0  0  0  0  0  0  0
    2.8610    1.5263    0.6404 C   0  0  0  0  0  0  0  0  0  0  0  0
    7.3030    1.2720    0.8848 H   0  0  0  0  0  0  0  0  0  0  0  0
    6.4893    0.0220   -0.0744 H   0  0  0  0  0  0  0  0  0  0  0  0
    6.4652   -0.1301    1.7120 H   0  0  0  0  0  0  0  0  0  0  0  0
    4.8707   -1.1550    0.3209 H   0  0  0  0  0  0  0  0  0  0  0  0
    2.6752   -2.1899   -0.1548 H   0  0  0  0  0  0  0  0  0  0  0  0
   -1.0330    0.6592   -0.0018 H   0  0  0  0  0  0  0  0  0  0  0  0
   -1.9925   -2.1132   -0.6925 H   0  0  0  0  0  0  0  0  0  0  0  0
   -2.8491    1.5365   -0.0345 H   0  0  0  0  0  0  0  0  0  0  0  0
   -5.1271    2.4642   -0.1117 H   0  0  0  0  0  0  0  0  0  0  0  0
   -7.0278    1.0611   -0.6292 H   0  0  0  0  0  0  0  0  0  0  0  0
   -6.6642   -1.3397   -1.0858 H   0  0  0  0  0  0  0  0  0  0  0  0
    0.7337    1.5359    0.3902 H   0  0  0  0  0  0  0  0  0  0  0  0
    2.9406    2.5830    0.8697 H   0  0  0  0  0  0  0  0  0  0  0  0
  1  2  1  0
  2  3  1  0
  3  4  2  0
  4  5  1  0
  5  6  2  0
  6  7  1  0
  7  8  2  0
  7  9  1  0
  9 10  2  0
 10 11  1  0
 11 12  2  0
 12 13  1  0
 13 14  2  0
 14 15  1  0
 15 16  2  0
 16 17  1  0
  6 18  1  0
 18 19  2  0
 19  3  1  0
 16 11  1  0
  1 20  1  0
  1 21  1  0
  1 22  1  0
  4 23  1  0
  5 24  1  0
  9 25  1  0
 10 26  1  0
 12 27  1  0
 13 28  1  0
 14 29  1  0
 15 30  1  0
 18 31  1  0
 19 32  1  0
M  END
$$$$
