@<TRIPOS>MOLECULE
*****
 32 33 0 0 0
SMALL
GASTEIGER

@<TRIPOS>ATOM
      1 C           6.4264    0.5903    0.8685 C.3     1  UNL1        0.0788
      2 O           5.2567    1.3504    0.8879 O.3     1  UNL1       -0.4951
      3 C           4.0176    0.7776    0.6218 C.ar    1  UNL1        0.1201
      4 C           3.9504   -0.5660    0.3343 C.ar    1  UNL1       -0.0193
      5 C           2.7186   -1.1227    0.0724 C.ar    1  UNL1       -0.0475
      6 C           1.5302   -0.4120    0.0793 C.ar    1  UNL1        0.0219
      7 C           0.2866   -1.0976   -0.2109 C.2     1  UNL1        0.1861
      8 O           0.3145   -2.3303   -0.4641 O.2     1  UNL1       -0.2873
      9 C          -0.9918   -0.3928   -0.2158 C.2     1  UNL1       -0.0138
     10 C          -2.1097   -1.0551   -0.4862 C.2     1  UNL1       -0.0496
     11 C          -3.4179   -0.4332   -0.5120 C.ar    1  UNL1       -0.0066
     12 C          -3.6699    0.8932   -0.2658 C.ar    1  UNL1       -0.0532
     13 C          -4.9633    1.4105   -0.3116 C.ar    1  UNL1       -0.0611
     14 C          -6.0456    0.6145   -0.6056 C.ar    1  UNL1       -0.0603
     15 C          -5.7984   -0.7176   -0.8536 C.ar    1  UNL1       -0.0428
     16 C          -4.5177   -1.2288   -0.8081 C.ar    1  UNL1        0.0481
     17 CL         -4.2599   -2.9439   -1.1345 Cl      1  UNL1       -0.0829
     18 C           1.6280    0.9311    0.3704 C.ar    1  UNL1       -0.0475
     19 C           2.8610    1.5263    0.6404 C.ar    1  UNL1       -0.0193
     20 H           7.3030    1.2720    0.8848 H       1  UNL1        0.0660
     21 H           6.4893    0.0220   -0.0744 H       1  UNL1        0.0660
     22 H           6.4652   -0.1301    1.7120 H       1  UNL1        0.0660
     23 H           4.8707   -1.1550    0.3209 H       1  UNL1        0.0654
     24 H           2.6752   -2.1899   -0.1548 H       1  UNL1        0.0626
     25 H          -1.0330    0.6592   -0.0018 H       1  UNL1        0.0656
     26 H          -1.9925   -2.1132   -0.6925 H       1  UNL1        0.0625
     27 H          -2.8491    1.5365   -0.0345 H       1  UNL1        0.0624
     28 H          -5.1271    2.4642   -0.1117 H       1  UNL1        0.0618
     29 H          -7.0278    1.0611   -0.6292 H       1  UNL1        0.0618
     30 H          -6.6642   -1.3397   -1.0858 H       1  UNL1        0.0632
     31 H           0.7337    1.5359    0.3902 H       1  UNL1        0.0626
     32 H           2.9406    2.5830    0.8697 H       1  UNL1        0.0654
@<TRIPOS>BOND
     1     1     2    1
     2     2     3    1
     3     3     4   ar
     4     4     5   ar
     5     5     6   ar
     6     6     7    1
     7     7     8    2
     8     7     9    1
     9     9    10    2
    10    10    11    1
    11    11    12   ar
    12    12    13   ar
    13    13    14   ar
    14    14    15   ar
    15    15    16   ar
    16    16    17    1
    17     6    18   ar
    18    18    19   ar
    19    19     3   ar
    20    16    11   ar
    21     1    20    1
    22     1    21    1
    23     1    22    1
    24     4    23    1
    25     5    24    1
    26     9    25    1
    27    10    26    1
    28    12    27    1
    29    13    28    1
    30    14    29    1
    31    15    30    1
    32    18    31    1
    33    19    32    1
