
     RDKit          3D

 54 57  0  0  0  0  0  0  0  0999 V2000
    7.7954    3.2083   -0.2168 C   0  0  0  0  0  0  0  0  0  0  0  0
    7.7728    1.8057   -0.0797 O   0  0  0  0  0  0  0  0  0  0  0  0
    6.5402    1.1744   -0.0143 C   0  0  0  0  0  0  0  0  0  0  0  0
    6.5353   -0.1917    0.1192 C   0  0  0  0  0  0  0  0  0  0  0  0
    5.3037   -0.8459    0.1868 C   0  0  0  0  0  0  0  0  0  0  0  0
    4.0863   -0.1735    0.1250 C   0  0  0  0  0  0  0  0  0  0  0  0
    2.8669   -0.9213    0.2176 N   0  0  0  0  0  0  0  0  0  0  0  0
    2.9502   -2.3513    0.5271 C   0  0  0  0  0  0  0  0  0  0  0  0
    3.0132   -3.1021   -0.7793 C   0  0  0  0  0  0  0  0  0  0  0  0
    3.0959   -4.4830   -0.5604 O   0  0  0  0  0  0  0  0  0  0  0  0
    1.5850   -0.3664    0.0580 C   0  0  0  0  0  0  0  0  0  0  0  0
    1.3502    0.8732   -0.1448 O   0  0  0  0  0  0  0  0  0  0  0  0
    0.4239   -1.1841    0.1128 N   0  0  0  0  0  0  0  0  0  0  0  0
   -0.8654   -0.5849   -0.0515 C   0  0  0  0  0  0  0  0  0  0  0  0
   -1.5570   -0.1193    1.0460 C   0  0  0  0  0  0  0  0  0  0  0  0
   -2.8070    0.4663    0.9249 C   0  0  0  0  0  0  0  0  0  0  0  0
   -3.4067    0.6042   -0.3048 C   0  0  0  0  0  0  0  0  0  0  0  0
   -4.7045    1.1901   -0.4919 C   0  0  0  0  0  0  0  0  0  0  0  0
   -4.8076    2.2781   -1.3069 N   0  0  0  0  0  0  0  0  0  0  0  0
   -5.9625    2.8919   -1.5504 C   0  0  0  0  0  0  0  0  0  0  0  0
   -7.0861    2.4309   -0.9753 N   0  0  0  0  0  0  0  0  0  0  0  0
   -7.0790    1.3733   -0.1671 C   0  0  0  0  0  0  0  0  0  0  0  0
   -8.0515    0.7402    0.4829 N   0  0  0  0  0  0  0  0  0  0  0  0
   -7.5274   -0.2901    1.1471 C   0  0  0  0  0  0  0  0  0  0  0  0
   -6.1433   -0.3248    0.9146 C   0  0  0  0  0  0  0  0  0  0  0  0
   -5.1977   -1.3339    1.4310 C   0  0  0  0  0  0  0  0  0  0  0  0
   -5.8581    0.7291    0.0857 C   0  0  0  0  0  0  0  0  0  0  0  0
   -2.6780    0.1210   -1.4036 C   0  0  0  0  0  0  0  0  0  0  0  0
   -1.4371   -0.4602   -1.2843 C   0  0  0  0  0  0  0  0  0  0  0  0
    4.1182    1.1819   -0.0074 C   0  0  0  0  0  0  0  0  0  0  0  0
    5.3541    1.8397   -0.0756 C   0  0  0  0  0  0  0  0  0  0  0  0
    8.8363    3.5957   -0.2344 H   0  0  0  0  0  0  0  0  0  0  0  0
    7.2374    3.7025    0.5813 H   0  0  0  0  0  0  0  0  0  0  0  0
    7.3383    3.5156   -1.1907 H   0  0  0  0  0  0  0  0  0  0  0  0
    7.4571   -0.7753    0.1734 H   0  0  0  0  0  0  0  0  0  0  0  0
    5.3311   -1.9090    0.2841 H   0  0  0  0  0  0  0  0  0  0  0  0
    2.0639   -2.7219    1.0889 H   0  0  0  0  0  0  0  0  0  0  0  0
    3.8084   -2.5867    1.2007 H   0  0  0  0  0  0  0  0  0  0  0  0
    2.0718   -2.8793   -1.3496 H   0  0  0  0  0  0  0  0  0  0  0  0
    3.8498   -2.7118   -1.3662 H   0  0  0  0  0  0  0  0  0  0  0  0
    2.1954   -4.7829   -0.2961 H   0  0  0  0  0  0  0  0  0  0  0  0
    0.4709   -2.2015    0.2610 H   0  0  0  0  0  0  0  0  0  0  0  0
   -1.1467   -0.1930    2.0596 H   0  0  0  0  0  0  0  0  0  0  0  0
   -3.3379    0.8384    1.7958 H   0  0  0  0  0  0  0  0  0  0  0  0
   -6.0505    3.7637   -2.2020 H   0  0  0  0  0  0  0  0  0  0  0  0
   -9.0806    0.9676    0.5069 H   0  0  0  0  0  0  0  0  0  0  0  0
   -8.0306   -1.0097    1.7733 H   0  0  0  0  0  0  0  0  0  0  0  0
   -5.8583   -2.2397    1.6793 H   0  0  0  0  0  0  0  0  0  0  0  0
   -4.7470   -0.9780    2.3566 H   0  0  0  0  0  0  0  0  0  0  0  0
   -4.5091   -1.6762    0.6617 H   0  0  0  0  0  0  0  0  0  0  0  0
   -3.1636    0.2376   -2.3624 H   0  0  0  0  0  0  0  0  0  0  0  0
   -0.9097   -0.8219   -2.1777 H   0  0  0  0  0  0  0  0  0  0  0  0
    3.2247    1.7800   -0.0584 H   0  0  0  0  0  0  0  0  0  0  0  0
    5.3266    2.9098   -0.1801 H   0  0  0  0  0  0  0  0  0  0  0  0
  1  2  1  0
  2  3  1  0
  3  4  2  0
  4  5  1  0
  5  6  2  0
  6  7  1  0
  7  8  1  0
  8  9  1  0
  9 10  1  0
  7 11  1  0
 11 12  2  0
 11 13  1  0
 13 14  1  0
 14 15  2  0
 15 16  1  0
 16 17  2  0
 17 18  1  0
 18 19  2  0
 19 20  1  0
 20 21  2  0
 21 22  1  0
 22 23  1  0
 23 24  1  0
 24 25  2  0
 25 26  1  0
 25 27  1  0
 17 28  1  0
 28 29  2  0
  6 30  1  0
 30 31  2  0
 31  3  1  0
 29 14  1  0
 27 18  1  0
 27 22  2  0
  1 32  1  0
  1 33  1  0
  1 34  1  0
  4 35  1  0
  5 36  1  0
  8 37  1  0
  8 38  1  0
  9 39  1  0
  9 40  1  0
 10 41  1  0
 13 42  1  0
 15 43  1  0
 16 44  1  0
 20 45  1  0
 23 46  1  0
 24 47  1  0
 26 48  1  0
 26 49  1  0
 26 50  1  0
 28 51  1  0
 29 52  1  0
 30 53  1  0
 31 54  1  0
M  END
$$$$
