@<TRIPOS>MOLECULE
*****
 54 57 0 0 0
SMALL
GASTEIGER

@<TRIPOS>ATOM
      1 C           7.7954    3.2083   -0.2168 C.3     1  UNL1        0.0788
      2 O           7.7728    1.8057   -0.0797 O.3     1  UNL1       -0.4951
      3 C           6.5402    1.1744   -0.0143 C.ar    1  UNL1        0.1202
      4 C           6.5353   -0.1917    0.1192 C.ar    1  UNL1       -0.0182
      5 C           5.3037   -0.8459    0.1868 C.ar    1  UNL1       -0.0368
      6 C           4.0863   -0.1735    0.1250 C.ar    1  UNL1        0.0380
      7 N           2.8669   -0.9213    0.2176 N.am    1  UNL1       -0.2531
      8 C           2.9502   -2.3513    0.5271 C.3     1  UNL1        0.0444
      9 C           3.0132   -3.1021   -0.7793 C.3     1  UNL1        0.0604
     10 O           3.0959   -4.4830   -0.5604 O.3     1  UNL1       -0.3934
     11 C           1.5850   -0.3664    0.0580 C.2     1  UNL1        0.3108
     12 O           1.3502    0.8732   -0.1448 O.2     1  UNL1       -0.2519
     13 N           0.4239   -1.1841    0.1128 N.am    1  UNL1       -0.2690
     14 C          -0.8654   -0.5849   -0.0515 C.ar    1  UNL1        0.0348
     15 C          -1.5570   -0.1193    1.0460 C.ar    1  UNL1       -0.0398
     16 C          -2.8070    0.4663    0.9249 C.ar    1  UNL1       -0.0508
     17 C          -3.4067    0.6042   -0.3048 C.ar    1  UNL1        0.0012
     18 C          -4.7045    1.1901   -0.4919 C.ar    1  UNL1        0.0836
     19 N          -4.8076    2.2781   -1.3069 N.ar    1  UNL1       -0.2347
     20 C          -5.9625    2.8919   -1.5504 C.ar    1  UNL1        0.1189
     21 N          -7.0861    2.4309   -0.9753 N.ar    1  UNL1       -0.2179
     22 C          -7.0790    1.3733   -0.1671 C.ar    1  UNL1        0.1422
     23 N          -8.0515    0.7402    0.4829 N.ar    1  UNL1       -0.3455
     24 C          -7.5274   -0.2901    1.1471 C.ar    1  UNL1        0.0071
     25 C          -6.1433   -0.3248    0.9146 C.ar    1  UNL1       -0.0218
     26 C          -5.1977   -1.3339    1.4310 C.3     1  UNL1       -0.0376
     27 C          -5.8581    0.7291    0.0857 C.ar    1  UNL1        0.0475
     28 C          -2.6780    0.1210   -1.4036 C.ar    1  UNL1       -0.0508
     29 C          -1.4371   -0.4602   -1.2843 C.ar    1  UNL1       -0.0398
     30 C           4.1182    1.1819   -0.0074 C.ar    1  UNL1       -0.0368
     31 C           5.3541    1.8397   -0.0756 C.ar    1  UNL1       -0.0182
     32 H           8.8363    3.5957   -0.2344 H       1  UNL1        0.0660
     33 H           7.2374    3.7025    0.5813 H       1  UNL1        0.0660
     34 H           7.3383    3.5156   -1.1907 H       1  UNL1        0.0660
     35 H           7.4571   -0.7753    0.1734 H       1  UNL1        0.0655
     36 H           5.3311   -1.9090    0.2841 H       1  UNL1        0.0637
     37 H           2.0639   -2.7219    1.0889 H       1  UNL1        0.0492
     38 H           3.8084   -2.5867    1.2007 H       1  UNL1        0.0492
     39 H           2.0718   -2.8793   -1.3496 H       1  UNL1        0.0573
     40 H           3.8498   -2.7118   -1.3662 H       1  UNL1        0.0573
     41 H           2.1954   -4.7829   -0.2961 H       1  UNL1        0.2095
     42 H           0.4709   -2.2015    0.2610 H       1  UNL1        0.1564
     43 H          -1.1467   -0.1930    2.0596 H       1  UNL1        0.0636
     44 H          -3.3379    0.8384    1.7958 H       1  UNL1        0.0625
     45 H          -6.0505    3.7637   -2.2020 H       1  UNL1        0.1048
     46 H          -9.0806    0.9676    0.5069 H       1  UNL1        0.1668
     47 H          -8.0306   -1.0097    1.7733 H       1  UNL1        0.0810
     48 H          -5.8583   -2.2397    1.6793 H       1  UNL1        0.0278
     49 H          -4.7470   -0.9780    2.3566 H       1  UNL1        0.0278
     50 H          -4.5091   -1.6762    0.6617 H       1  UNL1        0.0278
     51 H          -3.1636    0.2376   -2.3624 H       1  UNL1        0.0625
     52 H          -0.9097   -0.8219   -2.1777 H       1  UNL1        0.0636
     53 H           3.2247    1.7800   -0.0584 H       1  UNL1        0.0637
     54 H           5.3266    2.9098   -0.1801 H       1  UNL1        0.0655
@<TRIPOS>BOND
     1     1     2    1
     2     2     3    1
     3     3     4   ar
     4     4     5   ar
     5     5     6   ar
     6     6     7    1
     7     7     8    1
     8     8     9    1
     9     9    10    1
    10     7    11   am
    11    11    12    2
    12    11    13   am
    13    13    14    1
    14    14    15   ar
    15    15    16   ar
    16    16    17   ar
    17    17    18    1
    18    18    19   ar
    19    19    20   ar
    20    20    21   ar
    21    21    22   ar
    22    22    23   ar
    23    23    24   ar
    24    24    25   ar
    25    25    26    1
    26    25    27   ar
    27    17    28   ar
    28    28    29   ar
    29     6    30   ar
    30    30    31   ar
    31    31     3   ar
    32    29    14   ar
    33    27    18   ar
    34    27    22   ar
    35     1    32    1
    36     1    33    1
    37     1    34    1
    38     4    35    1
    39     5    36    1
    40     8    37    1
    41     8    38    1
    42     9    39    1
    43     9    40    1
    44    10    41    1
    45    13    42    1
    46    15    43    1
    47    16    44    1
    48    20    45    1
    49    23    46    1
    50    24    47    1
    51    26    48    1
    52    26    49    1
    53    26    50    1
    54    28    51    1
    55    29    52    1
    56    30    53    1
    57    31    54    1
