
     RDKit          3D

 69 72  0  0  0  0  0  0  0  0999 V2000
    9.2411    2.1116   -0.3431 C   0  0  0  0  0  0  0  0  0  0  0  0
    7.9621    2.8846   -0.1920 C   0  0  0  0  0  0  0  0  0  0  0  0
    6.7998    2.0543   -0.0337 N   0  0  0  0  0  0  0  0  0  0  0  0
    6.1372    1.6711   -1.1307 C   0  0  0  0  0  0  0  0  0  0  0  0
    4.9999    0.8662   -1.0710 C   0  0  0  0  0  0  0  0  0  0  0  0
    4.5268    0.4406    0.1510 C   0  0  0  0  0  0  0  0  0  0  0  0
    3.3273   -0.4150    0.2879 C   0  0  0  0  0  0  0  0  0  0  0  0
    2.2839   -0.3291   -0.5933 C   0  0  0  0  0  0  0  0  0  0  0  0
    1.1557   -1.1457   -0.4497 C   0  0  0  0  0  0  0  0  0  0  0  0
    1.0467   -2.0514    0.5608 C   0  0  0  0  0  0  0  0  0  0  0  0
   -0.1293   -2.9558    0.7547 C   0  0  2  0  0  0  0  0  0  0  0  0
    0.1387   -4.2353    0.0480 C   0  0  0  0  0  0  0  0  0  0  0  0
   -1.3951   -2.3476    0.5002 N   0  0  0  0  0  0  0  0  0  0  0  0
   -2.2748   -2.0092    1.5968 C   0  0  0  0  0  0  0  0  0  0  0  0
   -3.6265   -1.6302    1.0967 C   0  0  0  0  0  0  0  0  0  0  0  0
   -3.5882   -0.5154    0.0260 C   0  0  2  0  0  0  0  0  0  0  0  0
   -3.3443    0.7353    0.7888 C   0  0  0  0  0  0  0  0  0  0  0  0
   -3.2412    2.0177    0.0644 C   0  0  0  0  0  0  0  0  0  0  0  0
   -2.1227    2.0177   -0.9252 C   0  0  0  0  0  0  0  0  0  0  0  0
   -2.8787    3.0944    1.1256 C   0  0  0  0  0  0  0  0  0  0  0  0
   -4.4309    2.4939   -0.4834 O   0  0  0  0  0  0  0  0  0  0  0  0
   -4.9734   -0.5060   -0.5676 C   0  0  0  0  0  0  0  0  0  0  0  0
   -5.2194    0.1016   -1.7819 C   0  0  0  0  0  0  0  0  0  0  0  0
   -6.4768    0.1382   -2.3208 C   0  0  0  0  0  0  0  0  0  0  0  0
   -7.5531   -0.4309   -1.6750 C   0  0  0  0  0  0  0  0  0  0  0  0
   -7.3117   -1.0386   -0.4646 C   0  0  0  0  0  0  0  0  0  0  0  0
   -6.0291   -1.0823    0.0978 C   0  0  0  0  0  0  0  0  0  0  0  0
   -2.6322   -0.8531   -0.9313 O   0  0  0  0  0  0  0  0  0  0  0  0
   -1.8483   -2.0191   -0.8133 C   0  0  0  0  0  0  0  0  0  0  0  0
   -1.5405   -2.7548   -1.7594 O   0  0  0  0  0  0  0  0  0  0  0  0
    2.1257   -2.1227    1.4513 C   0  0  0  0  0  0  0  0  0  0  0  0
    3.2389   -1.3277    1.3226 C   0  0  0  0  0  0  0  0  0  0  0  0
    5.2153    0.8399    1.2764 C   0  0  0  0  0  0  0  0  0  0  0  0
    6.3389    1.6396    1.1590 C   0  0  0  0  0  0  0  0  0  0  0  0
    6.9823    2.0156    2.1730 O   0  0  0  0  0  0  0  0  0  0  0  0
    9.2322    1.4317   -1.2117 H   0  0  0  0  0  0  0  0  0  0  0  0
    9.5543    1.6118    0.5948 H   0  0  0  0  0  0  0  0  0  0  0  0
   10.0416    2.8715   -0.5591 H   0  0  0  0  0  0  0  0  0  0  0  0
    8.1022    3.6084    0.6411 H   0  0  0  0  0  0  0  0  0  0  0  0
    7.8555    3.5169   -1.1166 H   0  0  0  0  0  0  0  0  0  0  0  0
    6.4704    1.9814   -2.1304 H   0  0  0  0  0  0  0  0  0  0  0  0
    4.4624    0.5547   -1.9514 H   0  0  0  0  0  0  0  0  0  0  0  0
    2.3416    0.3764   -1.4009 H   0  0  0  0  0  0  0  0  0  0  0  0
    0.3657   -1.0287   -1.1696 H   0  0  0  0  0  0  0  0  0  0  0  0
   -0.1075   -3.1575    1.8719 H   0  0  0  0  0  0  0  0  0  0  0  0
    0.9303   -4.7898    0.6243 H   0  0  0  0  0  0  0  0  0  0  0  0
   -0.7322   -4.9124   -0.0080 H   0  0  0  0  0  0  0  0  0  0  0  0
    0.5930   -4.0802   -0.9713 H   0  0  0  0  0  0  0  0  0  0  0  0
   -2.4277   -2.8801    2.2842 H   0  0  0  0  0  0  0  0  0  0  0  0
   -1.8260   -1.1727    2.1969 H   0  0  0  0  0  0  0  0  0  0  0  0
   -4.1276   -2.4859    0.6168 H   0  0  0  0  0  0  0  0  0  0  0  0
   -4.1872   -1.2360    1.9895 H   0  0  0  0  0  0  0  0  0  0  0  0
   -2.3835    0.6270    1.3836 H   0  0  0  0  0  0  0  0  0  0  0  0
   -4.1205    0.8308    1.6072 H   0  0  0  0  0  0  0  0  0  0  0  0
   -2.5434    1.9966   -1.9457 H   0  0  0  0  0  0  0  0  0  0  0  0
   -1.5183    2.9528   -0.7969 H   0  0  0  0  0  0  0  0  0  0  0  0
   -1.4646    1.1335   -0.7081 H   0  0  0  0  0  0  0  0  0  0  0  0
   -2.0309    2.7750    1.7303 H   0  0  0  0  0  0  0  0  0  0  0  0
   -3.7644    3.2166    1.7816 H   0  0  0  0  0  0  0  0  0  0  0  0
   -2.7218    4.0722    0.6238 H   0  0  0  0  0  0  0  0  0  0  0  0
   -4.3186    2.8658   -1.3888 H   0  0  0  0  0  0  0  0  0  0  0  0
   -4.3516    0.5311   -2.2930 H   0  0  0  0  0  0  0  0  0  0  0  0
   -6.6234    0.6290   -3.2807 H   0  0  0  0  0  0  0  0  0  0  0  0
   -8.5454   -0.4016   -2.1008 H   0  0  0  0  0  0  0  0  0  0  0  0
   -8.1381   -1.4945    0.0654 H   0  0  0  0  0  0  0  0  0  0  0  0
   -5.8960   -1.5837    1.0663 H   0  0  0  0  0  0  0  0  0  0  0  0
    2.0414   -2.8424    2.2561 H   0  0  0  0  0  0  0  0  0  0  0  0
    4.0818   -1.3816    2.0161 H   0  0  0  0  0  0  0  0  0  0  0  0
    4.8524    0.5114    2.2407 H   0  0  0  0  0  0  0  0  0  0  0  0
  1  2  1  0
  2  3  1  0
  3  4  1  0
  4  5  2  0
  5  6  1  0
  6  7  1  0
  7  8  2  0
  8  9  1  0
  9 10  2  0
 10 11  1  0
 11 12  1  0
 11 13  1  0
 13 14  1  0
 14 15  1  0
 15 16  1  0
 16 17  1  1
 17 18  1  0
 18 19  1  0
 18 20  1  0
 18 21  1  0
 16 22  1  0
 22 23  2  0
 23 24  1  0
 24 25  2  0
 25 26  1  0
 26 27  2  0
 16 28  1  0
 28 29  1  0
 29 30  2  0
 10 31  1  0
 31 32  2  0
  6 33  2  0
 33 34  1  0
 34 35  2  0
 34  3  1  0
 32  7  1  0
 29 13  1  0
 27 22  1  0
  1 36  1  0
  1 37  1  0
  1 38  1  0
  2 39  1  0
  2 40  1  0
  4 41  1  0
  5 42  1  0
  8 43  1  0
  9 44  1  0
 11 45  1  1
 12 46  1  0
 12 47  1  0
 12 48  1  0
 14 49  1  0
 14 50  1  0
 15 51  1  0
 15 52  1  0
 17 53  1  0
 17 54  1  0
 19 55  1  0
 19 56  1  0
 19 57  1  0
 20 58  1  0
 20 59  1  0
 20 60  1  0
 21 61  1  0
 23 62  1  0
 24 63  1  0
 25 64  1  0
 26 65  1  0
 27 66  1  0
 31 67  1  0
 32 68  1  0
 33 69  1  0
M  END
$$$$
