@<TRIPOS>MOLECULE
*****
 69 72 0 0 0
SMALL
GASTEIGER

@<TRIPOS>ATOM
      1 C           9.2411    2.1116   -0.3431 C.3     1  UNL1       -0.0470
      2 C           7.9621    2.8846   -0.1920 C.3     1  UNL1        0.0233
      3 N           6.7998    2.0543   -0.0337 N.ar    1  UNL1       -0.3154
      4 C           6.1372    1.6711   -1.1307 C.ar    1  UNL1        0.0085
      5 C           4.9999    0.8662   -1.0710 C.ar    1  UNL1       -0.0376
      6 C           4.5268    0.4406    0.1510 C.ar    1  UNL1       -0.0114
      7 C           3.3273   -0.4150    0.2879 C.ar    1  UNL1       -0.0177
      8 C           2.2839   -0.3291   -0.5933 C.ar    1  UNL1       -0.0537
      9 C           1.1557   -1.1457   -0.4497 C.ar    1  UNL1       -0.0562
     10 C           1.0467   -2.0514    0.5608 C.ar    1  UNL1       -0.0271
     11 C          -0.1293   -2.9558    0.7547 C.3     1  UNL1        0.0515
     12 C           0.1387   -4.2353    0.0480 C.3     1  UNL1       -0.0421
     13 N          -1.3951   -2.3476    0.5002 N.am    1  UNL1       -0.2605
     14 C          -2.2748   -2.0092    1.5968 C.3     1  UNL1        0.0224
     15 C          -3.6265   -1.6302    1.0967 C.3     1  UNL1        0.0076
     16 C          -3.5882   -0.5154    0.0260 C.3     1  UNL1        0.1440
     17 C          -3.3443    0.7353    0.7888 C.3     1  UNL1        0.0199
     18 C          -3.2412    2.0177    0.0644 C.3     1  UNL1        0.0645
     19 C          -2.1227    2.0177   -0.9252 C.3     1  UNL1       -0.0362
     20 C          -2.8787    3.0944    1.1256 C.3     1  UNL1       -0.0362
     21 O          -4.4309    2.4939   -0.4834 O.3     1  UNL1       -0.3890
     22 C          -4.9734   -0.5060   -0.5676 C.ar    1  UNL1       -0.0040
     23 C          -5.2194    0.1016   -1.7819 C.ar    1  UNL1       -0.0548
     24 C          -6.4768    0.1382   -2.3208 C.ar    1  UNL1       -0.0614
     25 C          -7.5531   -0.4309   -1.6750 C.ar    1  UNL1       -0.0617
     26 C          -7.3117   -1.0386   -0.4646 C.ar    1  UNL1       -0.0614
     27 C          -6.0291   -1.0823    0.0978 C.ar    1  UNL1       -0.0548
     28 O          -2.6322   -0.8531   -0.9313 O.3     1  UNL1       -0.4387
     29 C          -1.8483   -2.0191   -0.8133 C.2     1  UNL1        0.4042
     30 O          -1.5405   -2.7548   -1.7594 O.2     1  UNL1       -0.2262
     31 C           2.1257   -2.1227    1.4513 C.ar    1  UNL1       -0.0562
     32 C           3.2389   -1.3277    1.3226 C.ar    1  UNL1       -0.0537
     33 C           5.2153    0.8399    1.2764 C.ar    1  UNL1        0.0107
     34 C           6.3389    1.6396    1.1590 C.ar    1  UNL1        0.2518
     35 O           6.9823    2.0156    2.1730 O.2     1  UNL1       -0.2677
     36 H           9.2322    1.4317   -1.2117 H       1  UNL1        0.0247
     37 H           9.5543    1.6118    0.5948 H       1  UNL1        0.0247
     38 H          10.0416    2.8715   -0.5591 H       1  UNL1        0.0247
     39 H           8.1022    3.6084    0.6411 H       1  UNL1        0.0490
     40 H           7.8555    3.5169   -1.1166 H       1  UNL1        0.0490
     41 H           6.4704    1.9814   -2.1304 H       1  UNL1        0.0810
     42 H           4.4624    0.5547   -1.9514 H       1  UNL1        0.0638
     43 H           2.3416    0.3764   -1.4009 H       1  UNL1        0.0624
     44 H           0.3657   -1.0287   -1.1696 H       1  UNL1        0.0621
     45 H          -0.1075   -3.1575    1.8719 H       1  UNL1        0.0549
     46 H           0.9303   -4.7898    0.6243 H       1  UNL1        0.0251
     47 H          -0.7322   -4.9124   -0.0080 H       1  UNL1        0.0251
     48 H           0.5930   -4.0802   -0.9713 H       1  UNL1        0.0251
     49 H          -2.4277   -2.8801    2.2842 H       1  UNL1        0.0467
     50 H          -1.8260   -1.1727    2.1969 H       1  UNL1        0.0467
     51 H          -4.1276   -2.4859    0.6168 H       1  UNL1        0.0322
     52 H          -4.1872   -1.2360    1.9895 H       1  UNL1        0.0322
     53 H          -2.3835    0.6270    1.3836 H       1  UNL1        0.0335
     54 H          -4.1205    0.8308    1.6072 H       1  UNL1        0.0335
     55 H          -2.5434    1.9966   -1.9457 H       1  UNL1        0.0257
     56 H          -1.5183    2.9528   -0.7969 H       1  UNL1        0.0257
     57 H          -1.4646    1.1335   -0.7081 H       1  UNL1        0.0257
     58 H          -2.0309    2.7750    1.7303 H       1  UNL1        0.0257
     59 H          -3.7644    3.2166    1.7816 H       1  UNL1        0.0257
     60 H          -2.7218    4.0722    0.6238 H       1  UNL1        0.0257
     61 H          -4.3186    2.8658   -1.3888 H       1  UNL1        0.2101
     62 H          -4.3516    0.5311   -2.2930 H       1  UNL1        0.0622
     63 H          -6.6234    0.6290   -3.2807 H       1  UNL1        0.0618
     64 H          -8.5454   -0.4016   -2.1008 H       1  UNL1        0.0618
     65 H          -8.1381   -1.4945    0.0654 H       1  UNL1        0.0618
     66 H          -5.8960   -1.5837    1.0663 H       1  UNL1        0.0622
     67 H           2.0414   -2.8424    2.2561 H       1  UNL1        0.0621
     68 H           4.0818   -1.3816    2.0161 H       1  UNL1        0.0624
     69 H           4.8524    0.5114    2.2407 H       1  UNL1        0.0678
@<TRIPOS>BOND
     1     1     2    1
     2     2     3    1
     3     3     4   ar
     4     4     5   ar
     5     5     6   ar
     6     6     7    1
     7     7     8   ar
     8     8     9   ar
     9     9    10   ar
    10    10    11    1
    11    11    12    1
    12    11    13    1
    13    13    14    1
    14    14    15    1
    15    15    16    1
    16    16    17    1
    17    17    18    1
    18    18    19    1
    19    18    20    1
    20    18    21    1
    21    16    22    1
    22    22    23   ar
    23    23    24   ar
    24    24    25   ar
    25    25    26   ar
    26    26    27   ar
    27    16    28    1
    28    28    29    1
    29    29    30    2
    30    10    31   ar
    31    31    32   ar
    32     6    33   ar
    33    33    34   ar
    34    34    35    2
    35    34     3   ar
    36    32     7   ar
    37    29    13   am
    38    27    22   ar
    39     1    36    1
    40     1    37    1
    41     1    38    1
    42     2    39    1
    43     2    40    1
    44     4    41    1
    45     5    42    1
    46     8    43    1
    47     9    44    1
    48    11    45    1
    49    12    46    1
    50    12    47    1
    51    12    48    1
    52    14    49    1
    53    14    50    1
    54    15    51    1
    55    15    52    1
    56    17    53    1
    57    17    54    1
    58    19    55    1
    59    19    56    1
    60    19    57    1
    61    20    58    1
    62    20    59    1
    63    20    60    1
    64    21    61    1
    65    23    62    1
    66    24    63    1
    67    25    64    1
    68    26    65    1
    69    27    66    1
    70    31    67    1
    71    32    68    1
    72    33    69    1
