@<TRIPOS>MOLECULE
*****
 92 96 0 0 0
SMALL
GASTEIGER

@<TRIPOS>ATOM
      1 C          -0.8629   -4.2188   -0.5807 C.3     1  UNL1       -0.0442
      2 C          -1.6967   -3.7477    0.6135 C.3     1  UNL1        0.0262
      3 C          -2.9289   -4.6066    0.7500 C.3     1  UNL1       -0.0442
      4 C          -0.8479   -3.9618    1.8698 C.3     1  UNL1       -0.0442
      5 N          -2.0158   -2.3379    0.4700 N.am    1  UNL1       -0.3092
      6 C          -2.7839   -1.6411    1.4134 C.2     1  UNL1        0.2319
      7 O          -3.2188   -2.2636    2.4247 O.2     1  UNL1       -0.2740
      8 C          -3.0902   -0.2015    1.2404 C.3     1  UNL1        0.1002
      9 C          -4.5657   -0.1068    0.9770 C.3     1  UNL1        0.0234
     10 N          -4.9084    1.2555    0.7187 N.3     1  UNL1       -0.2950
     11 C          -4.9390    2.0832    1.8771 C.3     1  UNL1        0.0256
     12 C          -5.2817    3.4974    1.5979 C.ar    1  UNL1       -0.0153
     13 C          -6.5965    3.9468    1.5908 C.ar    1  UNL1       -0.0545
     14 C          -6.9006    5.2634    1.3366 C.ar    1  UNL1       -0.0433
     15 C          -5.8739    6.1636    1.0815 C.ar    1  UNL1        0.0276
     16 N          -4.6068    5.7386    1.0866 N.ar    1  UNL1       -0.2629
     17 C          -4.3161    4.4538    1.3350 C.ar    1  UNL1        0.0320
     18 C          -4.2078    1.7581   -0.4121 C.3     1  UNL1        0.0121
     19 C          -2.7550    1.5355   -0.4251 C.3     1  UNL1        0.0125
     20 N          -2.2592    0.3122    0.1580 N.3     1  UNL1       -0.2868
     21 C          -0.9859    0.6006    0.8253 C.3     1  UNL1        0.0258
     22 C           0.1282    0.9823   -0.0655 C.3     1  UNL1        0.0686
     23 O           1.2458    1.2267    0.7799 O.3     1  UNL1       -0.3905
     24 C           0.5061   -0.0833   -1.0047 C.3     1  UNL1       -0.0142
     25 C           1.6519    0.2635   -1.9330 C.3     1  UNL1        0.0419
     26 C           1.3671    1.4256   -2.8044 C.3     1  UNL1       -0.0165
     27 C           2.4572    1.8117   -3.7283 C.ar    1  UNL1       -0.0466
     28 C           3.3642    2.8256   -3.4981 C.ar    1  UNL1       -0.0586
     29 C           4.3853    3.1465   -4.3692 C.ar    1  UNL1       -0.0615
     30 C           4.5306    2.4333   -5.5405 C.ar    1  UNL1       -0.0617
     31 C           3.6494    1.4097   -5.8194 C.ar    1  UNL1       -0.0615
     32 C           2.6502    1.1188   -4.9341 C.ar    1  UNL1       -0.0586
     33 C           2.9433    0.2965   -1.2233 C.2     1  UNL1        0.2170
     34 O           3.7371    1.2600   -1.1610 O.2     1  UNL1       -0.2755
     35 N           3.4096   -0.8719   -0.4972 N.am    1  UNL1       -0.3057
     36 C           4.6513   -0.8910    0.2053 C.3     1  UNL1        0.0748
     37 C           4.4979   -1.1298    1.6565 C.ar    1  UNL1       -0.0215
     38 C           4.0941   -0.3328    2.6952 C.ar    1  UNL1       -0.0565
     39 C           4.0374   -0.8215    4.0074 C.ar    1  UNL1       -0.0614
     40 C           4.3925   -2.1276    4.2714 C.ar    1  UNL1       -0.0615
     41 C           4.7989   -2.9319    3.2315 C.ar    1  UNL1       -0.0582
     42 C           4.8511   -2.4324    1.9272 C.ar    1  UNL1       -0.0398
     43 C           5.2565   -3.1312    0.6921 C.3     1  UNL1        0.0008
     44 C           5.5102   -2.0303   -0.2887 C.3     1  UNL1        0.0816
     45 O           5.1626   -2.4179   -1.5715 O.3     1  UNL1       -0.3893
     46 H          -0.1225   -4.9787   -0.2850 H       1  UNL1        0.0250
     47 H          -1.5459   -4.6482   -1.3616 H       1  UNL1        0.0250
     48 H          -0.3528   -3.3502   -1.0221 H       1  UNL1        0.0250
     49 H          -2.8793   -5.4102   -0.0040 H       1  UNL1        0.0250
     50 H          -2.9662   -5.1035    1.7369 H       1  UNL1        0.0250
     51 H          -3.8461   -4.0189    0.5360 H       1  UNL1        0.0250
     52 H          -1.0299   -3.0775    2.5180 H       1  UNL1        0.0250
     53 H           0.2141   -4.0466    1.5639 H       1  UNL1        0.0250
     54 H          -1.1895   -4.8538    2.4138 H       1  UNL1        0.0250
     55 H          -1.6624   -1.8446   -0.3675 H       1  UNL1        0.1492
     56 H          -2.8871    0.3644    2.1735 H       1  UNL1        0.0571
     57 H          -4.9160   -0.7644    0.1562 H       1  UNL1        0.0447
     58 H          -5.0836   -0.4192    1.8989 H       1  UNL1        0.0447
     59 H          -3.9356    2.0894    2.3512 H       1  UNL1        0.0476
     60 H          -5.7146    1.6882    2.5761 H       1  UNL1        0.0476
     61 H          -7.4140    3.2474    1.7907 H       1  UNL1        0.0622
     62 H          -7.9026    5.6518    1.3214 H       1  UNL1        0.0633
     63 H          -6.1067    7.2097    0.8788 H       1  UNL1        0.0829
     64 H          -3.2727    4.1715    1.3260 H       1  UNL1        0.0833
     65 H          -4.6793    1.2908   -1.3241 H       1  UNL1        0.0439
     66 H          -4.4253    2.8402   -0.5151 H       1  UNL1        0.0439
     67 H          -2.2542    2.4034    0.0794 H       1  UNL1        0.0439
     68 H          -2.4307    1.4988   -1.5089 H       1  UNL1        0.0439
     69 H          -1.1448    1.3401    1.6496 H       1  UNL1        0.0452
     70 H          -0.7267   -0.3544    1.3645 H       1  UNL1        0.0452
     71 H          -0.0937    1.9652   -0.5161 H       1  UNL1        0.0606
     72 H           0.9071    1.8899    1.4380 H       1  UNL1        0.2098
     73 H           0.7955   -0.9938   -0.4528 H       1  UNL1        0.0298
     74 H          -0.3538   -0.3833   -1.6737 H       1  UNL1        0.0298
     75 H           1.7205   -0.6378   -2.6193 H       1  UNL1        0.0398
     76 H           0.9969    2.3266   -2.2238 H       1  UNL1        0.0320
     77 H           0.4848    1.2268   -3.4882 H       1  UNL1        0.0320
     78 H           3.2706    3.4197   -2.6033 H       1  UNL1        0.0620
     79 H           5.0607    3.9421   -4.1390 H       1  UNL1        0.0618
     80 H           5.3431    2.6959   -6.2238 H       1  UNL1        0.0618
     81 H           3.7892    0.8661   -6.7502 H       1  UNL1        0.0618
     82 H           1.9750    0.3124   -5.1781 H       1  UNL1        0.0620
     83 H           2.8055   -1.7103   -0.5006 H       1  UNL1        0.1494
     84 H           5.1918    0.0581   -0.0050 H       1  UNL1        0.0574
     85 H           3.8068    0.7012    2.5254 H       1  UNL1        0.0621
     86 H           3.7208   -0.1906    4.8077 H       1  UNL1        0.0618
     87 H           4.3527   -2.5247    5.3004 H       1  UNL1        0.0618
     88 H           5.0714   -3.9510    3.4640 H       1  UNL1        0.0620
     89 H           4.4974   -3.8576    0.3426 H       1  UNL1        0.0339
     90 H           6.2068   -3.7043    0.8366 H       1  UNL1        0.0339
     91 H           6.5780   -1.7370   -0.2068 H       1  UNL1        0.0618
     92 H           4.5109   -3.1605   -1.5161 H       1  UNL1        0.2099
@<TRIPOS>BOND
     1     1     2    1
     2     2     3    1
     3     2     4    1
     4     2     5    1
     5     5     6   am
     6     6     7    2
     7     6     8    1
     8     8     9    1
     9     9    10    1
    10    10    11    1
    11    11    12    1
    12    12    13   ar
    13    13    14   ar
    14    14    15   ar
    15    15    16   ar
    16    16    17   ar
    17    10    18    1
    18    18    19    1
    19    19    20    1
    20    20    21    1
    21    21    22    1
    22    22    23    1
    23    22    24    1
    24    24    25    1
    25    25    26    1
    26    26    27    1
    27    27    28   ar
    28    28    29   ar
    29    29    30   ar
    30    30    31   ar
    31    31    32   ar
    32    25    33    1
    33    33    34    2
    34    33    35   am
    35    35    36    1
    36    36    37    1
    37    37    38   ar
    38    38    39   ar
    39    39    40   ar
    40    40    41   ar
    41    41    42   ar
    42    42    43    1
    43    43    44    1
    44    44    45    1
    45    20     8    1
    46    32    27   ar
    47    44    36    1
    48    17    12   ar
    49    42    37   ar
    50     1    46    1
    51     1    47    1
    52     1    48    1
    53     3    49    1
    54     3    50    1
    55     3    51    1
    56     4    52    1
    57     4    53    1
    58     4    54    1
    59     5    55    1
    60     8    56    1
    61     9    57    1
    62     9    58    1
    63    11    59    1
    64    11    60    1
    65    13    61    1
    66    14    62    1
    67    15    63    1
    68    17    64    1
    69    18    65    1
    70    18    66    1
    71    19    67    1
    72    19    68    1
    73    21    69    1
    74    21    70    1
    75    22    71    1
    76    23    72    1
    77    24    73    1
    78    24    74    1
    79    25    75    1
    80    26    76    1
    81    26    77    1
    82    28    78    1
    83    29    79    1
    84    30    80    1
    85    31    81    1
    86    32    82    1
    87    35    83    1
    88    36    84    1
    89    38    85    1
    90    39    86    1
    91    40    87    1
    92    41    88    1
    93    43    89    1
    94    43    90    1
    95    44    91    1
    96    45    92    1
