
     RDKit          3D

 92 96  0  0  0  0  0  0  0  0999 V2000
   -0.8629   -4.2188   -0.5807 C   0  0  0  0  0  0  0  0  0  0  0  0
   -1.6967   -3.7477    0.6135 C   0  0  0  0  0  0  0  0  0  0  0  0
   -2.9289   -4.6066    0.7500 C   0  0  0  0  0  0  0  0  0  0  0  0
   -0.8479   -3.9618    1.8698 C   0  0  0  0  0  0  0  0  0  0  0  0
   -2.0158   -2.3379    0.4700 N   0  0  0  0  0  0  0  0  0  0  0  0
   -2.7839   -1.6411    1.4134 C   0  0  0  0  0  0  0  0  0  0  0  0
   -3.2188   -2.2636    2.4247 O   0  0  0  0  0  0  0  0  0  0  0  0
   -3.0902   -0.2015    1.2404 C   0  0  2  0  0  0  0  0  0  0  0  0
   -4.5657   -0.1068    0.9770 C   0  0  0  0  0  0  0  0  0  0  0  0
   -4.9084    1.2555    0.7187 N   0  0  0  0  0  0  0  0  0  0  0  0
   -4.9390    2.0832    1.8771 C   0  0  0  0  0  0  0  0  0  0  0  0
   -5.2817    3.4974    1.5979 C   0  0  0  0  0  0  0  0  0  0  0  0
   -6.5965    3.9468    1.5908 C   0  0  0  0  0  0  0  0  0  0  0  0
   -6.9006    5.2634    1.3366 C   0  0  0  0  0  0  0  0  0  0  0  0
   -5.8739    6.1636    1.0815 C   0  0  0  0  0  0  0  0  0  0  0  0
   -4.6068    5.7386    1.0866 N   0  0  0  0  0  0  0  0  0  0  0  0
   -4.3161    4.4538    1.3350 C   0  0  0  0  0  0  0  0  0  0  0  0
   -4.2078    1.7581   -0.4121 C   0  0  0  0  0  0  0  0  0  0  0  0
   -2.7550    1.5355   -0.4251 C   0  0  0  0  0  0  0  0  0  0  0  0
   -2.2592    0.3122    0.1580 N   0  0  0  0  0  0  0  0  0  0  0  0
   -0.9859    0.6006    0.8253 C   0  0  0  0  0  0  0  0  0  0  0  0
    0.1282    0.9823   -0.0655 C   0  0  1  0  0  0  0  0  0  0  0  0
    1.2458    1.2267    0.7799 O   0  0  0  0  0  0  0  0  0  0  0  0
    0.5061   -0.0833   -1.0047 C   0  0  0  0  0  0  0  0  0  0  0  0
    1.6519    0.2635   -1.9330 C   0  0  1  0  0  0  0  0  0  0  0  0
    1.3671    1.4256   -2.8044 C   0  0  0  0  0  0  0  0  0  0  0  0
    2.4572    1.8117   -3.7283 C   0  0  0  0  0  0  0  0  0  0  0  0
    3.3642    2.8256   -3.4981 C   0  0  0  0  0  0  0  0  0  0  0  0
    4.3853    3.1465   -4.3692 C   0  0  0  0  0  0  0  0  0  0  0  0
    4.5306    2.4333   -5.5405 C   0  0  0  0  0  0  0  0  0  0  0  0
    3.6494    1.4097   -5.8194 C   0  0  0  0  0  0  0  0  0  0  0  0
    2.6502    1.1188   -4.9341 C   0  0  0  0  0  0  0  0  0  0  0  0
    2.9433    0.2965   -1.2233 C   0  0  0  0  0  0  0  0  0  0  0  0
    3.7371    1.2600   -1.1610 O   0  0  0  0  0  0  0  0  0  0  0  0
    3.4096   -0.8719   -0.4972 N   0  0  0  0  0  0  0  0  0  0  0  0
    4.6513   -0.8910    0.2053 C   0  0  1  0  0  0  0  0  0  0  0  0
    4.4979   -1.1298    1.6565 C   0  0  0  0  0  0  0  0  0  0  0  0
    4.0941   -0.3328    2.6952 C   0  0  0  0  0  0  0  0  0  0  0  0
    4.0374   -0.8215    4.0074 C   0  0  0  0  0  0  0  0  0  0  0  0
    4.3925   -2.1276    4.2714 C   0  0  0  0  0  0  0  0  0  0  0  0
    4.7989   -2.9319    3.2315 C   0  0  0  0  0  0  0  0  0  0  0  0
    4.8511   -2.4324    1.9272 C   0  0  0  0  0  0  0  0  0  0  0  0
    5.2565   -3.1312    0.6921 C   0  0  0  0  0  0  0  0  0  0  0  0
    5.5102   -2.0303   -0.2887 C   0  0  1  0  0  0  0  0  0  0  0  0
    5.1626   -2.4179   -1.5715 O   0  0  0  0  0  0  0  0  0  0  0  0
   -0.1225   -4.9787   -0.2850 H   0  0  0  0  0  0  0  0  0  0  0  0
   -1.5459   -4.6482   -1.3616 H   0  0  0  0  0  0  0  0  0  0  0  0
   -0.3528   -3.3502   -1.0221 H   0  0  0  0  0  0  0  0  0  0  0  0
   -2.8793   -5.4102   -0.0040 H   0  0  0  0  0  0  0  0  0  0  0  0
   -2.9662   -5.1035    1.7369 H   0  0  0  0  0  0  0  0  0  0  0  0
   -3.8461   -4.0189    0.5360 H   0  0  0  0  0  0  0  0  0  0  0  0
   -1.0299   -3.0775    2.5180 H   0  0  0  0  0  0  0  0  0  0  0  0
    0.2141   -4.0466    1.5639 H   0  0  0  0  0  0  0  0  0  0  0  0
   -1.1895   -4.8538    2.4138 H   0  0  0  0  0  0  0  0  0  0  0  0
   -1.6624   -1.8446   -0.3675 H   0  0  0  0  0  0  0  0  0  0  0  0
   -2.8871    0.3644    2.1735 H   0  0  0  0  0  0  0  0  0  0  0  0
   -4.9160   -0.7644    0.1562 H   0  0  0  0  0  0  0  0  0  0  0  0
   -5.0836   -0.4192    1.8989 H   0  0  0  0  0  0  0  0  0  0  0  0
   -3.9356    2.0894    2.3512 H   0  0  0  0  0  0  0  0  0  0  0  0
   -5.7146    1.6882    2.5761 H   0  0  0  0  0  0  0  0  0  0  0  0
   -7.4140    3.2474    1.7907 H   0  0  0  0  0  0  0  0  0  0  0  0
   -7.9026    5.6518    1.3214 H   0  0  0  0  0  0  0  0  0  0  0  0
   -6.1067    7.2097    0.8788 H   0  0  0  0  0  0  0  0  0  0  0  0
   -3.2727    4.1715    1.3260 H   0  0  0  0  0  0  0  0  0  0  0  0
   -4.6793    1.2908   -1.3241 H   0  0  0  0  0  0  0  0  0  0  0  0
   -4.4253    2.8402   -0.5151 H   0  0  0  0  0  0  0  0  0  0  0  0
   -2.2542    2.4034    0.0794 H   0  0  0  0  0  0  0  0  0  0  0  0
   -2.4307    1.4988   -1.5089 H   0  0  0  0  0  0  0  0  0  0  0  0
   -1.1448    1.3401    1.6496 H   0  0  0  0  0  0  0  0  0  0  0  0
   -0.7267   -0.3544    1.3645 H   0  0  0  0  0  0  0  0  0  0  0  0
   -0.0937    1.9652   -0.5161 H   0  0  0  0  0  0  0  0  0  0  0  0
    0.9071    1.8899    1.4380 H   0  0  0  0  0  0  0  0  0  0  0  0
    0.7955   -0.9938   -0.4528 H   0  0  0  0  0  0  0  0  0  0  0  0
   -0.3538   -0.3833   -1.6737 H   0  0  0  0  0  0  0  0  0  0  0  0
    1.7205   -0.6378   -2.6193 H   0  0  0  0  0  0  0  0  0  0  0  0
    0.9969    2.3266   -2.2238 H   0  0  0  0  0  0  0  0  0  0  0  0
    0.4848    1.2268   -3.4882 H   0  0  0  0  0  0  0  0  0  0  0  0
    3.2706    3.4197   -2.6033 H   0  0  0  0  0  0  0  0  0  0  0  0
    5.0607    3.9421   -4.1390 H   0  0  0  0  0  0  0  0  0  0  0  0
    5.3431    2.6959   -6.2238 H   0  0  0  0  0  0  0  0  0  0  0  0
    3.7892    0.8661   -6.7502 H   0  0  0  0  0  0  0  0  0  0  0  0
    1.9750    0.3124   -5.1781 H   0  0  0  0  0  0  0  0  0  0  0  0
    2.8055   -1.7103   -0.5006 H   0  0  0  0  0  0  0  0  0  0  0  0
    5.1918    0.0581   -0.0050 H   0  0  0  0  0  0  0  0  0  0  0  0
    3.8068    0.7012    2.5254 H   0  0  0  0  0  0  0  0  0  0  0  0
    3.7208   -0.1906    4.8077 H   0  0  0  0  0  0  0  0  0  0  0  0
    4.3527   -2.5247    5.3004 H   0  0  0  0  0  0  0  0  0  0  0  0
    5.0714   -3.9510    3.4640 H   0  0  0  0  0  0  0  0  0  0  0  0
    4.4974   -3.8576    0.3426 H   0  0  0  0  0  0  0  0  0  0  0  0
    6.2068   -3.7043    0.8366 H   0  0  0  0  0  0  0  0  0  0  0  0
    6.5780   -1.7370   -0.2068 H   0  0  0  0  0  0  0  0  0  0  0  0
    4.5109   -3.1605   -1.5161 H   0  0  0  0  0  0  0  0  0  0  0  0
  1  2  1  0
  2  3  1  0
  2  4  1  0
  2  5  1  0
  5  6  1  0
  6  7  2  0
  6  8  1  0
  8  9  1  0
  9 10  1  0
 10 11  1  0
 11 12  1  0
 12 13  2  0
 13 14  1  0
 14 15  2  0
 15 16  1  0
 16 17  2  0
 10 18  1  0
 18 19  1  0
 19 20  1  0
 20 21  1  0
 21 22  1  0
 22 23  1  0
 22 24  1  0
 24 25  1  0
 25 26  1  0
 26 27  1  0
 27 28  2  0
 28 29  1  0
 29 30  2  0
 30 31  1  0
 31 32  2  0
 25 33  1  0
 33 34  2  0
 33 35  1  0
 35 36  1  0
 36 37  1  0
 37 38  2  0
 38 39  1  0
 39 40  2  0
 40 41  1  0
 41 42  2  0
 42 43  1  0
 43 44  1  0
 44 45  1  0
 20  8  1  0
 32 27  1  0
 44 36  1  0
 17 12  1  0
 42 37  1  0
  1 46  1  0
  1 47  1  0
  1 48  1  0
  3 49  1  0
  3 50  1  0
  3 51  1  0
  4 52  1  0
  4 53  1  0
  4 54  1  0
  5 55  1  0
  8 56  1  1
  9 57  1  0
  9 58  1  0
 11 59  1  0
 11 60  1  0
 13 61  1  0
 14 62  1  0
 15 63  1  0
 17 64  1  0
 18 65  1  0
 18 66  1  0
 19 67  1  0
 19 68  1  0
 21 69  1  0
 21 70  1  0
 22 71  1  6
 23 72  1  0
 24 73  1  0
 24 74  1  0
 25 75  1  6
 26 76  1  0
 26 77  1  0
 28 78  1  0
 29 79  1  0
 30 80  1  0
 31 81  1  0
 32 82  1  0
 35 83  1  0
 36 84  1  1
 38 85  1  0
 39 86  1  0
 40 87  1  0
 41 88  1  0
 43 89  1  0
 43 90  1  0
 44 91  1  6
 45 92  1  0
M  END
$$$$
