@<TRIPOS>MOLECULE
*****
 29 29 0 0 0
SMALL
GASTEIGER

@<TRIPOS>ATOM
      1 C          -1.7600   -3.9019   -0.3359 C.3     1  UNL1       -0.0410
      2 C          -1.8601   -2.5924    0.4004 C.3     1  UNL1        0.0573
      3 O          -0.6147   -1.9703    0.3970 O.3     1  UNL1       -0.2773
      4 P          -0.6827   -0.4822    1.2208 P.3     1  UNL1        0.5343
      5 O          -1.2408   -0.8218    2.5907 O.2     1  UNL1       -0.2152
      6 O          -1.6924    0.5122    0.3457 O.3     1  UNL1       -0.2773
      7 C          -1.5801    1.8561    0.6342 C.3     1  UNL1        0.0573
      8 C          -2.4841    2.7351   -0.1503 C.3     1  UNL1       -0.0410
      9 O           0.8735    0.0767    1.4617 O.3     1  UNL1       -0.3842
     10 C           1.8546    0.4265    0.6065 C.ar    1  UNL1        0.2446
     11 N           3.0237    0.8474    1.1675 N.ar    1  UNL1       -0.1982
     12 C           4.0913    1.2286    0.4526 C.ar    1  UNL1        0.1513
     13 CL          5.5711    1.7616    1.2673 Cl      1  UNL1       -0.0603
     14 C           3.9950    1.1907   -0.9209 C.ar    1  UNL1        0.0793
     15 CL          5.3717    1.6822   -1.8834 Cl      1  UNL1       -0.0804
     16 C           2.8349    0.7730   -1.5211 C.ar    1  UNL1       -0.0169
     17 C           1.7458    0.3841   -0.7568 C.ar    1  UNL1        0.1042
     18 CL          0.2671   -0.1485   -1.5610 Cl      1  UNL1       -0.0780
     19 H          -0.7252   -4.1544   -0.6322 H       1  UNL1        0.0252
     20 H          -2.1391   -4.7268    0.3064 H       1  UNL1        0.0252
     21 H          -2.3925   -3.8975   -1.2614 H       1  UNL1        0.0252
     22 H          -2.6259   -1.9725   -0.1110 H       1  UNL1        0.0563
     23 H          -2.1591   -2.7820    1.4488 H       1  UNL1        0.0563
     24 H          -0.5283    2.1475    0.4269 H       1  UNL1        0.0563
     25 H          -1.7306    2.0671    1.7270 H       1  UNL1        0.0563
     26 H          -1.9532    3.6693   -0.4299 H       1  UNL1        0.0252
     27 H          -3.3561    3.0786    0.4770 H       1  UNL1        0.0252
     28 H          -2.8338    2.2812   -1.1027 H       1  UNL1        0.0252
     29 H           2.7298    0.7326   -2.5977 H       1  UNL1        0.0649
@<TRIPOS>BOND
     1     1     2    1
     2     2     3    1
     3     3     4    1
     4     4     5    2
     5     4     6    1
     6     6     7    1
     7     7     8    1
     8     4     9    1
     9     9    10    1
    10    10    11   ar
    11    11    12   ar
    12    12    13    1
    13    12    14   ar
    14    14    15    1
    15    14    16   ar
    16    16    17   ar
    17    17    18    1
    18    17    10   ar
    19     1    19    1
    20     1    20    1
    21     1    21    1
    22     2    22    1
    23     2    23    1
    24     7    24    1
    25     7    25    1
    26     8    26    1
    27     8    27    1
    28     8    28    1
    29    16    29    1
