@<TRIPOS>MOLECULE
*****
 30 31 0 0 0
SMALL
GASTEIGER

@<TRIPOS>ATOM
      1 C          -3.9294    1.3973    0.4075 C.3     1  UNL1       -0.0477
      2 C          -3.2193    0.6752   -0.7445 C.3     1  UNL1        0.0846
      3 C          -4.1319   -0.2413   -1.4242 C.2     1  UNL1        0.3124
      4 O          -4.6836   -1.2139   -0.5897 O.3     1  UNL1       -0.4802
      5 O          -4.4834   -0.2738   -2.6389 O.2     1  UNL1       -0.2503
      6 C          -2.0755   -0.0128   -0.1420 C.ar    1  UNL1        0.0039
      7 C          -1.9690   -1.0760    0.7760 C.ar    1  UNL1       -0.0501
      8 C          -0.7075   -1.4684    1.1247 C.ar    1  UNL1       -0.0435
      9 C           0.3714   -0.8146    0.5695 C.ar    1  UNL1        0.0597
     10 S          -0.3711    0.4117   -0.4943 S.2     1  UNL1       -0.0891
     11 C           1.7456   -1.0591    0.7988 C.2     1  UNL1        0.1997
     12 O           2.0389   -1.9604    1.6186 O.2     1  UNL1       -0.2861
     13 C           2.7993   -0.3194    0.1337 C.ar    1  UNL1        0.0228
     14 C           3.9801   -0.2675    0.8757 C.ar    1  UNL1       -0.0509
     15 C           5.1262    0.3918    0.4224 C.ar    1  UNL1       -0.0611
     16 C           5.0709    1.0100   -0.8086 C.ar    1  UNL1       -0.0617
     17 C           3.9199    0.9757   -1.5635 C.ar    1  UNL1       -0.0611
     18 C           2.8092    0.3159   -1.0840 C.ar    1  UNL1       -0.0509
     19 H          -4.7201    2.0354   -0.0212 H       1  UNL1        0.0241
     20 H          -3.1861    2.0550    0.9193 H       1  UNL1        0.0241
     21 H          -4.3248    0.6629    1.1218 H       1  UNL1        0.0241
     22 H          -2.9053    1.4828   -1.4400 H       1  UNL1        0.0465
     23 H          -5.3850   -1.8725   -0.9601 H       1  UNL1        0.2951
     24 H          -2.9201   -1.4628    1.1020 H       1  UNL1        0.0626
     25 H          -0.6061   -2.2888    1.8335 H       1  UNL1        0.0630
     26 H           4.1048   -0.7330    1.8613 H       1  UNL1        0.0625
     27 H           6.0323    0.4208    1.0132 H       1  UNL1        0.0618
     28 H           5.9191    1.5448   -1.2336 H       1  UNL1        0.0618
     29 H           3.8240    1.4401   -2.5275 H       1  UNL1        0.0618
     30 H           1.8763    0.2449   -1.6202 H       1  UNL1        0.0625
@<TRIPOS>BOND
     1     1     2    1
     2     2     3    1
     3     3     4    1
     4     3     5    2
     5     2     6    1
     6     6     7   ar
     7     7     8   ar
     8     8     9   ar
     9     9    10   ar
    10     9    11    1
    11    11    12    2
    12    11    13    1
    13    13    14   ar
    14    14    15   ar
    15    15    16   ar
    16    16    17   ar
    17    17    18   ar
    18    10     6   ar
    19    18    13   ar
    20     1    19    1
    21     1    20    1
    22     1    21    1
    23     2    22    1
    24     4    23    1
    25     7    24    1
    26     8    25    1
    27    14    26    1
    28    15    27    1
    29    16    28    1
    30    17    29    1
    31    18    30    1
