@<TRIPOS>MOLECULE
*****
 46 49 0 0 0
SMALL
GASTEIGER

@<TRIPOS>ATOM
      1 N          -3.9848    2.3094   -0.8354 N.pl3   1  UNL1       -0.3413
      2 C          -3.7652    2.1974    0.5618 C.ar    1  UNL1        0.1457
      3 N          -3.8386    3.1836    1.4744 N.ar    1  UNL1       -0.1586
      4 N          -3.5669    2.6869    2.6818 N.ar    1  UNL1       -0.2824
      5 C          -3.3095    1.3602    2.5806 C.ar    1  UNL1        0.0320
      6 C          -3.4307    1.0344    1.2459 C.ar    1  UNL1        0.0443
      7 C          -3.2533   -0.2655    0.6148 C.ar    1  UNL1        0.0297
      8 C          -4.2793   -1.1699    0.4440 C.ar    1  UNL1       -0.0387
      9 C          -4.0805   -2.3915   -0.1567 C.ar    1  UNL1        0.0556
     10 C          -5.2236   -3.3391   -0.3194 C.3     1  UNL1        0.4174
     11 F          -6.3654   -2.7827    0.1747 F       1  UNL1       -0.1659
     12 F          -5.3503   -3.5529   -1.6879 F       1  UNL1       -0.1659
     13 F          -4.9355   -4.5535    0.2720 F       1  UNL1       -0.1659
     14 C          -2.8282   -2.7324   -0.6041 C.ar    1  UNL1       -0.0466
     15 C          -1.7901   -1.8258   -0.4354 C.ar    1  UNL1       -0.0182
     16 C          -1.9853   -0.5982    0.1678 C.ar    1  UNL1        0.1364
     17 O          -0.9698    0.3209    0.3507 O.3     1  UNL1       -0.4539
     18 C           0.3460    0.0734   -0.0001 C.ar    1  UNL1        0.1495
     19 C           0.9809    0.8357   -0.9883 C.ar    1  UNL1        0.0193
     20 C           2.2870    0.6066   -1.3500 C.ar    1  UNL1        0.1535
     21 F           2.8853    1.3610   -2.3147 F       1  UNL1       -0.2033
     22 C           3.0172   -0.4095   -0.7266 C.ar    1  UNL1        0.1451
     23 S           4.6625   -0.7254   -1.1867 S.O2    1  UNL1        0.0763
     24 O           5.1943   -1.8224   -0.2665 O.2     1  UNL1       -0.1498
     25 O           4.7422   -1.2790   -2.5897 O.2     1  UNL1       -0.1498
     26 N           5.7009    0.6202   -1.0145 N.pl3   1  UNL1       -0.1989
     27 C           5.9318    1.2098    0.2436 C.ar    1  UNL1        0.1449
     28 C           5.3255    0.6874    1.4242 C.ar    1  UNL1        0.0183
     29 S           5.9820    1.8098    2.6998 S.2     1  UNL1       -0.0819
     30 C           6.9763    2.8133    1.4395 C.ar    1  UNL1        0.0669
     31 N           6.6925    2.2356    0.4634 N.ar    1  UNL1       -0.2315
     32 C           2.4236   -1.1733    0.2454 C.ar    1  UNL1       -0.0103
     33 C           1.1101   -0.9237    0.5920 C.ar    1  UNL1        0.0852
     34 CL          0.3726   -1.8887    1.8628 Cl      1  UNL1       -0.0797
     35 H          -3.8598    3.1979   -1.3523 H       1  UNL1        0.1438
     36 H          -4.2834    1.4705   -1.3685 H       1  UNL1        0.1438
     37 H          -3.5536    3.2324    3.5692 H       1  UNL1        0.1883
     38 H          -3.0534    0.6683    3.3930 H       1  UNL1        0.0830
     39 H          -5.2719   -0.8695    0.8120 H       1  UNL1        0.0630
     40 H          -2.6308   -3.6843   -1.0820 H       1  UNL1        0.0624
     41 H          -0.7929   -2.1085   -0.8123 H       1  UNL1        0.0655
     42 H           0.3929    1.6299   -1.4680 H       1  UNL1        0.0684
     43 H           6.1573    0.9892   -1.8762 H       1  UNL1        0.1753
     44 H           4.6891   -0.1022    1.5826 H       1  UNL1        0.0729
     45 H           7.5628    3.6438    1.7902 H       1  UNL1        0.0908
     46 H           2.9699   -1.9795    0.7546 H       1  UNL1        0.0654
@<TRIPOS>BOND
     1     1     2    1
     2     2     3   ar
     3     3     4   ar
     4     4     5   ar
     5     5     6   ar
     6     6     7    1
     7     7     8   ar
     8     8     9   ar
     9     9    10    1
    10    10    11    1
    11    10    12    1
    12    10    13    1
    13     9    14   ar
    14    14    15   ar
    15    15    16   ar
    16    16    17    1
    17    17    18    1
    18    18    19   ar
    19    19    20   ar
    20    20    21    1
    21    20    22   ar
    22    22    23    1
    23    23    24    2
    24    23    25    2
    25    23    26    1
    26    26    27    1
    27    27    28   ar
    28    28    29   ar
    29    29    30   ar
    30    30    31   ar
    31    22    32   ar
    32    32    33   ar
    33    33    34    1
    34     6     2   ar
    35    16     7   ar
    36    33    18   ar
    37    31    27   ar
    38     1    35    1
    39     1    36    1
    40     4    37    1
    41     5    38    1
    42     8    39    1
    43    14    40    1
    44    15    41    1
    45    19    42    1
    46    26    43    1
    47    28    44    1
    48    30    45    1
    49    32    46    1
