@<TRIPOS>MOLECULE
*****
 39 40 0 0 0
SMALL
GASTEIGER

@<TRIPOS>ATOM
      1 C           1.3108    2.4557   -1.1792 C.3     1  UNL1       -0.0155
      2 N           0.0396    1.9136   -1.5142 N.3     1  UNL1       -0.3157
      3 C          -0.7393    1.3514   -0.4786 C.3     1  UNL1        0.0141
      4 C          -0.8348    2.2992    0.6896 C.3     1  UNL1       -0.0489
      5 C          -0.4805   -0.0686   -0.1436 C.3     1  UNL1        0.0109
      6 C           0.9248   -0.2714    0.2781 C.ar    1  UNL1       -0.0383
      7 C           1.3061   -0.2267    1.6064 C.ar    1  UNL1       -0.0565
      8 C           2.6172   -0.4252    1.9621 C.ar    1  UNL1       -0.0417
      9 C           3.5834   -0.6719    1.0210 C.ar    1  UNL1        0.0593
     10 CL          5.2649   -0.9263    1.4842 Cl      1  UNL1       -0.0820
     11 C           3.2335   -0.7218   -0.3091 C.ar    1  UNL1        0.0595
     12 CL          4.4491   -1.0353   -1.5281 Cl      1  UNL1       -0.0820
     13 C           1.8909   -0.5172   -0.6600 C.ar    1  UNL1       -0.0382
     14 C          -0.8251   -1.0588   -1.2147 C.3     1  UNL1       -0.0419
     15 C          -1.3278   -2.3806   -0.6068 C.3     1  UNL1       -0.0522
     16 C          -2.6920   -2.2137   -0.0058 C.3     1  UNL1       -0.0530
     17 C          -2.7561   -0.7433    0.4425 C.3     1  UNL1       -0.0522
     18 C          -1.4113   -0.4275    1.0334 C.3     1  UNL1       -0.0419
     19 H           1.3611    3.5707   -1.3565 H       1  UNL1        0.0388
     20 H           1.6352    2.2678   -0.1312 H       1  UNL1        0.0388
     21 H           2.0672    2.0509   -1.8821 H       1  UNL1        0.0388
     22 H          -0.4556    2.5441   -2.1723 H       1  UNL1        0.1219
     23 H          -1.8130    1.3439   -0.9108 H       1  UNL1        0.0466
     24 H          -0.7279    3.3358    0.2514 H       1  UNL1        0.0245
     25 H          -0.0635    2.1018    1.4471 H       1  UNL1        0.0245
     26 H          -1.8148    2.2987    1.1843 H       1  UNL1        0.0245
     27 H           0.5595   -0.0355    2.3417 H       1  UNL1        0.0621
     28 H           2.9375   -0.3944    2.9977 H       1  UNL1        0.0633
     29 H           1.7295   -0.5631   -1.7350 H       1  UNL1        0.0635
     30 H           0.0006   -1.3634   -1.8758 H       1  UNL1        0.0274
     31 H          -1.6179   -0.6422   -1.8747 H       1  UNL1        0.0274
     32 H          -1.3762   -3.0978   -1.4601 H       1  UNL1        0.0266
     33 H          -0.6087   -2.7194    0.1431 H       1  UNL1        0.0266
     34 H          -2.8820   -2.8913    0.8435 H       1  UNL1        0.0265
     35 H          -3.4843   -2.3824   -0.7620 H       1  UNL1        0.0265
     36 H          -3.5547   -0.6180    1.2125 H       1  UNL1        0.0266
     37 H          -3.0005   -0.1982   -0.4887 H       1  UNL1        0.0266
     38 H          -1.4275    0.3859    1.7760 H       1  UNL1        0.0274
     39 H          -1.0175   -1.3256    1.5745 H       1  UNL1        0.0274
@<TRIPOS>BOND
     1     1     2    1
     2     2     3    1
     3     3     4    1
     4     3     5    1
     5     5     6    1
     6     6     7   ar
     7     7     8   ar
     8     8     9   ar
     9     9    10    1
    10     9    11   ar
    11    11    12    1
    12    11    13   ar
    13     5    14    1
    14    14    15    1
    15    15    16    1
    16    16    17    1
    17    17    18    1
    18    18     5    1
    19    13     6   ar
    20     1    19    1
    21     1    20    1
    22     1    21    1
    23     2    22    1
    24     3    23    1
    25     4    24    1
    26     4    25    1
    27     4    26    1
    28     7    27    1
    29     8    28    1
    30    13    29    1
    31    14    30    1
    32    14    31    1
    33    15    32    1
    34    15    33    1
    35    16    34    1
    36    16    35    1
    37    17    36    1
    38    17    37    1
    39    18    38    1
    40    18    39    1
