
     RDKit          3D

 40 43  0  0  0  0  0  0  0  0999 V2000
   -3.6689    1.3706   -1.1612 C   0  0  0  0  0  0  0  0  0  0  0  0
   -2.6518    1.3852   -0.1353 N   0  0  0  0  0  0  0  0  0  0  0  0
   -2.8344    0.3384    0.8088 C   0  0  0  0  0  0  0  0  0  0  0  0
   -2.0762   -0.9544    0.4492 C   0  0  0  0  0  0  0  0  0  0  0  0
   -0.6975   -0.5465    0.2720 N   0  0  0  0  0  0  0  0  0  0  0  0
   -0.4255    0.8461    0.3959 C   0  0  0  0  0  0  0  0  0  0  0  0
   -1.3223    1.5077   -0.6647 C   0  0  0  0  0  0  0  0  0  0  0  0
    0.9544    1.2817    0.2850 C   0  0  0  0  0  0  0  0  0  0  0  0
    0.9000    2.6670    0.4915 C   0  0  0  0  0  0  0  0  0  0  0  0
    2.0520    3.4623    0.4613 C   0  0  0  0  0  0  0  0  0  0  0  0
    3.2774    2.8785    0.2232 C   0  0  0  0  0  0  0  0  0  0  0  0
    3.3643    1.5123    0.0155 C   0  0  0  0  0  0  0  0  0  0  0  0
    2.2052    0.7631    0.0532 C   0  0  0  0  0  0  0  0  0  0  0  0
    2.5441   -0.6296   -0.1896 C   0  0  0  0  0  0  0  0  0  0  0  0
    1.4622   -1.6023   -0.1768 C   0  0  0  0  0  0  0  0  0  0  0  0
    2.1291   -2.8067   -0.4399 C   0  0  0  0  0  0  0  0  0  0  0  0
    1.4701   -4.0407   -0.5234 C   0  0  0  0  0  0  0  0  0  0  0  0
    0.1024   -4.0694   -0.3379 C   0  0  0  0  0  0  0  0  0  0  0  0
   -0.5272   -2.8698   -0.0807 C   0  0  0  0  0  0  0  0  0  0  0  0
    0.1181   -1.6555    0.0020 C   0  0  0  0  0  0  0  0  0  0  0  0
   -3.5664    2.2027   -1.8609 H   0  0  0  0  0  0  0  0  0  0  0  0
   -3.6400    0.3897   -1.6640 H   0  0  0  0  0  0  0  0  0  0  0  0
   -4.6430    1.4131   -0.6308 H   0  0  0  0  0  0  0  0  0  0  0  0
   -3.9220    0.0200    0.7842 H   0  0  0  0  0  0  0  0  0  0  0  0
   -2.6764    0.6338    1.8573 H   0  0  0  0  0  0  0  0  0  0  0  0
   -2.2626   -1.5632    1.3539 H   0  0  0  0  0  0  0  0  0  0  0  0
   -2.5887   -1.2740   -0.4681 H   0  0  0  0  0  0  0  0  0  0  0  0
   -0.7809    1.1698    1.4185 H   0  0  0  0  0  0  0  0  0  0  0  0
   -1.0126    2.5145   -0.9264 H   0  0  0  0  0  0  0  0  0  0  0  0
   -1.2921    0.8501   -1.5779 H   0  0  0  0  0  0  0  0  0  0  0  0
   -0.0141    3.2499    0.6907 H   0  0  0  0  0  0  0  0  0  0  0  0
    2.0137    4.5301    0.6200 H   0  0  0  0  0  0  0  0  0  0  0  0
    4.1674    3.4883    0.1993 H   0  0  0  0  0  0  0  0  0  0  0  0
    4.3222    1.0457   -0.1721 H   0  0  0  0  0  0  0  0  0  0  0  0
    2.9951   -0.6764   -1.2265 H   0  0  0  0  0  0  0  0  0  0  0  0
    3.3915   -0.9963    0.4587 H   0  0  0  0  0  0  0  0  0  0  0  0
    3.1999   -2.9354   -0.6066 H   0  0  0  0  0  0  0  0  0  0  0  0
    1.9579   -4.9750   -0.7234 H   0  0  0  0  0  0  0  0  0  0  0  0
   -0.4358   -5.0062   -0.3961 H   0  0  0  0  0  0  0  0  0  0  0  0
   -1.5886   -2.9193    0.0588 H   0  0  0  0  0  0  0  0  0  0  0  0
  1  2  1  0
  2  3  1  0
  3  4  1  0
  4  5  1  0
  5  6  1  0
  6  7  1  0
  6  8  1  0
  8  9  2  0
  9 10  1  0
 10 11  2  0
 11 12  1  0
 12 13  2  0
 13 14  1  0
 14 15  1  0
 15 16  2  0
 16 17  1  0
 17 18  2  0
 18 19  1  0
 19 20  2  0
  7  2  1  0
 13  8  1  0
 20 15  1  0
 20  5  1  0
  1 21  1  0
  1 22  1  0
  1 23  1  0
  3 24  1  0
  3 25  1  0
  4 26  1  0
  4 27  1  0
  6 28  1  0
  7 29  1  0
  7 30  1  0
  9 31  1  0
 10 32  1  0
 11 33  1  0
 12 34  1  0
 14 35  1  0
 14 36  1  0
 16 37  1  0
 17 38  1  0
 18 39  1  0
 19 40  1  0
M  END
$$$$
