@<TRIPOS>MOLECULE
*****
 43 47 0 0 0
SMALL
GASTEIGER

@<TRIPOS>ATOM
      1 C           6.5442   -1.1811   -0.3181 C.3     1  UNL1        0.0790
      2 O           6.5908    0.2010   -0.6400 O.3     1  UNL1       -0.4914
      3 C           5.4039    0.9104   -0.7489 C.ar    1  UNL1        0.1618
      4 C           4.1558    0.3457   -0.5595 C.ar    1  UNL1       -0.0086
      5 C           2.9991    1.1009   -0.6802 C.ar    1  UNL1       -0.0141
      6 C           1.6734    0.5235   -0.4851 C.ar    1  UNL1       -0.0157
      7 C           0.6115    1.2453    0.0147 C.ar    1  UNL1       -0.0533
      8 C          -0.6467    0.6683    0.1886 C.ar    1  UNL1       -0.0498
      9 C          -0.8688   -0.6440   -0.1342 C.ar    1  UNL1        0.0304
     10 C          -1.9896   -1.4677   -0.0708 C.ar    1  UNL1        0.1352
     11 C          -3.3196   -1.1108    0.3932 C.ar    1  UNL1        0.1600
     12 N          -3.7537    0.0641    0.8558 N.ar    1  UNL1       -0.2261
     13 C          -5.0605   -0.0135    1.1856 C.ar    1  UNL1        0.0895
     14 C          -5.9600    0.8963    1.6952 C.ar    1  UNL1       -0.0342
     15 C          -7.2592    0.5136    1.9327 C.ar    1  UNL1       -0.0596
     16 C          -7.6634   -0.7928    1.6579 C.ar    1  UNL1       -0.0597
     17 C          -6.7315   -1.6819    1.1456 C.ar    1  UNL1       -0.0362
     18 C          -5.4313   -1.3123    0.9039 C.ar    1  UNL1        0.0665
     19 N          -4.3597   -1.9630    0.4235 N.ar    1  UNL1       -0.3366
     20 N          -1.5756   -2.6742   -0.5364 N.ar    1  UNL1       -0.1696
     21 N          -0.3123   -2.6212   -0.8639 N.ar    1  UNL1       -0.2763
     22 C           0.1727   -1.3928   -0.6361 C.ar    1  UNL1        0.0670
     23 C           1.4292   -0.8069   -0.8069 C.ar    1  UNL1       -0.0286
     24 C           3.1610    2.4339   -0.9966 C.ar    1  UNL1       -0.0503
     25 C           4.3837    3.0351   -1.1932 C.ar    1  UNL1       -0.0159
     26 C           5.5192    2.2634   -1.0677 C.ar    1  UNL1        0.1585
     27 O           6.7344    2.8741   -1.2661 O.3     1  UNL1       -0.5033
     28 H           7.5176   -1.5621    0.0318 H       1  UNL1        0.0660
     29 H           5.8435   -1.2640    0.5525 H       1  UNL1        0.0660
     30 H           6.1417   -1.7236   -1.1918 H       1  UNL1        0.0660
     31 H           4.0826   -0.7006   -0.3135 H       1  UNL1        0.0661
     32 H           0.7868    2.2875    0.2704 H       1  UNL1        0.0624
     33 H          -1.4856    1.2410    0.5845 H       1  UNL1        0.0625
     34 H          -5.6425    1.9042    1.9065 H       1  UNL1        0.0639
     35 H          -7.9792    1.2255    2.3354 H       1  UNL1        0.0618
     36 H          -8.6902   -1.0538    1.8575 H       1  UNL1        0.0618
     37 H          -7.0398   -2.6853    0.9341 H       1  UNL1        0.0639
     38 H          -4.3774   -2.9815    0.1292 H       1  UNL1        0.1674
     39 H           0.2409   -3.4114   -1.2454 H       1  UNL1        0.1889
     40 H           2.2338   -1.3898   -1.1957 H       1  UNL1        0.0645
     41 H           2.2855    3.0653   -1.1022 H       1  UNL1        0.0625
     42 H           4.4648    4.1045   -1.4446 H       1  UNL1        0.0655
     43 H           7.1704    3.5307   -0.6498 H       1  UNL1        0.2923
@<TRIPOS>BOND
     1     1     2    1
     2     2     3    1
     3     3     4   ar
     4     4     5   ar
     5     5     6    1
     6     6     7   ar
     7     7     8   ar
     8     8     9   ar
     9     9    10   ar
    10    10    11    1
    11    11    12   ar
    12    12    13   ar
    13    13    14   ar
    14    14    15   ar
    15    15    16   ar
    16    16    17   ar
    17    17    18   ar
    18    18    19   ar
    19    10    20   ar
    20    20    21   ar
    21    21    22   ar
    22    22    23   ar
    23     5    24   ar
    24    24    25   ar
    25    25    26   ar
    26    26    27    1
    27    26     3   ar
    28    23     6   ar
    29    22     9   ar
    30    19    11   ar
    31    18    13   ar
    32     1    28    1
    33     1    29    1
    34     1    30    1
    35     4    31    1
    36     7    32    1
    37     8    33    1
    38    14    34    1
    39    15    35    1
    40    16    36    1
    41    17    37    1
    42    19    38    1
    43    21    39    1
    44    23    40    1
    45    24    41    1
    46    25    42    1
    47    27    43    1
