@<TRIPOS>MOLECULE
*****
 46 50 0 0 0
SMALL
GASTEIGER

@<TRIPOS>ATOM
      1 N          -6.5704    3.5735    2.6255 N.1     1  UNL1       -0.1908
      2 C          -5.9435    2.9209    1.9014 C.1     1  UNL1        0.1007
      3 C          -5.1529    2.1074    0.9974 C.ar    1  UNL1        0.0704
      4 C          -3.8000    2.2929    0.9357 C.ar    1  UNL1        0.0458
      5 N          -3.0932    1.5144    0.0861 N.ar    1  UNL1       -0.2503
      6 C          -3.6653    0.5749   -0.6905 C.ar    1  UNL1        0.1109
      7 C          -2.9425   -0.2235   -1.5512 C.ar    1  UNL1        0.1490
      8 N          -1.5562   -0.0291   -1.6714 N.pl3   1  UNL1       -0.2977
      9 C          -0.6313   -0.3816   -0.6823 C.ar    1  UNL1        0.0329
     10 C          -1.0139   -0.8719    0.5393 C.ar    1  UNL1       -0.0378
     11 C          -0.0481   -1.1678    1.4713 C.ar    1  UNL1       -0.0243
     12 C           1.3083   -0.9862    1.2148 C.ar    1  UNL1        0.1292
     13 F           2.2533   -1.2775    2.1389 F       1  UNL1       -0.2051
     14 C           1.6767   -0.4881   -0.0291 C.ar    1  UNL1        0.0228
     15 C           3.1630   -0.2727   -0.2143 C.3     1  UNL1        0.1603
     16 C           3.3537    0.3112   -1.6125 C.3     1  UNL1        0.2686
     17 F           2.9167   -0.5318   -2.5883 F       1  UNL1       -0.2062
     18 F           2.7814    1.5730   -1.6516 F       1  UNL1       -0.2062
     19 N           3.5534    0.6931    0.7390 N.2     1  UNL1       -0.2194
     20 C           4.5163    0.6860    1.5258 C.2     1  UNL1        0.2764
     21 N           4.7644    1.7817    2.4471 N.pl3   1  UNL1       -0.3134
     22 O           5.3705   -0.4097    1.5156 O.2     1  UNL1       -0.4622
     23 C           5.0030   -1.5801    0.8884 C.3     1  UNL1        0.1091
     24 C           5.2459   -1.7988   -0.5677 C.3     1  UNL1       -0.0064
     25 C           3.8887   -1.5719   -0.0794 C.3     1  UNL1        0.0344
     26 C           0.7385   -0.1880   -0.9687 C.ar    1  UNL1       -0.0321
     27 N          -3.5795   -1.1484   -2.2874 N.ar    1  UNL1       -0.2380
     28 C          -4.9045   -1.3443   -2.2335 C.ar    1  UNL1        0.0304
     29 C          -5.6582   -0.5627   -1.3858 C.ar    1  UNL1       -0.0342
     30 C          -5.0356    0.3823   -0.6291 C.ar    1  UNL1        0.0064
     31 C          -5.8063    1.1561    0.2259 C.ar    1  UNL1       -0.0335
     32 H          -3.3620    3.0416    1.5698 H       1  UNL1        0.0843
     33 H          -1.2382    0.4139   -2.5820 H       1  UNL1        0.1536
     34 H          -2.0742   -1.0368    0.7887 H       1  UNL1        0.0637
     35 H          -0.2961   -1.5627    2.4643 H       1  UNL1        0.0647
     36 H           4.4372    0.5107   -1.8082 H       1  UNL1        0.1047
     37 H           4.0366    2.4821    2.6078 H       1  UNL1        0.1466
     38 H           5.6879    1.8013    2.9103 H       1  UNL1        0.1466
     39 H           5.1030   -2.4766    1.5803 H       1  UNL1        0.0737
     40 H           5.8241   -1.0453   -1.1573 H       1  UNL1        0.0306
     41 H           5.5488   -2.8339   -0.8290 H       1  UNL1        0.0306
     42 H           3.2228   -2.4705   -0.0389 H       1  UNL1        0.0366
     43 H           1.0055    0.2086   -1.9371 H       1  UNL1        0.0640
     44 H          -5.4029   -2.0842   -2.8238 H       1  UNL1        0.0830
     45 H          -6.7400   -0.6950   -1.3147 H       1  UNL1        0.0639
     46 H          -6.8849    1.0134    0.2819 H       1  UNL1        0.0637
@<TRIPOS>BOND
     1     1     2    3
     2     2     3    1
     3     3     4   ar
     4     4     5   ar
     5     5     6   ar
     6     6     7   ar
     7     7     8    1
     8     8     9    1
     9     9    10   ar
    10    10    11   ar
    11    11    12   ar
    12    12    13    1
    13    12    14   ar
    14    14    15    1
    15    15    16    1
    16    16    17    1
    17    16    18    1
    18    15    19    1
    19    19    20    2
    20    20    21    1
    21    20    22    1
    22    22    23    1
    23    23    24    1
    24    24    25    1
    25    14    26   ar
    26     7    27   ar
    27    27    28   ar
    28    28    29   ar
    29    29    30   ar
    30    30    31   ar
    31    31     3   ar
    32    30     6   ar
    33    26     9   ar
    34    25    15    1
    35    25    23    1
    36     4    32    1
    37     8    33    1
    38    10    34    1
    39    11    35    1
    40    16    36    1
    41    21    37    1
    42    21    38    1
    43    23    39    1
    44    24    40    1
    45    24    41    1
    46    25    42    1
    47    26    43    1
    48    28    44    1
    49    29    45    1
    50    31    46    1
