@<TRIPOS>MOLECULE
*****
 33 35 0 0 0
SMALL
GASTEIGER

@<TRIPOS>ATOM
      1 O          -2.5125   -1.8640    2.2122 O.2     1  UNL1       -0.2872
      2 C          -2.4932   -0.9790    1.2279 C.2     1  UNL1        0.1875
      3 C          -1.1429   -0.6772    0.8534 C.2     1  UNL1       -0.0137
      4 C          -0.6393    0.0921   -0.0536 C.2     1  UNL1       -0.0509
      5 C           0.8133    0.2559   -0.2649 C.ar    1  UNL1       -0.0243
      6 C           1.2379    1.1223   -1.2838 C.ar    1  UNL1       -0.0540
      7 C           2.5635    1.3243   -1.5380 C.ar    1  UNL1       -0.0535
      8 C           3.5463    0.6947   -0.8151 C.ar    1  UNL1       -0.0178
      9 C           4.8801    0.8947   -1.0671 C.ar    1  UNL1       -0.0540
     10 C           5.7964    0.2226   -0.2938 C.ar    1  UNL1       -0.0612
     11 C           5.4134   -0.6386    0.7185 C.ar    1  UNL1       -0.0612
     12 C           4.0778   -0.8317    0.9624 C.ar    1  UNL1       -0.0540
     13 C           3.1186   -0.1676    0.1989 C.ar    1  UNL1       -0.0173
     14 C           1.7789   -0.3734    0.4578 C.ar    1  UNL1       -0.0469
     15 C          -3.7733   -0.5333    0.7667 C.ar    1  UNL1        0.0397
     16 C          -4.0508    0.4577   -0.1317 C.ar    1  UNL1       -0.0480
     17 C          -5.3584    0.7802   -0.5406 C.ar    1  UNL1       -0.0429
     18 C          -6.4266    0.0926   -0.0363 C.ar    1  UNL1        0.0276
     19 N          -6.1626   -0.8777    0.8442 N.ar    1  UNL1       -0.2626
     20 C          -4.9277   -1.1969    1.2426 C.ar    1  UNL1        0.0383
     21 H          -0.3256   -1.1976    1.4490 H       1  UNL1        0.0656
     22 H          -1.2766    0.6323   -0.7024 H       1  UNL1        0.0625
     23 H           0.5144    1.6360   -1.8746 H       1  UNL1        0.0624
     24 H           2.8574    2.0067   -2.3398 H       1  UNL1        0.0624
     25 H           5.1602    1.5655   -1.8553 H       1  UNL1        0.0624
     26 H           6.8481    0.3742   -0.4854 H       1  UNL1        0.0618
     27 H           6.1284   -1.1772    1.3385 H       1  UNL1        0.0618
     28 H           3.7716   -1.5018    1.7501 H       1  UNL1        0.0624
     29 H           1.5508   -1.0541    1.2569 H       1  UNL1        0.0629
     30 H          -3.2386    1.0361   -0.5333 H       1  UNL1        0.0626
     31 H          -5.5252    1.5689   -1.2515 H       1  UNL1        0.0633
     32 H          -7.4541    0.3103   -0.3268 H       1  UNL1        0.0829
     33 H          -4.7495   -1.9969    1.9630 H       1  UNL1        0.0837
@<TRIPOS>BOND
     1     1     2    2
     2     2     3    1
     3     3     4    2
     4     4     5    1
     5     5     6   ar
     6     6     7   ar
     7     7     8   ar
     8     8     9   ar
     9     9    10   ar
    10    10    11   ar
    11    11    12   ar
    12    12    13   ar
    13    13    14   ar
    14     2    15    1
    15    15    16   ar
    16    16    17   ar
    17    17    18   ar
    18    18    19   ar
    19    19    20   ar
    20    14     5   ar
    21    20    15   ar
    22    13     8   ar
    23     3    21    1
    24     4    22    1
    25     6    23    1
    26     7    24    1
    27     9    25    1
    28    10    26    1
    29    11    27    1
    30    12    28    1
    31    14    29    1
    32    16    30    1
    33    17    31    1
    34    18    32    1
    35    20    33    1
