@<TRIPOS>MOLECULE
*****
 34 36 0 0 0
SMALL
GASTEIGER

@<TRIPOS>ATOM
      1 C           4.2822    1.2118   -1.2789 C.ar    1  UNL1       -0.0598
      2 C           3.2886    2.0078   -0.7306 C.ar    1  UNL1       -0.0611
      3 C           2.1853    1.4733   -0.0975 C.ar    1  UNL1       -0.0523
      4 C           2.0629    0.1089   -0.0043 C.ar    1  UNL1        0.0028
      5 C           1.0668   -0.6694    0.5792 C.ar    1  UNL1       -0.0221
      6 C          -0.1560   -0.1643    1.2498 C.3     1  UNL1       -0.0228
      7 C          -1.1868    0.2407    0.2090 C.3     1  UNL1       -0.0347
      8 C          -2.3927    0.7465    0.9955 C.3     1  UNL1       -0.0373
      9 C          -3.3218    1.2943   -0.0748 C.3     1  UNL1       -0.0038
     10 N          -3.8309    0.2281   -0.8753 N.3     1  UNL1       -0.3160
     11 C          -3.1605   -1.0184   -0.7675 C.3     1  UNL1       -0.0038
     12 C          -1.6922   -0.9656   -0.5450 C.3     1  UNL1       -0.0373
     13 C           1.4686   -1.9752    0.3778 C.ar    1  UNL1        0.0059
     14 N           2.6490   -1.9685   -0.2948 N.ar    1  UNL1       -0.3604
     15 C           3.0366   -0.6986   -0.5410 C.ar    1  UNL1        0.0467
     16 C           4.1417   -0.1523   -1.1759 C.ar    1  UNL1       -0.0378
     17 H           5.1551    1.5885   -1.7762 H       1  UNL1        0.0618
     18 H           3.4318    3.0762   -0.8291 H       1  UNL1        0.0618
     19 H           1.4189    2.1199    0.3249 H       1  UNL1        0.0624
     20 H          -0.6097   -0.9663    1.8556 H       1  UNL1        0.0317
     21 H           0.0710    0.6676    1.9433 H       1  UNL1        0.0317
     22 H          -0.8007    1.0435   -0.4299 H       1  UNL1        0.0305
     23 H          -2.8582   -0.1621    1.4450 H       1  UNL1        0.0280
     24 H          -2.0935    1.4998    1.7231 H       1  UNL1        0.0280
     25 H          -4.0986    1.9414    0.3440 H       1  UNL1        0.0424
     26 H          -2.6742    1.9310   -0.7329 H       1  UNL1        0.0424
     27 H          -4.8529    0.1221   -0.6733 H       1  UNL1        0.1219
     28 H          -3.3537   -1.5878   -1.7029 H       1  UNL1        0.0424
     29 H          -3.6456   -1.6042    0.0450 H       1  UNL1        0.0424
     30 H          -1.0965   -1.0634   -1.4724 H       1  UNL1        0.0280
     31 H          -1.4076   -1.8562    0.0857 H       1  UNL1        0.0280
     32 H           0.8912   -2.8243    0.7258 H       1  UNL1        0.0810
     33 H           3.1728   -2.8324   -0.5785 H       1  UNL1        0.1653
     34 H           4.9096   -0.7924   -1.6000 H       1  UNL1        0.0638
@<TRIPOS>BOND
     1     1     2   ar
     2     2     3   ar
     3     3     4   ar
     4     4     5   ar
     5     5     6    1
     6     6     7    1
     7     7     8    1
     8     8     9    1
     9     9    10    1
    10    10    11    1
    11    11    12    1
    12     5    13   ar
    13    13    14   ar
    14    14    15   ar
    15    15    16   ar
    16    16     1   ar
    17    15     4   ar
    18    12     7    1
    19     1    17    1
    20     2    18    1
    21     3    19    1
    22     6    20    1
    23     6    21    1
    24     7    22    1
    25     8    23    1
    26     8    24    1
    27     9    25    1
    28     9    26    1
    29    10    27    1
    30    11    28    1
    31    11    29    1
    32    12    30    1
    33    12    31    1
    34    13    32    1
    35    14    33    1
    36    16    34    1
