
     RDKit          3D

 34 36  0  0  0  0  0  0  0  0999 V2000
    4.2822    1.2118   -1.2789 C   0  0  0  0  0  0  0  0  0  0  0  0
    3.2886    2.0078   -0.7306 C   0  0  0  0  0  0  0  0  0  0  0  0
    2.1853    1.4733   -0.0975 C   0  0  0  0  0  0  0  0  0  0  0  0
    2.0629    0.1089   -0.0043 C   0  0  0  0  0  0  0  0  0  0  0  0
    1.0668   -0.6694    0.5792 C   0  0  0  0  0  0  0  0  0  0  0  0
   -0.1560   -0.1643    1.2498 C   0  0  0  0  0  0  0  0  0  0  0  0
   -1.1868    0.2407    0.2090 C   0  0  0  0  0  0  0  0  0  0  0  0
   -2.3927    0.7465    0.9955 C   0  0  0  0  0  0  0  0  0  0  0  0
   -3.3218    1.2943   -0.0748 C   0  0  0  0  0  0  0  0  0  0  0  0
   -3.8309    0.2281   -0.8753 N   0  0  0  0  0  0  0  0  0  0  0  0
   -3.1605   -1.0184   -0.7675 C   0  0  0  0  0  0  0  0  0  0  0  0
   -1.6922   -0.9656   -0.5450 C   0  0  0  0  0  0  0  0  0  0  0  0
    1.4686   -1.9752    0.3778 C   0  0  0  0  0  0  0  0  0  0  0  0
    2.6490   -1.9685   -0.2948 N   0  0  0  0  0  0  0  0  0  0  0  0
    3.0366   -0.6986   -0.5410 C   0  0  0  0  0  0  0  0  0  0  0  0
    4.1417   -0.1523   -1.1759 C   0  0  0  0  0  0  0  0  0  0  0  0
    5.1551    1.5885   -1.7762 H   0  0  0  0  0  0  0  0  0  0  0  0
    3.4318    3.0762   -0.8291 H   0  0  0  0  0  0  0  0  0  0  0  0
    1.4189    2.1199    0.3249 H   0  0  0  0  0  0  0  0  0  0  0  0
   -0.6097   -0.9663    1.8556 H   0  0  0  0  0  0  0  0  0  0  0  0
    0.0710    0.6676    1.9433 H   0  0  0  0  0  0  0  0  0  0  0  0
   -0.8007    1.0435   -0.4299 H   0  0  0  0  0  0  0  0  0  0  0  0
   -2.8582   -0.1621    1.4450 H   0  0  0  0  0  0  0  0  0  0  0  0
   -2.0935    1.4998    1.7231 H   0  0  0  0  0  0  0  0  0  0  0  0
   -4.0986    1.9414    0.3440 H   0  0  0  0  0  0  0  0  0  0  0  0
   -2.6742    1.9310   -0.7329 H   0  0  0  0  0  0  0  0  0  0  0  0
   -4.8529    0.1221   -0.6733 H   0  0  0  0  0  0  0  0  0  0  0  0
   -3.3537   -1.5878   -1.7029 H   0  0  0  0  0  0  0  0  0  0  0  0
   -3.6456   -1.6042    0.0450 H   0  0  0  0  0  0  0  0  0  0  0  0
   -1.0965   -1.0634   -1.4724 H   0  0  0  0  0  0  0  0  0  0  0  0
   -1.4076   -1.8562    0.0857 H   0  0  0  0  0  0  0  0  0  0  0  0
    0.8912   -2.8243    0.7258 H   0  0  0  0  0  0  0  0  0  0  0  0
    3.1728   -2.8324   -0.5785 H   0  0  0  0  0  0  0  0  0  0  0  0
    4.9096   -0.7924   -1.6000 H   0  0  0  0  0  0  0  0  0  0  0  0
  1  2  2  0
  2  3  1  0
  3  4  2  0
  4  5  1  0
  5  6  1  0
  6  7  1  0
  7  8  1  0
  8  9  1  0
  9 10  1  0
 10 11  1  0
 11 12  1  0
  5 13  2  0
 13 14  1  0
 14 15  1  0
 15 16  2  0
 16  1  1  0
 15  4  1  0
 12  7  1  0
  1 17  1  0
  2 18  1  0
  3 19  1  0
  6 20  1  0
  6 21  1  0
  7 22  1  0
  8 23  1  0
  8 24  1  0
  9 25  1  0
  9 26  1  0
 10 27  1  0
 11 28  1  0
 11 29  1  0
 12 30  1  0
 12 31  1  0
 13 32  1  0
 14 33  1  0
 16 34  1  0
M  END
$$$$
