
     RDKit          3D

 61 63  0  0  0  0  0  0  0  0999 V2000
    4.5500    1.2913   -0.7129 C   0  0  0  0  0  0  0  0  0  0  0  0
    3.8123    1.4497   -1.9927 C   0  0  0  0  0  0  0  0  0  0  0  0
    4.4289    2.6489   -2.7401 C   0  0  0  0  0  0  0  0  0  0  0  0
    2.3514    1.6900   -1.9266 C   0  0  0  0  0  0  0  0  0  0  0  0
    1.5415    0.7581   -1.3589 O   0  0  0  0  0  0  0  0  0  0  0  0
    1.7025    0.4109   -0.0667 C   0  0  0  0  0  0  0  0  0  0  0  0
    0.5733   -0.6463    0.3257 C   0  0  0  0  0  0  0  0  0  0  0  0
   -0.6131   -0.0594   -0.2499 C   0  0  0  0  0  0  0  0  0  0  0  0
   -1.9154   -0.5848   -0.2065 N   0  0  0  0  0  0  0  0  0  0  0  0
   -2.7708   -0.5261    0.9570 C   0  0  0  0  0  0  0  0  0  0  0  0
   -2.9107    0.8806    1.4525 C   0  0  0  0  0  0  0  0  0  0  0  0
   -3.9359    1.7143    0.9803 C   0  0  0  0  0  0  0  0  0  0  0  0
   -4.1349    3.0208    1.3801 C   0  0  0  0  0  0  0  0  0  0  0  0
   -3.2562    3.5185    2.3060 C   0  0  0  0  0  0  0  0  0  0  0  0
   -2.2176    2.7819    2.8308 C   0  0  0  0  0  0  0  0  0  0  0  0
   -2.0930    1.4892    2.3765 C   0  0  0  0  0  0  0  0  0  0  0  0
   -2.3470   -1.2556   -1.3999 C   0  0  0  0  0  0  0  0  0  0  0  0
   -1.5351   -1.4121   -2.4851 C   0  0  0  0  0  0  0  0  0  0  0  0
   -1.8818   -2.0426   -3.6727 C   0  0  0  0  0  0  0  0  0  0  0  0
   -3.1495   -2.5704   -3.8055 C   0  0  0  0  0  0  0  0  0  0  0  0
   -4.0239   -2.4485   -2.7456 C   0  0  0  0  0  0  0  0  0  0  0  0
   -3.5886   -1.8075   -1.6110 C   0  0  0  0  0  0  0  0  0  0  0  0
    0.8295   -0.9304    1.6654 N   0  0  0  0  0  0  0  0  0  0  0  0
    0.0502   -1.8407    2.3975 C   0  0  0  0  0  0  0  0  0  0  0  0
    0.9668   -2.5632    3.3586 C   0  0  0  0  0  0  0  0  0  0  0  0
    2.2619   -2.5943    2.6499 C   0  0  0  0  0  0  0  0  0  0  0  0
    2.2199   -1.4535    1.6989 C   0  0  0  0  0  0  0  0  0  0  0  0
    4.8661    0.2332   -0.4845 H   0  0  0  0  0  0  0  0  0  0  0  0
    5.5647    1.7984   -0.8495 H   0  0  0  0  0  0  0  0  0  0  0  0
    4.1104    1.8222    0.1436 H   0  0  0  0  0  0  0  0  0  0  0  0
    4.0007    0.5259   -2.6041 H   0  0  0  0  0  0  0  0  0  0  0  0
    4.1250    3.5512   -2.1641 H   0  0  0  0  0  0  0  0  0  0  0  0
    5.5195    2.5179   -2.6703 H   0  0  0  0  0  0  0  0  0  0  0  0
    4.0653    2.7256   -3.7722 H   0  0  0  0  0  0  0  0  0  0  0  0
    2.1171    2.7393   -1.5586 H   0  0  0  0  0  0  0  0  0  0  0  0
    2.0068    1.7598   -3.0162 H   0  0  0  0  0  0  0  0  0  0  0  0
    2.6592   -0.0039    0.1920 H   0  0  0  0  0  0  0  0  0  0  0  0
    1.4992    1.2814    0.5895 H   0  0  0  0  0  0  0  0  0  0  0  0
    0.9443   -1.5318   -0.2959 H   0  0  0  0  0  0  0  0  0  0  0  0
   -0.6799    1.0282    0.2343 H   0  0  0  0  0  0  0  0  0  0  0  0
   -0.3662    0.2879   -1.3000 H   0  0  0  0  0  0  0  0  0  0  0  0
   -3.8367   -0.7678    0.6187 H   0  0  0  0  0  0  0  0  0  0  0  0
   -2.5686   -1.2052    1.7619 H   0  0  0  0  0  0  0  0  0  0  0  0
   -4.6215    1.3052    0.2492 H   0  0  0  0  0  0  0  0  0  0  0  0
   -4.9501    3.5865    0.9631 H   0  0  0  0  0  0  0  0  0  0  0  0
   -3.4009    4.5459    2.6295 H   0  0  0  0  0  0  0  0  0  0  0  0
   -1.5398    3.1899    3.5549 H   0  0  0  0  0  0  0  0  0  0  0  0
   -1.2816    0.9204    2.7872 H   0  0  0  0  0  0  0  0  0  0  0  0
   -0.5150   -1.0792   -2.5559 H   0  0  0  0  0  0  0  0  0  0  0  0
   -1.2429   -2.1682   -4.5334 H   0  0  0  0  0  0  0  0  0  0  0  0
   -3.4610   -3.0682   -4.7088 H   0  0  0  0  0  0  0  0  0  0  0  0
   -5.0011   -2.8643   -2.8691 H   0  0  0  0  0  0  0  0  0  0  0  0
   -4.3524   -1.7799   -0.8591 H   0  0  0  0  0  0  0  0  0  0  0  0
   -0.4615   -2.6186    1.7928 H   0  0  0  0  0  0  0  0  0  0  0  0
   -0.6919   -1.3473    3.0999 H   0  0  0  0  0  0  0  0  0  0  0  0
    1.0250   -2.0218    4.3477 H   0  0  0  0  0  0  0  0  0  0  0  0
    0.6132   -3.6019    3.5611 H   0  0  0  0  0  0  0  0  0  0  0  0
    3.1340   -2.5194    3.3644 H   0  0  0  0  0  0  0  0  0  0  0  0
    2.3941   -3.5878    2.1745 H   0  0  0  0  0  0  0  0  0  0  0  0
    2.4932   -1.8847    0.7015 H   0  0  0  0  0  0  0  0  0  0  0  0
    2.9186   -0.6875    2.0707 H   0  0  0  0  0  0  0  0  0  0  0  0
  1  2  1  0
  2  3  1  0
  2  4  1  0
  4  5  1  0
  5  6  1  0
  6  7  1  0
  7  8  1  0
  8  9  1  0
  9 10  1  0
 10 11  1  0
 11 12  2  0
 12 13  1  0
 13 14  2  0
 14 15  1  0
 15 16  2  0
  9 17  1  0
 17 18  2  0
 18 19  1  0
 19 20  2  0
 20 21  1  0
 21 22  2  0
  7 23  1  0
 23 24  1  0
 24 25  1  0
 25 26  1  0
 26 27  1  0
 16 11  1  0
 22 17  1  0
 27 23  1  0
  1 28  1  0
  1 29  1  0
  1 30  1  0
  2 31  1  0
  3 32  1  0
  3 33  1  0
  3 34  1  0
  4 35  1  0
  4 36  1  0
  6 37  1  0
  6 38  1  0
  7 39  1  0
  8 40  1  0
  8 41  1  0
 10 42  1  0
 10 43  1  0
 12 44  1  0
 13 45  1  0
 14 46  1  0
 15 47  1  0
 16 48  1  0
 18 49  1  0
 19 50  1  0
 20 51  1  0
 21 52  1  0
 22 53  1  0
 24 54  1  0
 24 55  1  0
 25 56  1  0
 25 57  1  0
 26 58  1  0
 26 59  1  0
 27 60  1  0
 27 61  1  0
M  END
$$$$
