@<TRIPOS>MOLECULE
*****
 38 39 0 0 0
SMALL
GASTEIGER

@<TRIPOS>ATOM
      1 C           4.4948   -0.1095    1.3795 C.3     1  UNL1       -0.0126
      2 N           3.3259   -0.7359    0.8311 N.3     1  UNL1       -0.3024
      3 C           2.1646   -0.6925    1.6722 C.3     1  UNL1        0.0144
      4 C           0.9107   -1.0143    0.9382 C.3     1  UNL1        0.0250
      5 N           0.7141   -0.0619   -0.1337 N.pl3   1  UNL1       -0.3272
      6 C           1.8870    0.8044   -0.3000 C.3     1  UNL1        0.0250
      7 C           3.0954   -0.1241   -0.4609 C.3     1  UNL1        0.0144
      8 C          -0.3039    0.2714   -1.0781 C.ar    1  UNL1        0.0348
      9 C          -1.5790    0.7425   -0.8534 C.ar    1  UNL1       -0.0036
     10 C          -1.9840    0.9330    0.5804 C.3     1  UNL1        0.0853
     11 N          -3.2212    1.6764    0.5577 N.2     1  UNL1       -0.1914
     12 N          -4.2804    1.1950    0.9718 N.am    1  UNL1       -0.1003
     13 C          -4.3941   -0.0882    1.4961 C.2     1  UNL1        0.1718
     14 N          -4.2911   -1.5033    1.5164 N.am    1  UNL1       -0.3378
     15 S          -5.0207    0.5174    2.9011 S.2     1  UNL1       -0.0154
     16 C          -2.4333    1.0182   -1.9132 C.ar    1  UNL1       -0.0550
     17 C          -1.9398    0.7957   -3.1778 C.ar    1  UNL1       -0.0613
     18 C          -0.6814    0.3272   -3.4842 C.ar    1  UNL1       -0.0600
     19 C           0.1479    0.0632   -2.3934 C.ar    1  UNL1       -0.0403
     20 H           4.2574    0.5116    2.2660 H       1  UNL1        0.0391
     21 H           5.2696   -0.8829    1.5601 H       1  UNL1        0.0391
     22 H           4.9876    0.6144    0.6635 H       1  UNL1        0.0391
     23 H           2.2992   -1.5210    2.4308 H       1  UNL1        0.0442
     24 H           2.0221    0.2818    2.2076 H       1  UNL1        0.0442
     25 H           0.0522   -0.9129    1.6376 H       1  UNL1        0.0476
     26 H           0.8864   -2.0600    0.5526 H       1  UNL1        0.0476
     27 H           1.8652    1.3940   -1.2367 H       1  UNL1        0.0476
     28 H           2.0720    1.4536    0.5677 H       1  UNL1        0.0476
     29 H           2.9731   -0.8609   -1.2507 H       1  UNL1        0.0442
     30 H           3.9311    0.5627   -0.7720 H       1  UNL1        0.0442
     31 H          -2.0767   -0.0542    1.0325 H       1  UNL1        0.0575
     32 H          -1.1964    1.5103    1.1230 H       1  UNL1        0.0575
     33 H          -5.2087   -2.0140    1.7022 H       1  UNL1        0.1441
     34 H          -3.4808   -2.1359    1.3813 H       1  UNL1        0.1441
     35 H          -3.4246    1.3849   -1.7078 H       1  UNL1        0.0621
     36 H          -2.6201    1.0137   -4.0163 H       1  UNL1        0.0618
     37 H          -0.3491    0.1682   -4.5108 H       1  UNL1        0.0618
     38 H           1.1288   -0.3007   -2.6804 H       1  UNL1        0.0636
@<TRIPOS>BOND
     1     1     2    1
     2     2     3    1
     3     3     4    1
     4     4     5    1
     5     5     6    1
     6     6     7    1
     7     5     8    1
     8     8     9   ar
     9     9    10    1
    10    10    11    1
    11    11    12    2
    12    12    13    1
    13    13    14    1
    14    13    15    2
    15     9    16   ar
    16    16    17   ar
    17    17    18   ar
    18    18    19   ar
    19     7     2    1
    20    19     8   ar
    21     1    20    1
    22     1    21    1
    23     1    22    1
    24     3    23    1
    25     3    24    1
    26     4    25    1
    27     4    26    1
    28     6    27    1
    29     6    28    1
    30     7    29    1
    31     7    30    1
    32    10    31    1
    33    10    32    1
    34    14    33    1
    35    14    34    1
    36    16    35    1
    37    17    36    1
    38    18    37    1
    39    19    38    1
