@<TRIPOS>MOLECULE
*****
 33 34 0 0 0
SMALL
GASTEIGER

@<TRIPOS>ATOM
      1 C          -1.9698    2.6085   -0.8473 C.3     1  UNL1       -0.0640
      2 C          -0.6486    1.9650   -0.5659 C.3     1  UNL1       -0.0378
      3 C          -0.7499    0.5332   -0.1297 C.3     1  UNL1        0.0724
      4 C          -1.5545    0.3948    1.1304 C.3     1  UNL1       -0.0267
      5 C          -1.9551   -1.0117    1.4260 C.3     1  UNL1        0.0256
      6 C          -2.6046   -1.7195    0.3146 C.2     1  UNL1        0.2193
      7 O          -3.5194   -2.5760    0.5228 O.2     1  UNL1       -0.2754
      8 N          -2.1762   -1.4158   -1.0163 N.am    1  UNL1       -0.2557
      9 C          -1.3871   -0.2445   -1.2174 C.2     1  UNL1        0.2297
     10 O          -1.2878    0.0656   -2.4542 O.2     1  UNL1       -0.2744
     11 C           0.6399    0.0390    0.0076 C.ar    1  UNL1       -0.0323
     12 C           1.3733   -0.1538   -1.1475 C.ar    1  UNL1       -0.0558
     13 C           2.6857   -0.6171   -1.0769 C.ar    1  UNL1       -0.0408
     14 C           3.2783   -0.8918    0.1368 C.ar    1  UNL1        0.0246
     15 N           4.6164   -1.3668    0.2551 N.pl3   1  UNL1       -0.3580
     16 C           2.5639   -0.7053    1.2847 C.ar    1  UNL1       -0.0408
     17 C           1.2691   -0.2473    1.1997 C.ar    1  UNL1       -0.0558
     18 H          -2.4119    3.0978    0.0654 H       1  UNL1        0.0230
     19 H          -2.7028    1.9449   -1.3544 H       1  UNL1        0.0230
     20 H          -1.7766    3.4440   -1.5697 H       1  UNL1        0.0230
     21 H          -0.1592    2.5680    0.2427 H       1  UNL1        0.0276
     22 H          -0.0441    1.9939   -1.4966 H       1  UNL1        0.0276
     23 H          -1.0872    0.8269    2.0085 H       1  UNL1        0.0283
     24 H          -2.4958    0.9730    0.9683 H       1  UNL1        0.0283
     25 H          -1.1306   -1.6120    1.8705 H       1  UNL1        0.0359
     26 H          -2.7352   -0.9600    2.2410 H       1  UNL1        0.0359
     27 H          -2.4618   -2.0673   -1.7802 H       1  UNL1        0.1575
     28 H           1.0302    0.0224   -2.1574 H       1  UNL1        0.0621
     29 H           3.3407   -0.7991   -1.9308 H       1  UNL1        0.0636
     30 H           5.2058   -1.0546    1.0788 H       1  UNL1        0.1423
     31 H           5.1344   -2.0176   -0.3900 H       1  UNL1        0.1423
     32 H           2.9957   -0.9103    2.2553 H       1  UNL1        0.0636
     33 H           0.7246   -0.1064    2.0969 H       1  UNL1        0.0621
@<TRIPOS>BOND
     1     1     2    1
     2     2     3    1
     3     3     4    1
     4     4     5    1
     5     5     6    1
     6     6     7    2
     7     6     8   am
     8     8     9   am
     9     9    10    2
    10     3    11    1
    11    11    12   ar
    12    12    13   ar
    13    13    14   ar
    14    14    15    1
    15    14    16   ar
    16    16    17   ar
    17     9     3    1
    18    17    11   ar
    19     1    18    1
    20     1    19    1
    21     1    20    1
    22     2    21    1
    23     2    22    1
    24     4    23    1
    25     4    24    1
    26     5    25    1
    27     5    26    1
    28     8    27    1
    29    12    28    1
    30    13    29    1
    31    15    30    1
    32    15    31    1
    33    16    32    1
    34    17    33    1
