@<TRIPOS>MOLECULE
*****
 78 81 0 0 0
SMALL
GASTEIGER

@<TRIPOS>ATOM
      1 C          -0.5631   -3.2447   -5.0201 C.3     1  UNL1       -0.0524
      2 C          -1.5505   -2.4161   -4.2330 C.3     1  UNL1       -0.0039
      3 N          -1.9343   -3.0283   -3.0336 N.3     1  UNL1       -0.3014
      4 C          -2.7213   -4.1973   -3.0498 C.3     1  UNL1       -0.0039
      5 C          -2.0765   -5.4429   -3.5665 C.3     1  UNL1       -0.0524
      6 C          -1.2669   -2.6635   -1.8500 C.3     1  UNL1        0.0147
      7 C          -1.6120   -1.2439   -1.4728 C.3     1  UNL1        0.0278
      8 N          -0.9147   -0.8557   -0.2354 N.am    1  UNL1       -0.2945
      9 C          -1.6212   -1.1257    0.9755 C.3     1  UNL1        0.0398
     10 C          -2.5898   -0.0683    1.3827 C.ar    1  UNL1       -0.0301
     11 C          -3.9224   -0.1250    1.0166 C.ar    1  UNL1       -0.0565
     12 C          -4.8255    0.8612    1.3903 C.ar    1  UNL1       -0.0537
     13 C          -4.4364    1.9470    2.1464 C.ar    1  UNL1       -0.0179
     14 C          -5.4056    2.9658    2.5315 C.ar    1  UNL1       -0.0178
     15 C          -5.2478    3.6471    3.7207 C.ar    1  UNL1       -0.0527
     16 C          -6.1389    4.6143    4.1282 C.ar    1  UNL1       -0.0428
     17 C          -7.2348    4.9469    3.3619 C.ar    1  UNL1        0.0410
     18 CL         -8.3745    6.1851    3.8843 Cl      1  UNL1       -0.0835
     19 C          -7.4070    4.2734    2.1682 C.ar    1  UNL1       -0.0428
     20 C          -6.5054    3.3028    1.7676 C.ar    1  UNL1       -0.0527
     21 C          -3.1100    2.0031    2.5104 C.ar    1  UNL1       -0.0537
     22 C          -2.2009    1.0157    2.1374 C.ar    1  UNL1       -0.0565
     23 C           0.3554   -0.2553   -0.3476 C.2     1  UNL1        0.2357
     24 O           0.8315   -0.0531   -1.4947 O.2     1  UNL1       -0.2736
     25 C           1.2092    0.1711    0.7897 C.3     1  UNL1        0.1015
     26 N           2.5090   -0.4471    0.7501 N.ar    1  UNL1       -0.3177
     27 C           2.7502   -1.6207    1.3413 C.ar    1  UNL1        0.0155
     28 C           3.9985   -2.2284    1.3068 C.ar    1  UNL1        0.0319
     29 C           4.2684   -3.5153    1.9524 C.3     1  UNL1       -0.0331
     30 C           5.0096   -1.5833    0.6351 C.ar    1  UNL1        0.2768
     31 O           6.1825   -2.0917    0.5673 O.2     1  UNL1       -0.2655
     32 N           4.7392   -0.4130    0.0544 N.ar    1  UNL1       -0.1848
     33 C           3.5252    0.1613    0.0975 C.ar    1  UNL1        0.1733
     34 S           3.2584    1.7167   -0.7051 S.3     1  UNL1       -0.0829
     35 C           4.7109    2.3713   -1.4994 C.3     1  UNL1        0.0262
     36 C           5.7912    2.7632   -0.5580 C.ar    1  UNL1       -0.0370
     37 C           6.8423    1.9158   -0.2808 C.ar    1  UNL1       -0.0551
     38 C           7.8478    2.2836    0.6192 C.ar    1  UNL1       -0.0262
     39 C           7.8135    3.4917    1.2456 C.ar    1  UNL1        0.1234
     40 F           8.8018    3.8587    2.1337 F       1  UNL1       -0.2055
     41 C           6.7657    4.3532    0.9774 C.ar    1  UNL1       -0.0262
     42 C           5.7788    3.9841    0.0901 C.ar    1  UNL1       -0.0551
     43 H          -0.0796   -2.5454   -5.7669 H       1  UNL1        0.0242
     44 H           0.3082   -3.5536   -4.3772 H       1  UNL1        0.0242
     45 H          -1.0256   -4.0813   -5.5570 H       1  UNL1        0.0242
     46 H          -1.0028   -1.4692   -3.9909 H       1  UNL1        0.0424
     47 H          -2.3935   -2.2130   -4.9396 H       1  UNL1        0.0424
     48 H          -3.7080   -4.0081   -3.5712 H       1  UNL1        0.0424
     49 H          -3.0585   -4.4117   -1.9872 H       1  UNL1        0.0424
     50 H          -2.4295   -5.7324   -4.5798 H       1  UNL1        0.0242
     51 H          -0.9915   -5.3627   -3.5319 H       1  UNL1        0.0242
     52 H          -2.4206   -6.2984   -2.9098 H       1  UNL1        0.0242
     53 H          -1.6067   -3.3055   -1.0153 H       1  UNL1        0.0442
     54 H          -0.1647   -2.7774   -1.9311 H       1  UNL1        0.0442
     55 H          -1.3393   -0.5032   -2.2355 H       1  UNL1        0.0477
     56 H          -2.7051   -1.1748   -1.3404 H       1  UNL1        0.0477
     57 H          -2.1631   -2.1177    0.8945 H       1  UNL1        0.0514
     58 H          -0.9095   -1.2518    1.8026 H       1  UNL1        0.0514
     59 H          -4.2600   -0.9584    0.4308 H       1  UNL1        0.0621
     60 H          -5.8821    0.8183    1.1013 H       1  UNL1        0.0624
     61 H          -4.3762    3.3852    4.3328 H       1  UNL1        0.0624
     62 H          -6.0096    5.1419    5.0564 H       1  UNL1        0.0632
     63 H          -8.2768    4.5330    1.5544 H       1  UNL1        0.0632
     64 H          -6.6628    2.7995    0.8425 H       1  UNL1        0.0624
     65 H          -2.8065    2.8644    3.1087 H       1  UNL1        0.0624
     66 H          -1.1630    1.1018    2.4489 H       1  UNL1        0.0621
     67 H           1.2773    1.2799    0.8231 H       1  UNL1        0.0588
     68 H           0.7633   -0.1103    1.7844 H       1  UNL1        0.0588
     69 H           1.9698   -2.1705    1.8901 H       1  UNL1        0.0814
     70 H           5.1498   -4.0169    1.5018 H       1  UNL1        0.0280
     71 H           4.4430   -3.3835    3.0221 H       1  UNL1        0.0280
     72 H           3.3894   -4.1841    1.7587 H       1  UNL1        0.0280
     73 H           5.1210    1.6783   -2.2904 H       1  UNL1        0.0429
     74 H           4.4232    3.2880   -2.0658 H       1  UNL1        0.0429
     75 H           6.9506    0.9596   -0.7380 H       1  UNL1        0.0621
     76 H           8.6586    1.6059    0.8205 H       1  UNL1        0.0646
     77 H           6.7158    5.3142    1.4606 H       1  UNL1        0.0646
     78 H           4.9353    4.6459   -0.1421 H       1  UNL1        0.0621
@<TRIPOS>BOND
     1     1     2    1
     2     2     3    1
     3     3     4    1
     4     4     5    1
     5     3     6    1
     6     6     7    1
     7     7     8    1
     8     8     9    1
     9     9    10    1
    10    10    11   ar
    11    11    12   ar
    12    12    13   ar
    13    13    14    1
    14    14    15   ar
    15    15    16   ar
    16    16    17   ar
    17    17    18    1
    18    17    19   ar
    19    19    20   ar
    20    13    21   ar
    21    21    22   ar
    22     8    23   am
    23    23    24    2
    24    23    25    1
    25    25    26    1
    26    26    27   ar
    27    27    28   ar
    28    28    29    1
    29    28    30   ar
    30    30    31    2
    31    30    32   ar
    32    32    33   ar
    33    33    34    1
    34    34    35    1
    35    35    36    1
    36    36    37   ar
    37    37    38   ar
    38    38    39   ar
    39    39    40    1
    40    39    41   ar
    41    41    42   ar
    42    22    10   ar
    43    33    26   ar
    44    42    36   ar
    45    20    14   ar
    46     1    43    1
    47     1    44    1
    48     1    45    1
    49     2    46    1
    50     2    47    1
    51     4    48    1
    52     4    49    1
    53     5    50    1
    54     5    51    1
    55     5    52    1
    56     6    53    1
    57     6    54    1
    58     7    55    1
    59     7    56    1
    60     9    57    1
    61     9    58    1
    62    11    59    1
    63    12    60    1
    64    15    61    1
    65    16    62    1
    66    19    63    1
    67    20    64    1
    68    21    65    1
    69    22    66    1
    70    25    67    1
    71    25    68    1
    72    27    69    1
    73    29    70    1
    74    29    71    1
    75    29    72    1
    76    35    73    1
    77    35    74    1
    78    37    75    1
    79    38    76    1
    80    41    77    1
    81    42    78    1
