@<TRIPOS>MOLECULE
*****
 53 56 0 0 0
SMALL
GASTEIGER

@<TRIPOS>ATOM
      1 C          -0.9430    1.7126    0.4761 C.3     1  UNL1       -0.0352
      2 C          -0.6377    1.3232   -0.9847 C.3     1  UNL1        0.0951
      3 C           0.5148    0.4010   -0.9859 C.ar    1  UNL1        0.0168
      4 C           1.0512   -0.0509    0.1863 C.ar    1  UNL1       -0.0323
      5 C           2.1342   -0.9162    0.2387 C.ar    1  UNL1        0.0342
      6 N           2.7411   -1.4482    1.3889 N.am    1  UNL1       -0.2802
      7 C           2.2282   -1.3881    2.7113 C.2     1  UNL1        0.2666
      8 O           1.1254   -0.8298    2.9419 O.2     1  UNL1       -0.2682
      9 C           2.9857   -1.9835    3.8454 C.ar    1  UNL1        0.1257
     10 C           2.4625   -1.9950    5.1136 C.ar    1  UNL1       -0.0300
     11 C           3.2027   -2.5676    6.1244 C.ar    1  UNL1       -0.0407
     12 C           4.4632   -3.1301    5.8762 C.ar    1  UNL1        0.0699
     13 C           5.1935   -3.7198    6.9516 C.1     1  UNL1        0.1007
     14 N           5.7688   -4.1906    7.8252 N.1     1  UNL1       -0.1908
     15 C           4.9239   -3.0826    4.5790 C.ar    1  UNL1        0.0458
     16 N           4.1820   -2.5102    3.5767 N.ar    1  UNL1       -0.2491
     17 C           2.6816   -1.3293   -0.9851 C.ar    1  UNL1       -0.0377
     18 C           2.1628   -0.8916   -2.1633 C.ar    1  UNL1       -0.0243
     19 C           1.0825   -0.0282   -2.1716 C.ar    1  UNL1        0.1290
     20 F           0.6141    0.3792   -3.3723 F       1  UNL1       -0.2051
     21 C          -1.8798    0.6972   -1.5404 C.3     1  UNL1        0.0167
     22 C          -2.6112    1.5259   -2.5352 C.3     1  UNL1        0.1202
     23 C          -3.0973    0.6547   -3.7117 C.3     1  UNL1        0.0108
     24 C          -4.0579   -0.3896   -3.2559 C.3     1  UNL1        0.0513
     25 O          -5.1973    0.2889   -2.7961 O.3     1  UNL1       -0.3795
     26 C          -4.8874    1.0021   -1.6422 C.3     1  UNL1        0.0513
     27 C          -3.9128    2.0826   -1.9410 C.3     1  UNL1        0.0108
     28 O          -1.9409    2.5886   -3.1076 O.2     1  UNL1       -0.4591
     29 C          -0.7798    3.1354   -2.6262 C.2     1  UNL1        0.2765
     30 N          -0.1892    4.3215   -3.1518 N.pl3   1  UNL1       -0.3133
     31 N          -0.2281    2.5023   -1.6457 N.2     1  UNL1       -0.2257
     32 H          -1.3093    0.8079    0.9735 H       1  UNL1        0.0256
     33 H          -0.0602    2.1508    0.9499 H       1  UNL1        0.0256
     34 H          -1.8184    2.4307    0.5088 H       1  UNL1        0.0256
     35 H           0.6367    0.2628    1.1478 H       1  UNL1        0.0640
     36 H           3.6868   -1.9472    1.3078 H       1  UNL1        0.1552
     37 H           1.5127   -1.5710    5.3299 H       1  UNL1        0.0641
     38 H           2.7990   -2.5920    7.1078 H       1  UNL1        0.0631
     39 H           5.8934   -3.5081    4.3672 H       1  UNL1        0.0843
     40 H           3.5389   -2.0259   -0.9686 H       1  UNL1        0.0637
     41 H           2.6167   -1.2425   -3.0744 H       1  UNL1        0.0647
     42 H          -1.6557   -0.2981   -2.0209 H       1  UNL1        0.0330
     43 H          -2.5963    0.4502   -0.7057 H       1  UNL1        0.0330
     44 H          -2.2611    0.3241   -4.3221 H       1  UNL1        0.0326
     45 H          -3.6907    1.3677   -4.3605 H       1  UNL1        0.0326
     46 H          -3.7281   -1.0243   -2.4380 H       1  UNL1        0.0561
     47 H          -4.3260   -0.9995   -4.1409 H       1  UNL1        0.0561
     48 H          -4.5750    0.2943   -0.8680 H       1  UNL1        0.0561
     49 H          -5.8452    1.5029   -1.3378 H       1  UNL1        0.0561
     50 H          -3.7143    2.7914   -1.1242 H       1  UNL1        0.0326
     51 H          -4.3326    2.7134   -2.7811 H       1  UNL1        0.0326
     52 H           0.1700    5.1143   -2.5803 H       1  UNL1        0.1466
     53 H          -0.0969    4.4042   -4.1889 H       1  UNL1        0.1466
@<TRIPOS>BOND
     1     1     2    1
     2     2     3    1
     3     3     4   ar
     4     4     5   ar
     5     5     6    1
     6     6     7   am
     7     7     8    2
     8     7     9    1
     9     9    10   ar
    10    10    11   ar
    11    11    12   ar
    12    12    13    1
    13    13    14    3
    14    12    15   ar
    15    15    16   ar
    16     5    17   ar
    17    17    18   ar
    18    18    19   ar
    19    19    20    1
    20     2    21    1
    21    21    22    1
    22    22    23    1
    23    23    24    1
    24    24    25    1
    25    25    26    1
    26    26    27    1
    27    22    28    1
    28    28    29    1
    29    29    30    1
    30    29    31    2
    31    31     2    1
    32    19     3   ar
    33    27    22    1
    34    16     9   ar
    35     1    32    1
    36     1    33    1
    37     1    34    1
    38     4    35    1
    39     6    36    1
    40    10    37    1
    41    11    38    1
    42    15    39    1
    43    17    40    1
    44    18    41    1
    45    21    42    1
    46    21    43    1
    47    23    44    1
    48    23    45    1
    49    24    46    1
    50    24    47    1
    51    26    48    1
    52    26    49    1
    53    27    50    1
    54    27    51    1
    55    30    52    1
    56    30    53    1
