
     RDKit          3D

 53 56  0  0  0  0  0  0  0  0999 V2000
   -0.9430    1.7126    0.4761 C   0  0  0  0  0  0  0  0  0  0  0  0
   -0.6377    1.3232   -0.9847 C   0  0  0  0  0  0  0  0  0  0  0  0
    0.5148    0.4010   -0.9859 C   0  0  0  0  0  0  0  0  0  0  0  0
    1.0512   -0.0509    0.1863 C   0  0  0  0  0  0  0  0  0  0  0  0
    2.1342   -0.9162    0.2387 C   0  0  0  0  0  0  0  0  0  0  0  0
    2.7411   -1.4482    1.3889 N   0  0  0  0  0  0  0  0  0  0  0  0
    2.2282   -1.3881    2.7113 C   0  0  0  0  0  0  0  0  0  0  0  0
    1.1254   -0.8298    2.9419 O   0  0  0  0  0  0  0  0  0  0  0  0
    2.9857   -1.9835    3.8454 C   0  0  0  0  0  0  0  0  0  0  0  0
    2.4625   -1.9950    5.1136 C   0  0  0  0  0  0  0  0  0  0  0  0
    3.2027   -2.5676    6.1244 C   0  0  0  0  0  0  0  0  0  0  0  0
    4.4632   -3.1301    5.8762 C   0  0  0  0  0  0  0  0  0  0  0  0
    5.1935   -3.7198    6.9516 C   0  0  0  0  0  0  0  0  0  0  0  0
    5.7688   -4.1906    7.8252 N   0  0  0  0  0  0  0  0  0  0  0  0
    4.9239   -3.0826    4.5790 C   0  0  0  0  0  0  0  0  0  0  0  0
    4.1820   -2.5102    3.5767 N   0  0  0  0  0  0  0  0  0  0  0  0
    2.6816   -1.3293   -0.9851 C   0  0  0  0  0  0  0  0  0  0  0  0
    2.1628   -0.8916   -2.1633 C   0  0  0  0  0  0  0  0  0  0  0  0
    1.0825   -0.0282   -2.1716 C   0  0  0  0  0  0  0  0  0  0  0  0
    0.6141    0.3792   -3.3723 F   0  0  0  0  0  0  0  0  0  0  0  0
   -1.8798    0.6972   -1.5404 C   0  0  0  0  0  0  0  0  0  0  0  0
   -2.6112    1.5259   -2.5352 C   0  0  0  0  0  0  0  0  0  0  0  0
   -3.0973    0.6547   -3.7117 C   0  0  0  0  0  0  0  0  0  0  0  0
   -4.0579   -0.3896   -3.2559 C   0  0  0  0  0  0  0  0  0  0  0  0
   -5.1973    0.2889   -2.7961 O   0  0  0  0  0  0  0  0  0  0  0  0
   -4.8874    1.0021   -1.6422 C   0  0  0  0  0  0  0  0  0  0  0  0
   -3.9128    2.0826   -1.9410 C   0  0  0  0  0  0  0  0  0  0  0  0
   -1.9409    2.5886   -3.1076 O   0  0  0  0  0  0  0  0  0  0  0  0
   -0.7798    3.1354   -2.6262 C   0  0  0  0  0  0  0  0  0  0  0  0
   -0.1892    4.3215   -3.1518 N   0  0  0  0  0  0  0  0  0  0  0  0
   -0.2281    2.5023   -1.6457 N   0  0  0  0  0  0  0  0  0  0  0  0
   -1.3093    0.8079    0.9735 H   0  0  0  0  0  0  0  0  0  0  0  0
   -0.0602    2.1508    0.9499 H   0  0  0  0  0  0  0  0  0  0  0  0
   -1.8184    2.4307    0.5088 H   0  0  0  0  0  0  0  0  0  0  0  0
    0.6367    0.2628    1.1478 H   0  0  0  0  0  0  0  0  0  0  0  0
    3.6868   -1.9472    1.3078 H   0  0  0  0  0  0  0  0  0  0  0  0
    1.5127   -1.5710    5.3299 H   0  0  0  0  0  0  0  0  0  0  0  0
    2.7990   -2.5920    7.1078 H   0  0  0  0  0  0  0  0  0  0  0  0
    5.8934   -3.5081    4.3672 H   0  0  0  0  0  0  0  0  0  0  0  0
    3.5389   -2.0259   -0.9686 H   0  0  0  0  0  0  0  0  0  0  0  0
    2.6167   -1.2425   -3.0744 H   0  0  0  0  0  0  0  0  0  0  0  0
   -1.6557   -0.2981   -2.0209 H   0  0  0  0  0  0  0  0  0  0  0  0
   -2.5963    0.4502   -0.7057 H   0  0  0  0  0  0  0  0  0  0  0  0
   -2.2611    0.3241   -4.3221 H   0  0  0  0  0  0  0  0  0  0  0  0
   -3.6907    1.3677   -4.3605 H   0  0  0  0  0  0  0  0  0  0  0  0
   -3.7281   -1.0243   -2.4380 H   0  0  0  0  0  0  0  0  0  0  0  0
   -4.3260   -0.9995   -4.1409 H   0  0  0  0  0  0  0  0  0  0  0  0
   -4.5750    0.2943   -0.8680 H   0  0  0  0  0  0  0  0  0  0  0  0
   -5.8452    1.5029   -1.3378 H   0  0  0  0  0  0  0  0  0  0  0  0
   -3.7143    2.7914   -1.1242 H   0  0  0  0  0  0  0  0  0  0  0  0
   -4.3326    2.7134   -2.7811 H   0  0  0  0  0  0  0  0  0  0  0  0
    0.1700    5.1143   -2.5803 H   0  0  0  0  0  0  0  0  0  0  0  0
   -0.0969    4.4042   -4.1889 H   0  0  0  0  0  0  0  0  0  0  0  0
  1  2  1  0
  2  3  1  0
  3  4  2  0
  4  5  1  0
  5  6  1  0
  6  7  1  0
  7  8  2  0
  7  9  1  0
  9 10  2  0
 10 11  1  0
 11 12  2  0
 12 13  1  0
 13 14  3  0
 12 15  1  0
 15 16  2  0
  5 17  2  0
 17 18  1  0
 18 19  2  0
 19 20  1  0
  2 21  1  0
 21 22  1  0
 22 23  1  0
 23 24  1  0
 24 25  1  0
 25 26  1  0
 26 27  1  0
 22 28  1  0
 28 29  1  0
 29 30  1  0
 29 31  2  0
 31  2  1  0
 19  3  1  0
 27 22  1  0
 16  9  1  0
  1 32  1  0
  1 33  1  0
  1 34  1  0
  4 35  1  0
  6 36  1  0
 10 37  1  0
 11 38  1  0
 15 39  1  0
 17 40  1  0
 18 41  1  0
 21 42  1  0
 21 43  1  0
 23 44  1  0
 23 45  1  0
 24 46  1  0
 24 47  1  0
 26 48  1  0
 26 49  1  0
 27 50  1  0
 27 51  1  0
 30 52  1  0
 30 53  1  0
M  END
$$$$
