@<TRIPOS>MOLECULE
*****
 46 50 0 0 0
SMALL
GASTEIGER

@<TRIPOS>ATOM
      1 C           0.3096   -0.5820   -1.7153 C.3     1  UNL1        0.1399
      2 O           1.5987   -0.2311   -1.1800 O.3     1  UNL1       -0.4811
      3 C           1.4601    0.0795    0.1638 C.ar    1  UNL1        0.1666
      4 C           2.3803    0.2080    1.2074 C.ar    1  UNL1        0.1622
      5 O           3.6230    0.0503    1.1098 O.3     1  UNL1       -0.4886
      6 C           4.9095   -0.1088    1.0273 C.3     1  UNL1        0.0870
      7 C           5.3986   -0.4757   -0.3982 C.3     1  UNL1       -0.0307
      8 C           1.8105    0.5376    2.4231 C.ar    1  UNL1       -0.0160
      9 C           0.4454    0.7351    2.6414 C.ar    1  UNL1       -0.0546
     10 C          -0.4211    0.5976    1.5832 C.ar    1  UNL1       -0.0383
     11 C           0.1181    0.2758    0.3878 C.ar    1  UNL1        0.0116
     12 C          -0.6961    0.0945   -0.8457 C.3     1  UNL1        0.0480
     13 C          -1.1489    1.4321   -1.3627 C.3     1  UNL1       -0.0263
     14 C          -2.6525    1.5721   -1.3736 C.3     1  UNL1       -0.0001
     15 N          -3.3096    1.0469   -0.2566 N.3     1  UNL1       -0.3015
     16 C          -4.4538    1.7054    0.2530 C.3     1  UNL1       -0.0124
     17 C          -2.6407    0.1206    0.5764 C.3     1  UNL1        0.0213
     18 C          -1.8862    0.7783    1.6800 C.3     1  UNL1       -0.0110
     19 C          -1.8293   -0.7467   -0.3566 C.3     1  UNL1        0.0064
     20 C          -1.2526   -1.9313    0.3110 C.2     1  UNL1       -0.0799
     21 C          -0.3073   -2.5896   -0.3565 C.2     1  UNL1       -0.0559
     22 C           0.0649   -2.0623   -1.6989 C.3     1  UNL1        0.1110
     23 O           1.1614   -2.7600   -2.2210 O.3     1  UNL1       -0.3841
     24 H           0.2805   -0.2393   -2.7644 H       1  UNL1        0.0772
     25 H           5.4677    0.8459    1.3228 H       1  UNL1        0.0694
     26 H           5.3289   -0.9123    1.7308 H       1  UNL1        0.0694
     27 H           5.1787   -1.5544   -0.5770 H       1  UNL1        0.0262
     28 H           4.8208    0.1679   -1.0943 H       1  UNL1        0.0262
     29 H           6.4847   -0.2393   -0.4509 H       1  UNL1        0.0262
     30 H           2.4435    0.6644    3.3163 H       1  UNL1        0.0655
     31 H           0.0552    0.9921    3.6163 H       1  UNL1        0.0622
     32 H          -0.7449    1.6839   -2.3638 H       1  UNL1        0.0287
     33 H          -0.7864    2.2338   -0.6842 H       1  UNL1        0.0287
     34 H          -3.0020    1.0314   -2.2930 H       1  UNL1        0.0427
     35 H          -2.8873    2.6388   -1.5460 H       1  UNL1        0.0427
     36 H          -4.4983    1.6544    1.3507 H       1  UNL1        0.0391
     37 H          -5.3606    1.1779   -0.1482 H       1  UNL1        0.0391
     38 H          -4.5146    2.7524   -0.1062 H       1  UNL1        0.0391
     39 H          -3.4129   -0.5561    1.0313 H       1  UNL1        0.0472
     40 H          -2.1959    0.4354    2.6905 H       1  UNL1        0.0329
     41 H          -2.0865    1.8747    1.6518 H       1  UNL1        0.0329
     42 H          -2.4859   -1.0610   -1.1658 H       1  UNL1        0.0368
     43 H          -1.6108   -2.2194    1.3016 H       1  UNL1        0.0573
     44 H           0.1088   -3.4653    0.1539 H       1  UNL1        0.0596
     45 H          -0.7786   -2.2394   -2.4166 H       1  UNL1        0.0675
     46 H           1.5140   -3.4128   -1.5680 H       1  UNL1        0.2104
@<TRIPOS>BOND
     1     1     2    1
     2     2     3    1
     3     3     4   ar
     4     4     5    1
     5     5     6    1
     6     6     7    1
     7     4     8   ar
     8     8     9   ar
     9     9    10   ar
    10    10    11   ar
    11    11    12    1
    12    12    13    1
    13    13    14    1
    14    14    15    1
    15    15    16    1
    16    15    17    1
    17    17    18    1
    18    17    19    1
    19    19    20    1
    20    20    21    2
    21    21    22    1
    22    22    23    1
    23    12     1    1
    24    19    12    1
    25    22     1    1
    26    11     3   ar
    27    18    10    1
    28     1    24    1
    29     6    25    1
    30     6    26    1
    31     7    27    1
    32     7    28    1
    33     7    29    1
    34     8    30    1
    35     9    31    1
    36    13    32    1
    37    13    33    1
    38    14    34    1
    39    14    35    1
    40    16    36    1
    41    16    37    1
    42    16    38    1
    43    17    39    1
    44    18    40    1
    45    18    41    1
    46    19    42    1
    47    20    43    1
    48    21    44    1
    49    22    45    1
    50    23    46    1
