@<TRIPOS>MOLECULE
*****
 144 148 0 0 0
SMALL
GASTEIGER

@<TRIPOS>ATOM
      1 C         -11.6690   -2.8880    1.9776 C.3     1  UNL1        0.0395
      2 O         -10.4760   -2.3613    1.5468 O.3     1  UNL1       -0.3528
      3 C         -10.6355   -1.0833    0.9569 C.3     1  UNL1        0.1786
      4 O          -9.8319   -0.2421    1.6734 O.3     1  UNL1       -0.3414
      5 C          -9.1600    0.7300    0.9869 C.3     1  UNL1        0.1159
      6 C         -10.0584    1.8646    0.5361 C.3     1  UNL1        0.1076
      7 O         -10.6598    2.4710    1.6623 O.3     1  UNL1       -0.2131
      8 S         -11.7391    3.6440    1.1771 S.O2    1  UNL1        0.2076
      9 O         -13.1426    2.9655    0.5067 O.3     1  UNL1       -0.2311
     10 O         -11.1376    4.5428    0.1193 O.2     1  UNL1       -0.1181
     11 O         -12.0856    4.5186    2.3486 O.2     1  UNL1       -0.1181
     12 C          -8.2309    0.2409   -0.0894 C.3     1  UNL1        0.1176
     13 O          -6.9205    0.0570    0.3301 O.3     1  UNL1       -0.3401
     14 C          -5.9665    0.6196   -0.5140 C.3     1  UNL1        0.1916
     15 O          -5.2157   -0.3250   -1.1632 O.3     1  UNL1       -0.3314
     16 C          -4.1231   -0.7184   -0.3786 C.3     1  UNL1        0.1863
     17 C          -3.0599    0.3619   -0.4197 C.3     1  UNL1        0.1267
     18 O          -2.1485    0.2342   -1.4359 O.3     1  UNL1       -0.3406
     19 C          -0.8222    0.1956   -1.0517 C.3     1  UNL1        0.1796
     20 O          -0.3392   -1.1041   -1.3595 O.3     1  UNL1       -0.3413
     21 C           0.8995   -1.2918   -0.7381 C.3     1  UNL1        0.1160
     22 C           0.7334   -1.8755    0.6440 C.3     1  UNL1        0.1076
     23 O           0.1267   -3.1034    0.6049 O.3     1  UNL1       -0.2131
     24 S          -0.0166   -3.8490    2.0853 S.O2    1  UNL1        0.2076
     25 O           0.4142   -5.4757    2.0086 O.3     1  UNL1       -0.2311
     26 O           0.7880   -3.1969    3.1527 O.2     1  UNL1       -0.1181
     27 O          -1.4821   -3.8005    2.4668 O.2     1  UNL1       -0.1181
     28 C           1.7756   -0.0700   -0.7832 C.3     1  UNL1        0.1202
     29 O           3.1057   -0.4938   -0.8794 O.3     1  UNL1       -0.3401
     30 C           3.9405    0.0290    0.0980 C.3     1  UNL1        0.1890
     31 O           4.8410    0.9397   -0.4701 O.3     1  UNL1       -0.3315
     32 C           6.0323    1.0002    0.2285 C.3     1  UNL1        0.1863
     33 C           6.8286   -0.2520    0.1470 C.3     1  UNL1        0.1266
     34 O           7.9816   -0.2244    0.9197 O.3     1  UNL1       -0.3406
     35 C           9.1618   -0.2853    0.2355 C.3     1  UNL1        0.1795
     36 O          10.0383    0.7340    0.5017 O.3     1  UNL1       -0.3414
     37 C          10.4619    0.7901    1.8121 C.3     1  UNL1        0.1155
     38 C          11.5565    1.8364    1.9743 C.3     1  UNL1        0.1076
     39 O          11.1326    3.1120    1.6252 O.3     1  UNL1       -0.2131
     40 S          12.3635    4.2459    1.8637 S.O2    1  UNL1        0.2076
     41 O          13.8765    3.4984    1.7035 O.3     1  UNL1       -0.2311
     42 O          12.2930    4.7756    3.2557 O.2     1  UNL1       -0.1181
     43 O          12.2523    5.3737    0.8829 O.2     1  UNL1       -0.1181
     44 C          10.8256   -0.5047    2.4451 C.3     1  UNL1        0.1111
     45 O          10.8175   -0.3422    3.8294 O.3     1  UNL1       -0.3865
     46 C          10.0504   -1.6932    1.9953 C.3     1  UNL1        0.1052
     47 O          10.6120   -2.8932    2.3567 O.3     1  UNL1       -0.3874
     48 C           9.8140   -1.6565    0.5134 C.3     1  UNL1        0.1098
     49 N           8.8783   -2.6850    0.1841 N.3     1  UNL1       -0.1595
     50 S           9.3783   -3.7659   -1.0354 S.O2    1  UNL1        0.1490
     51 O           9.6309   -2.9395   -2.4723 O.3     1  UNL1       -0.2404
     52 O           8.2295   -4.7356   -1.2669 O.2     1  UNL1       -0.1300
     53 O          10.5629   -4.5883   -0.6380 O.2     1  UNL1       -0.1300
     54 C           5.9645   -1.4271    0.4018 C.3     1  UNL1        0.1149
     55 O           5.8340   -2.2250   -0.7140 O.3     1  UNL1       -0.3864
     56 C           4.6303   -0.9813    0.9498 C.3     1  UNL1        0.1342
     57 O           4.7044   -0.5494    2.2671 O.3     1  UNL1       -0.3841
     58 C           6.7956    2.1414   -0.3909 C.2     1  UNL1        0.3367
     59 O           7.5011    3.1870   -0.9547 O.3     1  UNL1       -0.4788
     60 O           6.0669    2.6321   -1.2947 O.2     1  UNL1       -0.2480
     61 C           1.3925    0.6959   -2.0569 C.3     1  UNL1        0.1399
     62 O           2.2800    1.7063   -2.3255 O.3     1  UNL1       -0.2080
     63 S           3.0790    1.4993   -3.7953 S.O2    1  UNL1        0.2079
     64 O           4.3392    0.3892   -3.6534 O.3     1  UNL1       -0.2311
     65 O           3.6915    2.8336   -4.1680 O.2     1  UNL1       -0.1181
     66 O           2.1501    1.1134   -4.8951 O.2     1  UNL1       -0.1181
     67 C          -0.0368    1.2146   -1.8238 C.3     1  UNL1        0.1124
     68 N          -0.6840    1.4262   -3.0970 N.3     1  UNL1       -0.1594
     69 S          -0.9523    3.0567   -3.4668 S.O2    1  UNL1        0.1490
     70 O           0.4740    3.9414   -3.5773 O.3     1  UNL1       -0.2404
     71 O          -1.7690    3.7018   -2.3950 O.2     1  UNL1       -0.1300
     72 O          -1.7529    3.1652   -4.7366 O.2     1  UNL1       -0.1300
     73 C          -3.7517    1.7265   -0.4813 C.3     1  UNL1        0.1176
     74 O          -2.9431    2.6354    0.2074 O.3     1  UNL1       -0.3863
     75 C          -5.1355    1.6608    0.1091 C.3     1  UNL1        0.1684
     76 O          -5.7150    2.9177   -0.1204 O.3     1  UNL1       -0.2047
     77 S          -5.9527    3.7507    1.3181 S.O2    1  UNL1        0.2080
     78 O          -6.3433    2.7010    2.5718 O.3     1  UNL1       -0.2311
     79 O          -7.1266    4.6654    1.1163 O.2     1  UNL1       -0.1181
     80 O          -4.7623    4.5904    1.6261 O.2     1  UNL1       -0.1181
     81 C          -3.6608   -2.0251   -0.8780 C.2     1  UNL1        0.3367
     82 O          -3.5923   -3.1564   -1.6665 O.3     1  UNL1       -0.4788
     83 O          -2.7370   -2.7455   -0.4339 O.2     1  UNL1       -0.2480
     84 C          -8.6842   -1.1776   -0.4972 C.3     1  UNL1        0.1055
     85 O          -8.2507   -1.4958   -1.7765 O.3     1  UNL1       -0.3874
     86 C         -10.1943   -1.2595   -0.4788 C.3     1  UNL1        0.1098
     87 N         -10.5502   -2.6041   -0.8948 N.3     1  UNL1       -0.1595
     88 S         -11.5401   -2.5604   -2.3236 S.O2    1  UNL1        0.1490
     89 O         -12.9642   -1.7375   -1.9950 O.3     1  UNL1       -0.2404
     90 O         -10.8234   -1.7705   -3.4109 O.2     1  UNL1       -0.1300
     91 O         -11.7788   -3.9337   -2.8402 O.2     1  UNL1       -0.1300
     92 H         -12.2022   -2.2903    2.7426 H       1  UNL1        0.0525
     93 H         -11.4479   -3.8764    2.4322 H       1  UNL1        0.0525
     94 H         -12.3278   -3.1072    1.0906 H       1  UNL1        0.0525
     95 H         -11.7239   -0.8877    1.0275 H       1  UNL1        0.0927
     96 H          -8.4804    1.2113    1.7554 H       1  UNL1        0.0648
     97 H         -10.8488    1.5541   -0.1713 H       1  UNL1        0.0611
     98 H          -9.4811    2.6710    0.0396 H       1  UNL1        0.0611
     99 H         -13.5687    2.4444    1.2540 H       1  UNL1        0.2469
    100 H          -8.3522    0.8241   -1.0047 H       1  UNL1        0.0650
    101 H          -6.5902    1.1036   -1.3291 H       1  UNL1        0.0939
    102 H          -4.5230   -0.8433    0.6479 H       1  UNL1        0.0742
    103 H          -2.5341    0.3605    0.5471 H       1  UNL1        0.0656
    104 H          -0.7747    0.3434    0.0502 H       1  UNL1        0.0927
    105 H           1.4209   -2.0865   -1.3331 H       1  UNL1        0.0648
    106 H           1.6994   -1.9744    1.1547 H       1  UNL1        0.0611
    107 H           0.1491   -1.1533    1.2894 H       1  UNL1        0.0611
    108 H           0.6854   -5.8237    2.8949 H       1  UNL1        0.2469
    109 H           1.6793    0.5960    0.0769 H       1  UNL1        0.0651
    110 H           3.3137    0.6601    0.7615 H       1  UNL1        0.0938
    111 H           5.7834    1.2561    1.2793 H       1  UNL1        0.0742
    112 H           7.2172   -0.3281   -0.9145 H       1  UNL1        0.0655
    113 H           8.9607   -0.3150   -0.8527 H       1  UNL1        0.0927
    114 H           9.5836    1.1892    2.4019 H       1  UNL1        0.0648
    115 H          12.4348    1.6181    1.3443 H       1  UNL1        0.0611
    116 H          11.8300    1.8924    3.0569 H       1  UNL1        0.0611
    117 H          13.9859    2.7877    2.3758 H       1  UNL1        0.2469
    118 H          11.9067   -0.7131    2.1930 H       1  UNL1        0.0646
    119 H           9.9513    0.0002    4.1811 H       1  UNL1        0.2100
    120 H           9.0397   -1.6421    2.4834 H       1  UNL1        0.0638
    121 H          11.6033   -2.9086    2.3009 H       1  UNL1        0.2100
    122 H          10.7027   -1.7730   -0.1052 H       1  UNL1        0.0555
    123 H           8.5177   -3.1884    1.0295 H       1  UNL1        0.1506
    124 H          10.0756   -3.5410   -3.1167 H       1  UNL1        0.2460
    125 H           6.4155   -2.0220    1.2560 H       1  UNL1        0.0648
    126 H           6.0315   -3.1605   -0.4615 H       1  UNL1        0.2100
    127 H           4.0120   -1.9174    0.9792 H       1  UNL1        0.0671
    128 H           5.5918   -0.8257    2.6452 H       1  UNL1        0.2101
    129 H           8.5252    3.1508   -0.8610 H       1  UNL1        0.2951
    130 H           1.3669   -0.0467   -2.8664 H       1  UNL1        0.0666
    131 H           3.9998   -0.5351   -3.6209 H       1  UNL1        0.2469
    132 H           0.0957    2.1489   -1.2774 H       1  UNL1        0.0556
    133 H          -0.3895    0.8088   -3.8565 H       1  UNL1        0.1506
    134 H           0.9524    3.7828   -4.4326 H       1  UNL1        0.2460
    135 H          -3.7407    2.0257   -1.5446 H       1  UNL1        0.0649
    136 H          -2.3581    2.1892    0.8857 H       1  UNL1        0.2100
    137 H          -4.9729    1.5049    1.2125 H       1  UNL1        0.0699
    138 H          -6.2617    3.2220    3.4232 H       1  UNL1        0.2469
    139 H          -4.3902   -3.6921   -1.9696 H       1  UNL1        0.2951
    140 H          -8.2874   -1.9256    0.2027 H       1  UNL1        0.0638
    141 H          -8.1283   -0.7288   -2.3683 H       1  UNL1        0.2100
    142 H         -10.6601   -0.5831   -1.1933 H       1  UNL1        0.0555
    143 H          -9.7149   -3.2059   -1.0712 H       1  UNL1        0.1506
    144 H         -13.4575   -2.2896   -1.3515 H       1  UNL1        0.2460
@<TRIPOS>BOND
     1     1     2    1
     2     2     3    1
     3     3     4    1
     4     4     5    1
     5     5     6    1
     6     6     7    1
     7     7     8    1
     8     8     9    1
     9     8    10    2
    10     8    11    2
    11     5    12    1
    12    12    13    1
    13    13    14    1
    14    14    15    1
    15    15    16    1
    16    16    17    1
    17    17    18    1
    18    18    19    1
    19    19    20    1
    20    20    21    1
    21    21    22    1
    22    22    23    1
    23    23    24    1
    24    24    25    1
    25    24    26    2
    26    24    27    2
    27    21    28    1
    28    28    29    1
    29    29    30    1
    30    30    31    1
    31    31    32    1
    32    32    33    1
    33    33    34    1
    34    34    35    1
    35    35    36    1
    36    36    37    1
    37    37    38    1
    38    38    39    1
    39    39    40    1
    40    40    41    1
    41    40    42    2
    42    40    43    2
    43    37    44    1
    44    44    45    1
    45    44    46    1
    46    46    47    1
    47    46    48    1
    48    48    49    1
    49    49    50    1
    50    50    51    1
    51    50    52    2
    52    50    53    2
    53    33    54    1
    54    54    55    1
    55    54    56    1
    56    56    57    1
    57    32    58    1
    58    58    59    1
    59    58    60    2
    60    28    61    1
    61    61    62    1
    62    62    63    1
    63    63    64    1
    64    63    65    2
    65    63    66    2
    66    61    67    1
    67    67    68    1
    68    68    69    1
    69    69    70    1
    70    69    71    2
    71    69    72    2
    72    17    73    1
    73    73    74    1
    74    73    75    1
    75    75    76    1
    76    76    77    1
    77    77    78    1
    78    77    79    2
    79    77    80    2
    80    16    81    1
    81    81    82    1
    82    81    83    2
    83    12    84    1
    84    84    85    1
    85    84    86    1
    86    86    87    1
    87    87    88    1
    88    88    89    1
    89    88    90    2
    90    88    91    2
    91    86     3    1
    92    75    14    1
    93    67    19    1
    94    56    30    1
    95    48    35    1
    96     1    92    1
    97     1    93    1
    98     1    94    1
    99     3    95    1
   100     5    96    1
   101     6    97    1
   102     6    98    1
   103     9    99    1
   104    12   100    1
   105    14   101    1
   106    16   102    1
   107    17   103    1
   108    19   104    1
   109    21   105    1
   110    22   106    1
   111    22   107    1
   112    25   108    1
   113    28   109    1
   114    30   110    1
   115    32   111    1
   116    33   112    1
   117    35   113    1
   118    37   114    1
   119    38   115    1
   120    38   116    1
   121    41   117    1
   122    44   118    1
   123    45   119    1
   124    46   120    1
   125    47   121    1
   126    48   122    1
   127    49   123    1
   128    51   124    1
   129    54   125    1
   130    55   126    1
   131    56   127    1
   132    57   128    1
   133    59   129    1
   134    61   130    1
   135    64   131    1
   136    67   132    1
   137    68   133    1
   138    70   134    1
   139    73   135    1
   140    74   136    1
   141    75   137    1
   142    78   138    1
   143    82   139    1
   144    84   140    1
   145    85   141    1
   146    86   142    1
   147    87   143    1
   148    89   144    1
