@<TRIPOS>MOLECULE
*****
 40 42 0 0 0
SMALL
GASTEIGER

@<TRIPOS>ATOM
      1 O          -2.8742    1.7905    0.7906 O.2     1  UNL1       -0.2258
      2 C          -3.0579    0.5532    0.8856 C.2     1  UNL1        0.4082
      3 O          -2.0124   -0.3317    0.5704 O.3     1  UNL1       -0.4114
      4 C          -0.8153    0.2438    0.1642 C.ar    1  UNL1        0.1335
      5 C           0.1855    0.5836    1.0503 C.ar    1  UNL1       -0.0157
      6 C           1.3792    1.1546    0.6703 C.ar    1  UNL1       -0.0158
      7 C           1.6202    1.4149   -0.6640 C.ar    1  UNL1        0.1306
      8 O           2.8264    1.9903   -1.0346 O.3     1  UNL1       -0.4380
      9 C           3.8852    1.1167   -1.3367 C.ar    1  UNL1        0.2205
     10 C           3.7009   -0.2448   -1.2587 C.ar    1  UNL1        0.0009
     11 C           4.7130   -1.1338   -1.5466 C.ar    1  UNL1       -0.0436
     12 C           5.9436   -0.6465   -1.9229 C.ar    1  UNL1        0.0731
     13 C           7.0860   -1.5692   -2.2493 C.3     1  UNL1        0.4188
     14 F           6.7242   -2.2527   -3.3994 F       1  UNL1       -0.1658
     15 F           7.3355   -2.4242   -1.1925 F       1  UNL1       -0.1658
     16 F           8.1793   -0.7780   -2.5086 F       1  UNL1       -0.1658
     17 C           6.0718    0.7223   -1.9843 C.ar    1  UNL1        0.0430
     18 N           5.0821    1.5780   -1.7026 N.ar    1  UNL1       -0.2204
     19 C           0.6414    1.0876   -1.5736 C.ar    1  UNL1       -0.0158
     20 C          -0.5423    0.5179   -1.1668 C.ar    1  UNL1       -0.0157
     21 N          -4.3236    0.0866    1.3110 N.am    1  UNL1       -0.2671
     22 C          -4.7255   -1.3042    1.4814 C.3     1  UNL1        0.0179
     23 C          -6.0048   -1.2779    2.2725 C.3     1  UNL1       -0.0356
     24 C          -6.0287    0.1260    2.8402 C.3     1  UNL1       -0.0356
     25 C          -5.4532    0.9142    1.6556 C.3     1  UNL1        0.0179
     26 H           0.0103    0.3834    2.1156 H       1  UNL1        0.0655
     27 H           2.1499    1.4086    1.4192 H       1  UNL1        0.0655
     28 H           2.7071   -0.6087   -0.9552 H       1  UNL1        0.0671
     29 H           4.5274   -2.1953   -1.4732 H       1  UNL1        0.0625
     30 H           7.0620    1.1088   -2.2871 H       1  UNL1        0.0836
     31 H           0.8403    1.2958   -2.6170 H       1  UNL1        0.0655
     32 H          -1.3182    0.2583   -1.8872 H       1  UNL1        0.0655
     33 H          -3.9168   -1.8507    2.0209 H       1  UNL1        0.0465
     34 H          -4.8827   -1.7526    0.4579 H       1  UNL1        0.0465
     35 H          -6.0347   -2.0488    3.0675 H       1  UNL1        0.0281
     36 H          -6.8721   -1.3584    1.5780 H       1  UNL1        0.0281
     37 H          -5.3213    0.1841    3.6748 H       1  UNL1        0.0281
     38 H          -7.0528    0.4688    3.0857 H       1  UNL1        0.0281
     39 H          -6.2377    0.8516    0.8602 H       1  UNL1        0.0465
     40 H          -5.1973    1.9381    1.9298 H       1  UNL1        0.0465
@<TRIPOS>BOND
     1     1     2    2
     2     2     3    1
     3     3     4    1
     4     4     5   ar
     5     5     6   ar
     6     6     7   ar
     7     7     8    1
     8     8     9    1
     9     9    10   ar
    10    10    11   ar
    11    11    12   ar
    12    12    13    1
    13    13    14    1
    14    13    15    1
    15    13    16    1
    16    12    17   ar
    17    17    18   ar
    18     7    19   ar
    19    19    20   ar
    20     2    21   am
    21    21    22    1
    22    22    23    1
    23    23    24    1
    24    24    25    1
    25    20     4   ar
    26    25    21    1
    27    18     9   ar
    28     5    26    1
    29     6    27    1
    30    10    28    1
    31    11    29    1
    32    17    30    1
    33    19    31    1
    34    20    32    1
    35    22    33    1
    36    22    34    1
    37    23    35    1
    38    23    36    1
    39    24    37    1
    40    24    38    1
    41    25    39    1
    42    25    40    1
