
     RDKit          3D

 40 42  0  0  0  0  0  0  0  0999 V2000
   -2.8742    1.7905    0.7906 O   0  0  0  0  0  0  0  0  0  0  0  0
   -3.0579    0.5532    0.8856 C   0  0  0  0  0  0  0  0  0  0  0  0
   -2.0124   -0.3317    0.5704 O   0  0  0  0  0  0  0  0  0  0  0  0
   -0.8153    0.2438    0.1642 C   0  0  0  0  0  0  0  0  0  0  0  0
    0.1855    0.5836    1.0503 C   0  0  0  0  0  0  0  0  0  0  0  0
    1.3792    1.1546    0.6703 C   0  0  0  0  0  0  0  0  0  0  0  0
    1.6202    1.4149   -0.6640 C   0  0  0  0  0  0  0  0  0  0  0  0
    2.8264    1.9903   -1.0346 O   0  0  0  0  0  0  0  0  0  0  0  0
    3.8852    1.1167   -1.3367 C   0  0  0  0  0  0  0  0  0  0  0  0
    3.7009   -0.2448   -1.2587 C   0  0  0  0  0  0  0  0  0  0  0  0
    4.7130   -1.1338   -1.5466 C   0  0  0  0  0  0  0  0  0  0  0  0
    5.9436   -0.6465   -1.9229 C   0  0  0  0  0  0  0  0  0  0  0  0
    7.0860   -1.5692   -2.2493 C   0  0  0  0  0  0  0  0  0  0  0  0
    6.7242   -2.2527   -3.3994 F   0  0  0  0  0  0  0  0  0  0  0  0
    7.3355   -2.4242   -1.1925 F   0  0  0  0  0  0  0  0  0  0  0  0
    8.1793   -0.7780   -2.5086 F   0  0  0  0  0  0  0  0  0  0  0  0
    6.0718    0.7223   -1.9843 C   0  0  0  0  0  0  0  0  0  0  0  0
    5.0821    1.5780   -1.7026 N   0  0  0  0  0  0  0  0  0  0  0  0
    0.6414    1.0876   -1.5736 C   0  0  0  0  0  0  0  0  0  0  0  0
   -0.5423    0.5179   -1.1668 C   0  0  0  0  0  0  0  0  0  0  0  0
   -4.3236    0.0866    1.3110 N   0  0  0  0  0  0  0  0  0  0  0  0
   -4.7255   -1.3042    1.4814 C   0  0  0  0  0  0  0  0  0  0  0  0
   -6.0048   -1.2779    2.2725 C   0  0  0  0  0  0  0  0  0  0  0  0
   -6.0287    0.1260    2.8402 C   0  0  0  0  0  0  0  0  0  0  0  0
   -5.4532    0.9142    1.6556 C   0  0  0  0  0  0  0  0  0  0  0  0
    0.0103    0.3834    2.1156 H   0  0  0  0  0  0  0  0  0  0  0  0
    2.1499    1.4086    1.4192 H   0  0  0  0  0  0  0  0  0  0  0  0
    2.7071   -0.6087   -0.9552 H   0  0  0  0  0  0  0  0  0  0  0  0
    4.5274   -2.1953   -1.4732 H   0  0  0  0  0  0  0  0  0  0  0  0
    7.0620    1.1088   -2.2871 H   0  0  0  0  0  0  0  0  0  0  0  0
    0.8403    1.2958   -2.6170 H   0  0  0  0  0  0  0  0  0  0  0  0
   -1.3182    0.2583   -1.8872 H   0  0  0  0  0  0  0  0  0  0  0  0
   -3.9168   -1.8507    2.0209 H   0  0  0  0  0  0  0  0  0  0  0  0
   -4.8827   -1.7526    0.4579 H   0  0  0  0  0  0  0  0  0  0  0  0
   -6.0347   -2.0488    3.0675 H   0  0  0  0  0  0  0  0  0  0  0  0
   -6.8721   -1.3584    1.5780 H   0  0  0  0  0  0  0  0  0  0  0  0
   -5.3213    0.1841    3.6748 H   0  0  0  0  0  0  0  0  0  0  0  0
   -7.0528    0.4688    3.0857 H   0  0  0  0  0  0  0  0  0  0  0  0
   -6.2377    0.8516    0.8602 H   0  0  0  0  0  0  0  0  0  0  0  0
   -5.1973    1.9381    1.9298 H   0  0  0  0  0  0  0  0  0  0  0  0
  1  2  2  0
  2  3  1  0
  3  4  1  0
  4  5  2  0
  5  6  1  0
  6  7  2  0
  7  8  1  0
  8  9  1  0
  9 10  2  0
 10 11  1  0
 11 12  2  0
 12 13  1  0
 13 14  1  0
 13 15  1  0
 13 16  1  0
 12 17  1  0
 17 18  2  0
  7 19  1  0
 19 20  2  0
  2 21  1  0
 21 22  1  0
 22 23  1  0
 23 24  1  0
 24 25  1  0
 20  4  1  0
 25 21  1  0
 18  9  1  0
  5 26  1  0
  6 27  1  0
 10 28  1  0
 11 29  1  0
 17 30  1  0
 19 31  1  0
 20 32  1  0
 22 33  1  0
 22 34  1  0
 23 35  1  0
 23 36  1  0
 24 37  1  0
 24 38  1  0
 25 39  1  0
 25 40  1  0
M  END
$$$$
