@<TRIPOS>MOLECULE
*****
 46 48 0 0 0
SMALL
GASTEIGER

@<TRIPOS>ATOM
      1 N          -6.1944    0.6782    0.7738 N.3     1  UNL1       -0.3272
      2 C          -4.9737   -0.0641    0.5217 C.3     1  UNL1        0.0049
      3 C          -4.8831   -0.2953   -0.9725 C.3     1  UNL1       -0.0375
      4 C          -3.4348   -0.3337   -1.4300 C.3     1  UNL1       -0.0474
      5 C          -2.6247   -0.8873   -0.2660 C.3     1  UNL1       -0.0254
      6 C          -1.4008   -1.5991   -0.7237 C.3     1  UNL1        0.0120
      7 N          -0.4564   -0.8445   -1.4652 N.pl3   1  UNL1       -0.3424
      8 C           0.5621   -0.0822   -0.8671 C.ar    1  UNL1        0.0485
      9 C           0.7880   -0.0505    0.4756 C.ar    1  UNL1       -0.0022
     10 C           1.8081    0.6695    1.0478 C.ar    1  UNL1        0.1517
     11 F           1.9664    0.6506    2.3927 F       1  UNL1       -0.2034
     12 C           2.6473    1.3964    0.2262 C.ar    1  UNL1        0.1450
     13 S           3.9419    2.3066    0.9878 S.O2    1  UNL1        0.0766
     14 O           3.3144    3.2397    1.9780 O.2     1  UNL1       -0.1498
     15 O           4.6799    3.1303   -0.0136 O.2     1  UNL1       -0.1498
     16 N           4.9554    1.2300    1.8377 N.pl3   1  UNL1       -0.1937
     17 C           5.6815    0.1756    1.1793 C.ar    1  UNL1        0.1774
     18 N           6.4202   -0.7109    1.3427 N.ar    1  UNL1       -0.2321
     19 C           6.9510   -1.5606    0.5086 C.ar    1  UNL1        0.0369
     20 C           6.5580   -1.3642   -0.8102 C.ar    1  UNL1       -0.0030
     21 S           5.4532    0.0397   -0.7056 S.2     1  UNL1       -0.0594
     22 C           2.4448    1.3832   -1.1335 C.ar    1  UNL1       -0.0121
     23 C           1.4219    0.6596   -1.6867 C.ar    1  UNL1        0.0638
     24 CL          1.1931    0.6670   -3.4371 Cl      1  UNL1       -0.0816
     25 C          -2.4700    0.1991    0.7236 C.3     1  UNL1       -0.0474
     26 C          -3.8289    0.8023    1.0138 C.3     1  UNL1       -0.0375
     27 H          -6.5771    1.1342   -0.0826 H       1  UNL1        0.1185
     28 H          -6.1199    1.3150    1.5916 H       1  UNL1        0.1185
     29 H          -5.0304   -1.0254    1.0747 H       1  UNL1        0.0458
     30 H          -5.4231    0.5295   -1.4801 H       1  UNL1        0.0280
     31 H          -5.4061   -1.2462   -1.1935 H       1  UNL1        0.0280
     32 H          -3.1247    0.7221   -1.5623 H       1  UNL1        0.0269
     33 H          -3.2960   -0.9096   -2.3528 H       1  UNL1        0.0269
     34 H          -3.2886   -1.6690    0.1999 H       1  UNL1        0.0316
     35 H          -0.9536   -2.0998    0.1776 H       1  UNL1        0.0464
     36 H          -1.7613   -2.4734   -1.3402 H       1  UNL1        0.0464
     37 H          -0.5264   -0.8600   -2.5057 H       1  UNL1        0.1461
     38 H           0.1757   -0.6191    1.1813 H       1  UNL1        0.0666
     39 H           5.1100    1.2663    2.8655 H       1  UNL1        0.1758
     40 H           7.6465   -2.3679    0.7846 H       1  UNL1        0.0835
     41 H           6.8441   -1.9336   -1.7583 H       1  UNL1        0.0710
     42 H           3.1394    1.9753   -1.7258 H       1  UNL1        0.0653
     43 H          -2.0838   -0.1425    1.7093 H       1  UNL1        0.0269
     44 H          -1.8701    1.0350    0.2877 H       1  UNL1        0.0269
     45 H          -3.9722    1.7964    0.5338 H       1  UNL1        0.0280
     46 H          -4.0030    0.9656    2.0972 H       1  UNL1        0.0280
@<TRIPOS>BOND
     1     1     2    1
     2     2     3    1
     3     3     4    1
     4     4     5    1
     5     5     6    1
     6     6     7    1
     7     7     8    1
     8     8     9   ar
     9     9    10   ar
    10    10    11    1
    11    10    12   ar
    12    12    13    1
    13    13    14    2
    14    13    15    2
    15    13    16    1
    16    16    17    1
    17    17    18   ar
    18    18    19   ar
    19    19    20   ar
    20    20    21   ar
    21    12    22   ar
    22    22    23   ar
    23    23    24    1
    24     5    25    1
    25    25    26    1
    26    26     2    1
    27    23     8   ar
    28    21    17   ar
    29     1    27    1
    30     1    28    1
    31     2    29    1
    32     3    30    1
    33     3    31    1
    34     4    32    1
    35     4    33    1
    36     5    34    1
    37     6    35    1
    38     6    36    1
    39     7    37    1
    40     9    38    1
    41    16    39    1
    42    19    40    1
    43    20    41    1
    44    22    42    1
    45    25    43    1
    46    25    44    1
    47    26    45    1
    48    26    46    1
