
     RDKit          3D

 46 48  0  0  0  0  0  0  0  0999 V2000
   -6.1944    0.6782    0.7738 N   0  0  0  0  0  0  0  0  0  0  0  0
   -4.9737   -0.0641    0.5217 C   0  0  1  0  0  0  0  0  0  0  0  0
   -4.8831   -0.2953   -0.9725 C   0  0  0  0  0  0  0  0  0  0  0  0
   -3.4348   -0.3337   -1.4300 C   0  0  0  0  0  0  0  0  0  0  0  0
   -2.6247   -0.8873   -0.2660 C   0  0  1  0  0  0  0  0  0  0  0  0
   -1.4008   -1.5991   -0.7237 C   0  0  0  0  0  0  0  0  0  0  0  0
   -0.4564   -0.8445   -1.4652 N   0  0  0  0  0  0  0  0  0  0  0  0
    0.5621   -0.0822   -0.8671 C   0  0  0  0  0  0  0  0  0  0  0  0
    0.7880   -0.0505    0.4756 C   0  0  0  0  0  0  0  0  0  0  0  0
    1.8081    0.6695    1.0478 C   0  0  0  0  0  0  0  0  0  0  0  0
    1.9664    0.6506    2.3927 F   0  0  0  0  0  0  0  0  0  0  0  0
    2.6473    1.3964    0.2262 C   0  0  0  0  0  0  0  0  0  0  0  0
    3.9419    2.3066    0.9878 S   0  0  0  0  0  6  0  0  0  0  0  0
    3.3144    3.2397    1.9780 O   0  0  0  0  0  0  0  0  0  0  0  0
    4.6799    3.1303   -0.0136 O   0  0  0  0  0  0  0  0  0  0  0  0
    4.9554    1.2300    1.8377 N   0  0  0  0  0  0  0  0  0  0  0  0
    5.6815    0.1756    1.1793 C   0  0  0  0  0  0  0  0  0  0  0  0
    6.4202   -0.7109    1.3427 N   0  0  0  0  0  0  0  0  0  0  0  0
    6.9510   -1.5606    0.5086 C   0  0  0  0  0  0  0  0  0  0  0  0
    6.5580   -1.3642   -0.8102 C   0  0  0  0  0  0  0  0  0  0  0  0
    5.4532    0.0397   -0.7056 S   0  0  0  0  0  0  0  0  0  0  0  0
    2.4448    1.3832   -1.1335 C   0  0  0  0  0  0  0  0  0  0  0  0
    1.4219    0.6596   -1.6867 C   0  0  0  0  0  0  0  0  0  0  0  0
    1.1931    0.6670   -3.4371 Cl  0  0  0  0  0  0  0  0  0  0  0  0
   -2.4700    0.1991    0.7236 C   0  0  0  0  0  0  0  0  0  0  0  0
   -3.8289    0.8023    1.0138 C   0  0  0  0  0  0  0  0  0  0  0  0
   -6.5771    1.1342   -0.0826 H   0  0  0  0  0  0  0  0  0  0  0  0
   -6.1199    1.3150    1.5916 H   0  0  0  0  0  0  0  0  0  0  0  0
   -5.0304   -1.0254    1.0747 H   0  0  0  0  0  0  0  0  0  0  0  0
   -5.4231    0.5295   -1.4801 H   0  0  0  0  0  0  0  0  0  0  0  0
   -5.4061   -1.2462   -1.1935 H   0  0  0  0  0  0  0  0  0  0  0  0
   -3.1247    0.7221   -1.5623 H   0  0  0  0  0  0  0  0  0  0  0  0
   -3.2960   -0.9096   -2.3528 H   0  0  0  0  0  0  0  0  0  0  0  0
   -3.2886   -1.6690    0.1999 H   0  0  0  0  0  0  0  0  0  0  0  0
   -0.9536   -2.0998    0.1776 H   0  0  0  0  0  0  0  0  0  0  0  0
   -1.7613   -2.4734   -1.3402 H   0  0  0  0  0  0  0  0  0  0  0  0
   -0.5264   -0.8600   -2.5057 H   0  0  0  0  0  0  0  0  0  0  0  0
    0.1757   -0.6191    1.1813 H   0  0  0  0  0  0  0  0  0  0  0  0
    5.1100    1.2663    2.8655 H   0  0  0  0  0  0  0  0  0  0  0  0
    7.6465   -2.3679    0.7846 H   0  0  0  0  0  0  0  0  0  0  0  0
    6.8441   -1.9336   -1.7583 H   0  0  0  0  0  0  0  0  0  0  0  0
    3.1394    1.9753   -1.7258 H   0  0  0  0  0  0  0  0  0  0  0  0
   -2.0838   -0.1425    1.7093 H   0  0  0  0  0  0  0  0  0  0  0  0
   -1.8701    1.0350    0.2877 H   0  0  0  0  0  0  0  0  0  0  0  0
   -3.9722    1.7964    0.5338 H   0  0  0  0  0  0  0  0  0  0  0  0
   -4.0030    0.9656    2.0972 H   0  0  0  0  0  0  0  0  0  0  0  0
  1  2  1  0
  2  3  1  0
  3  4  1  0
  4  5  1  0
  5  6  1  0
  6  7  1  0
  7  8  1  0
  8  9  2  0
  9 10  1  0
 10 11  1  0
 10 12  2  0
 12 13  1  0
 13 14  2  0
 13 15  2  0
 13 16  1  0
 16 17  1  0
 17 18  2  0
 18 19  1  0
 19 20  2  0
 20 21  1  0
 12 22  1  0
 22 23  2  0
 23 24  1  0
  5 25  1  0
 25 26  1  0
 26  2  1  0
 23  8  1  0
 21 17  1  0
  1 27  1  0
  1 28  1  0
  2 29  1  1
  3 30  1  0
  3 31  1  0
  4 32  1  0
  4 33  1  0
  5 34  1  1
  6 35  1  0
  6 36  1  0
  7 37  1  0
  9 38  1  0
 16 39  1  0
 19 40  1  0
 20 41  1  0
 22 42  1  0
 25 43  1  0
 25 44  1  0
 26 45  1  0
 26 46  1  0
M  END
$$$$
