@<TRIPOS>MOLECULE
*****
 95 98 0 0 0
SMALL
GASTEIGER

@<TRIPOS>ATOM
      1 C          -0.0092   -0.3322    2.5849 C.3     1  UNL1       -0.0221
      2 C           1.1500   -0.1849    1.6574 C.ar    1  UNL1        0.0451
      3 C           2.4034   -0.6275    1.9919 C.ar    1  UNL1       -0.0007
      4 C           3.4729   -0.4763    1.0986 C.ar    1  UNL1        0.1242
      5 N           4.7342   -0.9332    1.5269 N.pl3   1  UNL1       -0.3260
      6 C           5.9457   -0.8843    0.7519 C.3     1  UNL1        0.0248
      7 C           7.1552   -1.2377    1.6119 C.3     1  UNL1       -0.0186
      8 C           8.3113   -1.4217    0.6513 C.3     1  UNL1        0.0163
      9 N           8.6063   -0.1053    0.1165 N.am    1  UNL1       -0.3013
     10 C           9.9242    0.1702   -0.3926 C.2     1  UNL1        0.2168
     11 O          10.1525    1.3086   -0.8883 O.2     1  UNL1       -0.2756
     12 C          10.9936   -0.8233   -0.3462 C.3     1  UNL1        0.0367
     13 C          12.2975   -0.2252   -0.8397 C.3     1  UNL1        0.0046
     14 N          12.7358    0.8812   -0.0898 N.3     1  UNL1       -0.3062
     15 C          13.1666    0.6934    1.2395 C.3     1  UNL1        0.0943
     16 C          14.4357   -0.0232    1.4207 C.2     1  UNL1        0.3187
     17 O          15.0845   -0.4297    0.4332 O.2     1  UNL1       -0.2496
     18 O          14.9220   -0.2544    2.6906 O.3     1  UNL1       -0.4797
     19 C           7.5839    0.8989    0.1245 C.3     1  UNL1        0.0163
     20 C           6.1757    0.4025    0.0610 C.3     1  UNL1       -0.0186
     21 N           3.2079    0.1130   -0.0790 N.ar    1  UNL1       -0.1997
     22 C           1.9899    0.5479   -0.4183 C.ar    1  UNL1        0.2174
     23 N           1.6979    1.1613   -1.6505 N.pl3   1  UNL1       -0.3077
     24 C           1.0293    0.3978   -2.6627 C.3     1  UNL1        0.0574
     25 C          -0.2633   -0.1537   -2.1747 C.ar    1  UNL1        0.0998
     26 C          -1.5267    0.4434   -2.2384 C.ar    1  UNL1        0.0502
     27 N          -2.4174   -0.3764   -1.6905 N.ar    1  UNL1       -0.2514
     28 C          -3.8794   -0.2219   -1.5415 C.3     1  UNL1        0.0443
     29 C          -4.5067   -0.8082   -2.7506 C.3     1  UNL1       -0.0207
     30 C          -5.9681   -0.8649   -2.8794 C.3     1  UNL1       -0.0024
     31 N          -6.7738    0.2674   -2.8629 N.3     1  UNL1       -0.3159
     32 C          -7.0447    1.0006   -1.6971 C.3     1  UNL1       -0.0030
     33 C          -7.9217    0.2301   -0.7144 C.3     1  UNL1       -0.0278
     34 C          -8.1904    1.1098    0.4714 C.3     1  UNL1       -0.0027
     35 N          -9.0061    0.4128    1.4363 N.3     1  UNL1       -0.3132
     36 C         -10.3426    0.1446    1.0314 C.3     1  UNL1        0.0076
     37 C         -11.1884    1.3515    0.7729 C.3     1  UNL1       -0.0375
     38 C         -12.4129    0.9119   -0.0040 C.3     1  UNL1       -0.0516
     39 C         -12.9115   -0.4413    0.4573 C.3     1  UNL1       -0.0530
     40 C         -12.5142   -0.7636    1.8648 C.3     1  UNL1       -0.0516
     41 C         -11.0304   -0.6637    2.1154 C.3     1  UNL1       -0.0375
     42 N          -1.7678   -1.4666   -1.2823 N.ar    1  UNL1       -0.0654
     43 N          -0.4722   -1.3289   -1.5758 N.ar    1  UNL1       -0.1329
     44 N           0.9854    0.3960    0.4471 N.ar    1  UNL1       -0.2197
     45 H          -0.7354   -1.0094    2.0858 H       1  UNL1        0.0293
     46 H           0.3017   -0.6351    3.5808 H       1  UNL1        0.0293
     47 H          -0.4972    0.6721    2.6400 H       1  UNL1        0.0293
     48 H           2.5518   -1.0947    2.9622 H       1  UNL1        0.0670
     49 H           4.8469   -1.3599    2.4973 H       1  UNL1        0.1477
     50 H           5.9202   -1.7141   -0.0221 H       1  UNL1        0.0499
     51 H           7.3195   -0.3764    2.2949 H       1  UNL1        0.0298
     52 H           6.9441   -2.1412    2.1994 H       1  UNL1        0.0298
     53 H           7.9463   -2.0926   -0.1536 H       1  UNL1        0.0465
     54 H           9.1511   -1.8418    1.2133 H       1  UNL1        0.0465
     55 H          11.1599   -1.1607    0.7170 H       1  UNL1        0.0371
     56 H          10.7443   -1.7128   -0.9676 H       1  UNL1        0.0371
     57 H          12.0811    0.1427   -1.8900 H       1  UNL1        0.0429
     58 H          13.0753   -1.0164   -0.9665 H       1  UNL1        0.0429
     59 H          12.3311    1.7731   -0.3441 H       1  UNL1        0.1225
     60 H          13.2201    1.6771    1.7995 H       1  UNL1        0.0539
     61 H          12.3287    0.1588    1.7901 H       1  UNL1        0.0539
     62 H          15.6283   -0.9455    2.9215 H       1  UNL1        0.2951
     63 H           7.7798    1.6939   -0.6376 H       1  UNL1        0.0465
     64 H           7.6832    1.4257    1.1232 H       1  UNL1        0.0465
     65 H           5.5171    1.1964    0.5158 H       1  UNL1        0.0298
     66 H           5.7999    0.3403   -0.9940 H       1  UNL1        0.0298
     67 H           1.9656    2.1440   -1.8154 H       1  UNL1        0.1493
     68 H           1.6699   -0.4306   -2.9909 H       1  UNL1        0.0528
     69 H           0.8442    1.0632   -3.5362 H       1  UNL1        0.0528
     70 H          -1.7330    1.4100   -2.6634 H       1  UNL1        0.0846
     71 H          -4.0541    0.8953   -1.5812 H       1  UNL1        0.0510
     72 H          -4.2070   -0.6491   -0.5919 H       1  UNL1        0.0510
     73 H          -4.1157   -1.8782   -2.8635 H       1  UNL1        0.0295
     74 H          -4.1049   -0.3137   -3.7008 H       1  UNL1        0.0295
     75 H          -6.3717   -1.6918   -2.1863 H       1  UNL1        0.0425
     76 H          -6.1654   -1.3774   -3.8967 H       1  UNL1        0.0425
     77 H          -6.6254    0.8770   -3.6794 H       1  UNL1        0.1219
     78 H          -6.2343    1.4403   -1.1294 H       1  UNL1        0.0424
     79 H          -7.7061    1.8759   -2.0056 H       1  UNL1        0.0424
     80 H          -7.3208   -0.6539   -0.3590 H       1  UNL1        0.0290
     81 H          -8.8290   -0.1163   -1.2450 H       1  UNL1        0.0290
     82 H          -7.2146    1.3295    0.9571 H       1  UNL1        0.0424
     83 H          -8.6141    2.0953    0.1830 H       1  UNL1        0.0424
     84 H          -8.4879   -0.3839    1.8042 H       1  UNL1        0.1222
     85 H         -10.2883   -0.4900    0.1072 H       1  UNL1        0.0460
     86 H         -10.6933    2.1448    0.1863 H       1  UNL1        0.0280
     87 H         -11.5702    1.7128    1.7646 H       1  UNL1        0.0280
     88 H         -12.1627    0.7958   -1.0740 H       1  UNL1        0.0266
     89 H         -13.1676    1.7150    0.0726 H       1  UNL1        0.0266
     90 H         -14.0197   -0.4247    0.4167 H       1  UNL1        0.0265
     91 H         -12.5855   -1.2640   -0.2235 H       1  UNL1        0.0265
     92 H         -13.1006   -0.2031    2.6337 H       1  UNL1        0.0266
     93 H         -12.7871   -1.8349    2.0266 H       1  UNL1        0.0266
     94 H         -10.8827   -0.1322    3.0726 H       1  UNL1        0.0280
     95 H         -10.5496   -1.6669    2.1738 H       1  UNL1        0.0280
@<TRIPOS>BOND
     1     1     2    1
     2     2     3   ar
     3     3     4   ar
     4     4     5    1
     5     5     6    1
     6     6     7    1
     7     7     8    1
     8     8     9    1
     9     9    10   am
    10    10    11    2
    11    10    12    1
    12    12    13    1
    13    13    14    1
    14    14    15    1
    15    15    16    1
    16    16    17    2
    17    16    18    1
    18     9    19    1
    19    19    20    1
    20     4    21   ar
    21    21    22   ar
    22    22    23    1
    23    23    24    1
    24    24    25    1
    25    25    26   ar
    26    26    27   ar
    27    27    28    1
    28    28    29    1
    29    29    30    1
    30    30    31    1
    31    31    32    1
    32    32    33    1
    33    33    34    1
    34    34    35    1
    35    35    36    1
    36    36    37    1
    37    37    38    1
    38    38    39    1
    39    39    40    1
    40    40    41    1
    41    27    42   ar
    42    42    43   ar
    43    22    44   ar
    44    44     2   ar
    45    20     6    1
    46    43    25   ar
    47    41    36    1
    48     1    45    1
    49     1    46    1
    50     1    47    1
    51     3    48    1
    52     5    49    1
    53     6    50    1
    54     7    51    1
    55     7    52    1
    56     8    53    1
    57     8    54    1
    58    12    55    1
    59    12    56    1
    60    13    57    1
    61    13    58    1
    62    14    59    1
    63    15    60    1
    64    15    61    1
    65    18    62    1
    66    19    63    1
    67    19    64    1
    68    20    65    1
    69    20    66    1
    70    23    67    1
    71    24    68    1
    72    24    69    1
    73    26    70    1
    74    28    71    1
    75    28    72    1
    76    29    73    1
    77    29    74    1
    78    30    75    1
    79    30    76    1
    80    31    77    1
    81    32    78    1
    82    32    79    1
    83    33    80    1
    84    33    81    1
    85    34    82    1
    86    34    83    1
    87    35    84    1
    88    36    85    1
    89    37    86    1
    90    37    87    1
    91    38    88    1
    92    38    89    1
    93    39    90    1
    94    39    91    1
    95    40    92    1
    96    40    93    1
    97    41    94    1
    98    41    95    1
