@<TRIPOS>MOLECULE
*****
 42 45 0 0 0
SMALL
GASTEIGER

@<TRIPOS>ATOM
      1 O          -1.0112    2.5056    1.3331 O.2     1  UNL1       -0.2697
      2 C          -2.0961    2.0661    0.8626 C.2     1  UNL1        0.2523
      3 N          -3.1702    2.9276    0.5463 N.am    1  UNL1       -0.2483
      4 C          -4.3889    2.4520    0.0198 C.2     1  UNL1        0.2511
      5 O          -5.3565    3.2163   -0.2665 O.2     1  UNL1       -0.2698
      6 C          -4.5053    1.0051   -0.1922 C.ar    1  UNL1        0.0451
      7 C          -5.6934    0.5372   -0.7060 C.ar    1  UNL1       -0.0481
      8 C          -5.8810   -0.8056   -0.9336 C.ar    1  UNL1       -0.0479
      9 C          -4.8469   -1.6482   -0.6306 C.ar    1  UNL1        0.0140
     10 I          -5.0618   -3.7268   -0.9536 I       1  UNL1       -0.0438
     11 C          -3.6295   -1.2170   -0.1097 C.ar    1  UNL1       -0.0400
     12 C          -3.4513    0.1292    0.1146 C.ar    1  UNL1        0.0014
     13 C          -2.1876    0.5941    0.6573 C.2     1  UNL1        0.0584
     14 C          -1.1676   -0.1325    0.9682 C.2     1  UNL1        0.0025
     15 N          -0.8929   -1.5075    0.9159 N.pl3   1  UNL1       -0.3449
     16 C          -0.0841   -1.9727   -0.2047 C.3     1  UNL1        0.0341
     17 C           1.2264   -1.3076   -0.1764 C.ar    1  UNL1       -0.0239
     18 C           1.4757   -0.1187   -0.8163 C.ar    1  UNL1       -0.0403
     19 C           2.7232    0.4700   -0.7624 C.ar    1  UNL1        0.0136
     20 N           3.7099   -0.1084   -0.0857 N.ar    1  UNL1       -0.2811
     21 C           5.0265    0.4290    0.0220 C.ar    1  UNL1        0.0870
     22 C           5.9453    0.6406   -0.9790 C.ar    1  UNL1        0.0001
     23 C           7.0784    1.1750   -0.4138 C.ar    1  UNL1        0.0937
     24 O           6.8613    1.2868    0.8875 O.2     1  UNL1       -0.4689
     25 C           5.6401    0.8471    1.1745 C.ar    1  UNL1        0.1155
     26 C           3.4932   -1.2809    0.5549 C.ar    1  UNL1        0.2561
     27 O           4.4187   -1.8530    1.2075 O.2     1  UNL1       -0.2673
     28 C           2.2737   -1.8824    0.5180 C.ar    1  UNL1        0.0080
     29 H          -3.0720    3.9641    0.7039 H       1  UNL1        0.1581
     30 H          -6.4911    1.2486   -0.9326 H       1  UNL1        0.0626
     31 H          -6.8136   -1.1741   -1.3370 H       1  UNL1        0.0628
     32 H          -2.8625   -1.9128    0.1068 H       1  UNL1        0.0634
     33 H          -0.2627    0.4160    1.3818 H       1  UNL1        0.0786
     34 H          -1.1930   -2.2317    1.6122 H       1  UNL1        0.1459
     35 H          -0.5649   -1.7014   -1.1789 H       1  UNL1        0.0511
     36 H           0.0199   -3.0618   -0.2069 H       1  UNL1        0.0511
     37 H           0.6903    0.3845   -1.3809 H       1  UNL1        0.0635
     38 H           2.9322    1.4104   -1.2646 H       1  UNL1        0.0814
     39 H           5.8373    0.4382   -2.0299 H       1  UNL1        0.0670
     40 H           8.0138    1.4769   -0.8636 H       1  UNL1        0.1030
     41 H           5.2086    0.8262    2.1609 H       1  UNL1        0.1051
     42 H           2.1095   -2.8035    1.0233 H       1  UNL1        0.0675
@<TRIPOS>BOND
     1     1     2    2
     2     2     3   am
     3     3     4   am
     4     4     5    2
     5     4     6    1
     6     6     7   ar
     7     7     8   ar
     8     8     9   ar
     9     9    10    1
    10     9    11   ar
    11    11    12   ar
    12    12    13    1
    13    13    14    2
    14    14    15    1
    15    15    16    1
    16    16    17    1
    17    17    18   ar
    18    18    19   ar
    19    19    20   ar
    20    20    21    1
    21    21    22   ar
    22    22    23   ar
    23    23    24   ar
    24    24    25   ar
    25    20    26   ar
    26    26    27    2
    27    26    28   ar
    28    13     2    1
    29    28    17   ar
    30    12     6   ar
    31    25    21   ar
    32     3    29    1
    33     7    30    1
    34     8    31    1
    35    11    32    1
    36    14    33    1
    37    15    34    1
    38    16    35    1
    39    16    36    1
    40    18    37    1
    41    19    38    1
    42    22    39    1
    43    23    40    1
    44    25    41    1
    45    28    42    1
