@<TRIPOS>MOLECULE
*****
 62 66 0 0 0
SMALL
GASTEIGER

@<TRIPOS>ATOM
      1 C           6.8096   -0.6446   -0.1786 C.3     1  UNL1        0.0028
      2 N           6.3182    0.6725    0.1018 N.am    1  UNL1       -0.3074
      3 C           7.3242    1.7601    0.1675 C.3     1  UNL1        0.0028
      4 C           4.9786    1.0235    0.3167 C.2     1  UNL1        0.2182
      5 O           4.7464    2.2635    0.5491 O.2     1  UNL1       -0.2753
      6 C           3.8053    0.1554    0.3099 C.3     1  UNL1        0.0360
      7 C           3.6378   -0.5862   -0.9961 C.3     1  UNL1       -0.0386
      8 C           2.3517   -1.3822   -0.9639 C.3     1  UNL1       -0.0150
      9 C           1.5104   -1.1678    0.2435 C.3     1  UNL1        0.1034
     10 O           0.7273    0.0107    0.0445 O.3     1  UNL1       -0.4590
     11 C          -0.6510   -0.0619   -0.0672 C.ar    1  UNL1        0.3231
     12 N          -1.3151    1.1162   -0.2556 N.ar    1  UNL1       -0.1750
     13 C          -2.6439    1.1472   -0.3745 C.ar    1  UNL1        0.1692
     14 C          -3.3287    2.4297   -0.5762 C.ar    1  UNL1        0.0300
     15 C          -4.7150    2.4254   -0.6962 C.ar    1  UNL1       -0.0503
     16 C          -5.4243    3.5826   -0.8862 C.ar    1  UNL1       -0.0591
     17 C          -4.7849    4.7991   -0.9654 C.ar    1  UNL1       -0.0363
     18 C          -3.4020    4.7871   -0.8439 C.ar    1  UNL1        0.0664
     19 N          -2.5129    5.8040   -0.8793 N.ar    1  UNL1       -0.2769
     20 N          -1.3008    5.3132   -0.7196 N.ar    1  UNL1       -0.1812
     21 C          -1.3476    3.9657   -0.5743 C.ar    1  UNL1        0.0576
     22 C          -2.6787    3.6270   -0.6524 C.ar    1  UNL1        0.0301
     23 N          -3.3040   -0.0113   -0.3033 N.ar    1  UNL1       -0.1944
     24 C          -2.7057   -1.1971   -0.1198 C.ar    1  UNL1        0.2243
     25 N          -3.4284   -2.4164   -0.0473 N.pl3   1  UNL1       -0.2951
     26 C          -2.7911   -3.6963    0.1491 C.3     1  UNL1        0.0384
     27 C          -3.6966   -4.7681   -0.4350 C.3     1  UNL1        0.0635
     28 O          -4.3879   -4.3327   -1.5390 O.3     1  UNL1       -0.3767
     29 C          -5.2451   -3.2864   -1.3159 C.3     1  UNL1        0.0635
     30 C          -4.8694   -2.3984   -0.1734 C.3     1  UNL1        0.0384
     31 N          -1.3456   -1.2093   -0.0002 N.ar    1  UNL1       -0.1610
     32 C           2.2216   -1.1808    1.5541 C.3     1  UNL1       -0.0150
     33 C           3.7193   -0.8592    1.4002 C.3     1  UNL1       -0.0386
     34 H           6.3590   -1.4619    0.3779 H       1  UNL1        0.0428
     35 H           7.9121   -0.6889    0.0689 H       1  UNL1        0.0428
     36 H           6.7721   -0.9118   -1.2680 H       1  UNL1        0.0428
     37 H           8.3241    1.3337    0.3858 H       1  UNL1        0.0428
     38 H           7.0499    2.4442    0.9868 H       1  UNL1        0.0428
     39 H           7.3165    2.3290   -0.7688 H       1  UNL1        0.0428
     40 H           2.8789    0.8011    0.4231 H       1  UNL1        0.0394
     41 H           3.6847    0.1438   -1.8091 H       1  UNL1        0.0274
     42 H           4.4511   -1.3367   -1.0598 H       1  UNL1        0.0274
     43 H           2.5064   -2.4650   -1.1619 H       1  UNL1        0.0301
     44 H           1.7532   -1.0182   -1.8498 H       1  UNL1        0.0301
     45 H           0.7898   -2.0429    0.2780 H       1  UNL1        0.0734
     46 H          -5.2087    1.4467   -0.6307 H       1  UNL1        0.0625
     47 H          -6.5219    3.5373   -0.9765 H       1  UNL1        0.0618
     48 H          -5.3288    5.7374   -1.1167 H       1  UNL1        0.0639
     49 H          -2.7410    6.8123   -1.0109 H       1  UNL1        0.1889
     50 H          -0.5257    3.2926   -0.4282 H       1  UNL1        0.0854
     51 H          -2.7573   -3.8756    1.2617 H       1  UNL1        0.0487
     52 H          -1.7670   -3.7495   -0.2239 H       1  UNL1        0.0487
     53 H          -4.3502   -5.2085    0.3549 H       1  UNL1        0.0575
     54 H          -3.0253   -5.5903   -0.7624 H       1  UNL1        0.0575
     55 H          -5.2399   -2.6571   -2.2522 H       1  UNL1        0.0575
     56 H          -6.3024   -3.5953   -1.1855 H       1  UNL1        0.0575
     57 H          -5.3566   -2.6935    0.7801 H       1  UNL1        0.0487
     58 H          -5.2396   -1.3672   -0.4040 H       1  UNL1        0.0487
     59 H           2.1715   -2.1397    2.0939 H       1  UNL1        0.0301
     60 H           1.8107   -0.3697    2.1951 H       1  UNL1        0.0301
     61 H           4.1526   -1.8204    1.0414 H       1  UNL1        0.0274
     62 H           4.1602   -0.5699    2.3516 H       1  UNL1        0.0274
@<TRIPOS>BOND
     1     1     2    1
     2     2     3    1
     3     2     4   am
     4     4     5    2
     5     4     6    1
     6     6     7    1
     7     7     8    1
     8     8     9    1
     9     9    10    1
    10    10    11    1
    11    11    12   ar
    12    12    13   ar
    13    13    14    1
    14    14    15   ar
    15    15    16   ar
    16    16    17   ar
    17    17    18   ar
    18    18    19   ar
    19    19    20   ar
    20    20    21   ar
    21    21    22   ar
    22    13    23   ar
    23    23    24   ar
    24    24    25    1
    25    25    26    1
    26    26    27    1
    27    27    28    1
    28    28    29    1
    29    29    30    1
    30    24    31   ar
    31     9    32    1
    32    32    33    1
    33    33     6    1
    34    31    11   ar
    35    22    14   ar
    36    30    25    1
    37    22    18   ar
    38     1    34    1
    39     1    35    1
    40     1    36    1
    41     3    37    1
    42     3    38    1
    43     3    39    1
    44     6    40    1
    45     7    41    1
    46     7    42    1
    47     8    43    1
    48     8    44    1
    49     9    45    1
    50    15    46    1
    51    16    47    1
    52    17    48    1
    53    19    49    1
    54    21    50    1
    55    26    51    1
    56    26    52    1
    57    27    53    1
    58    27    54    1
    59    29    55    1
    60    29    56    1
    61    30    57    1
    62    30    58    1
    63    32    59    1
    64    32    60    1
    65    33    61    1
    66    33    62    1
