@<TRIPOS>MOLECULE
*****
 103 105 0 0 0
SMALL
GASTEIGER

@<TRIPOS>ATOM
      1 C           6.8645    5.1258    4.9099 C.3     1  UNL1        0.0788
      2 O           7.3149    4.6373    3.6933 O.3     1  UNL1       -0.4951
      3 C           6.6440    4.0435    2.6866 C.ar    1  UNL1        0.1201
      4 C           5.3047    3.8032    2.6889 C.ar    1  UNL1       -0.0197
      5 C           4.6516    3.1990    1.6400 C.ar    1  UNL1       -0.0550
      6 C           5.3042    2.7944    0.5132 C.ar    1  UNL1       -0.0449
      7 C           4.6397    2.1977   -0.6567 C.3     1  UNL1       -0.0007
      8 C           4.3792    0.7111   -0.5955 C.3     1  UNL1        0.1033
      9 N           3.7224    0.3359   -1.8748 N.am    1  UNL1       -0.3036
     10 C           4.0123   -0.8915   -2.4956 C.2     1  UNL1        0.2154
     11 O           4.8645   -1.6232   -1.8679 O.2     1  UNL1       -0.2757
     12 C           3.4144   -1.3650   -3.7677 C.3     1  UNL1        0.0415
     13 C           3.8262   -2.7781   -4.0924 C.3     1  UNL1        0.0191
     14 C           5.2979   -2.9854   -4.2365 C.3     1  UNL1       -0.0468
     15 C           3.0804   -3.2117   -5.3540 C.3     1  UNL1       -0.0468
     16 N           3.3592   -3.6206   -2.9929 N.3     1  UNL1       -0.3247
     17 C           3.3480    0.4567    0.4993 C.2     1  UNL1        0.2343
     18 O           3.7338    0.3475    1.6837 O.2     1  UNL1       -0.2738
     19 N           2.0086    0.3675    0.1075 N.am    1  UNL1       -0.3021
     20 C           0.9533    0.1412    1.0591 C.3     1  UNL1        0.1047
     21 C           0.8615    1.3655    1.9488 C.3     1  UNL1        0.0160
     22 C           0.5627    2.6295    1.2557 C.ar    1  UNL1        0.0375
     23 C           0.4890    3.8417    1.9532 C.ar    1  UNL1        0.0485
     24 N           0.2230    4.8101    1.0844 N.ar    1  UNL1       -0.2440
     25 C           0.1300    4.2365   -0.1326 C.ar    1  UNL1        0.0935
     26 N           0.3361    2.9093   -0.0282 N.ar    1  UNL1       -0.3481
     27 C          -0.3398   -0.1551    0.4394 C.2     1  UNL1        0.2340
     28 O          -0.4923   -0.2709   -0.8072 O.2     1  UNL1       -0.2738
     29 N          -1.5181   -0.3259    1.2194 N.am    1  UNL1       -0.3084
     30 C          -2.8075   -0.5823    0.5752 C.3     1  UNL1        0.0517
     31 C          -3.5737   -1.5919    1.3288 C.3     1  UNL1       -0.0292
     32 C          -2.8447   -2.9494    1.4496 C.3     1  UNL1       -0.0393
     33 C          -2.5581   -3.5453    0.0949 C.3     1  UNL1       -0.0502
     34 C          -3.2665   -4.8643   -0.1288 C.3     1  UNL1       -0.0528
     35 C          -4.7329   -4.6990    0.2517 C.3     1  UNL1       -0.0530
     36 C          -4.7611   -4.5893    1.7458 C.3     1  UNL1       -0.0528
     37 C          -3.6217   -3.8640    2.3625 C.3     1  UNL1       -0.0502
     38 C          -3.4608    0.8128    0.5887 C.3     1  UNL1        0.0993
     39 O          -2.5537    1.6337   -0.1697 O.3     1  UNL1       -0.3874
     40 C          -4.7699    0.9002   -0.0937 C.3     1  UNL1        0.0830
     41 O          -4.7594    0.3328   -1.3295 O.3     1  UNL1       -0.3892
     42 C          -5.9882    0.7579    0.7387 C.3     1  UNL1       -0.0220
     43 C          -7.2944    0.8358    0.0177 C.3     1  UNL1       -0.0443
     44 C          -7.5137   -0.1976   -1.0331 C.3     1  UNL1       -0.0626
     45 C          -7.5925    2.2248   -0.5020 C.3     1  UNL1       -0.0626
     46 C           6.7005    3.0271    0.4754 C.ar    1  UNL1       -0.0550
     47 C           7.3289    3.6301    1.5333 C.ar    1  UNL1       -0.0197
     48 H           7.4568    4.7056    5.7630 H       1  UNL1        0.0660
     49 H           6.9516    6.2516    4.9131 H       1  UNL1        0.0660
     50 H           5.8054    4.8753    5.0699 H       1  UNL1        0.0660
     51 H           4.7280    4.1072    3.5848 H       1  UNL1        0.0654
     52 H           3.5968    3.0476    1.7336 H       1  UNL1        0.0621
     53 H           5.2703    2.3446   -1.5809 H       1  UNL1        0.0336
     54 H           3.6771    2.7548   -0.8172 H       1  UNL1        0.0336
     55 H           5.2812    0.1550   -0.3970 H       1  UNL1        0.0598
     56 H           3.0689    1.0027   -2.2863 H       1  UNL1        0.1495
     57 H           3.6732   -0.6857   -4.5764 H       1  UNL1        0.0376
     58 H           2.3022   -1.4065   -3.5780 H       1  UNL1        0.0376
     59 H           5.4740   -3.8758   -4.8975 H       1  UNL1        0.0247
     60 H           5.8537   -2.1309   -4.6341 H       1  UNL1        0.0247
     61 H           5.7207   -3.2797   -3.2504 H       1  UNL1        0.0247
     62 H           2.6743   -4.2173   -5.1736 H       1  UNL1        0.0247
     63 H           3.7226   -3.1429   -6.2569 H       1  UNL1        0.0247
     64 H           2.1748   -2.5495   -5.4819 H       1  UNL1        0.0247
     65 H           4.1007   -3.7704   -2.2748 H       1  UNL1        0.1187
     66 H           2.4809   -3.2956   -2.5729 H       1  UNL1        0.1187
     67 H           1.7056    0.4458   -0.8992 H       1  UNL1        0.1495
     68 H           1.3255   -0.6512    1.7780 H       1  UNL1        0.0598
     69 H           0.1792    1.1889    2.8128 H       1  UNL1        0.0351
     70 H           1.8657    1.5068    2.4179 H       1  UNL1        0.0351
     71 H           0.6209    3.9669    3.0121 H       1  UNL1        0.0848
     72 H          -0.0758    4.7360   -1.0843 H       1  UNL1        0.1027
     73 H           0.2973    2.2826   -0.8491 H       1  UNL1        0.1665
     74 H          -1.4698   -0.2667    2.2339 H       1  UNL1        0.1491
     75 H          -2.6413   -0.8517   -0.5078 H       1  UNL1        0.0525
     76 H          -3.8622   -1.3047    2.3428 H       1  UNL1        0.0287
     77 H          -4.5247   -1.8962    0.7985 H       1  UNL1        0.0287
     78 H          -1.8805   -2.7576    1.9524 H       1  UNL1        0.0301
     79 H          -1.5138   -3.5428   -0.2068 H       1  UNL1        0.0268
     80 H          -3.0665   -2.8418   -0.6414 H       1  UNL1        0.0268
     81 H          -3.2382   -5.1062   -1.2064 H       1  UNL1        0.0265
     82 H          -2.8577   -5.6989    0.4465 H       1  UNL1        0.0265
     83 H          -5.2196   -3.8931   -0.2924 H       1  UNL1        0.0265
     84 H          -5.2594   -5.6472   -0.0249 H       1  UNL1        0.0265
     85 H          -4.6946   -5.6524    2.1378 H       1  UNL1        0.0265
     86 H          -5.7708   -4.2464    2.0869 H       1  UNL1        0.0265
     87 H          -4.0093   -3.2170    3.1819 H       1  UNL1        0.0268
     88 H          -2.8785   -4.5414    2.8616 H       1  UNL1        0.0268
     89 H          -3.4026    1.1856    1.6134 H       1  UNL1        0.0638
     90 H          -2.7781    1.5890   -1.1138 H       1  UNL1        0.2100
     91 H          -4.8119    2.0596   -0.3690 H       1  UNL1        0.0620
     92 H          -4.8278   -0.6690   -1.2312 H       1  UNL1        0.2099
     93 H          -5.9514   -0.1739    1.3194 H       1  UNL1        0.0293
     94 H          -6.0461    1.5661    1.5274 H       1  UNL1        0.0293
     95 H          -8.0834    0.6348    0.8106 H       1  UNL1        0.0296
     96 H          -7.1082   -1.1634   -0.6373 H       1  UNL1        0.0232
     97 H          -7.0958    0.0700   -2.0260 H       1  UNL1        0.0232
     98 H          -8.6066   -0.3637   -1.1446 H       1  UNL1        0.0232
     99 H          -6.6516    2.6526   -0.9196 H       1  UNL1        0.0232
    100 H          -7.9263    2.9092    0.3060 H       1  UNL1        0.0232
    101 H          -8.3475    2.2610   -1.2987 H       1  UNL1        0.0232
    102 H           7.2731    2.7193   -0.4078 H       1  UNL1        0.0621
    103 H           8.4137    3.8231    1.5479 H       1  UNL1        0.0654
@<TRIPOS>BOND
     1     1     2    1
     2     2     3    1
     3     3     4   ar
     4     4     5   ar
     5     5     6   ar
     6     6     7    1
     7     7     8    1
     8     8     9    1
     9     9    10   am
    10    10    11    2
    11    10    12    1
    12    12    13    1
    13    13    14    1
    14    13    15    1
    15    13    16    1
    16     8    17    1
    17    17    18    2
    18    17    19   am
    19    19    20    1
    20    20    21    1
    21    21    22    1
    22    22    23   ar
    23    23    24   ar
    24    24    25   ar
    25    25    26   ar
    26    20    27    1
    27    27    28    2
    28    27    29   am
    29    29    30    1
    30    30    31    1
    31    31    32    1
    32    32    33    1
    33    33    34    1
    34    34    35    1
    35    35    36    1
    36    36    37    1
    37    30    38    1
    38    38    39    1
    39    38    40    1
    40    40    41    1
    41    40    42    1
    42    42    43    1
    43    43    44    1
    44    43    45    1
    45     6    46   ar
    46    46    47   ar
    47    47     3   ar
    48    26    22   ar
    49    37    32    1
    50     1    48    1
    51     1    49    1
    52     1    50    1
    53     4    51    1
    54     5    52    1
    55     7    53    1
    56     7    54    1
    57     8    55    1
    58     9    56    1
    59    12    57    1
    60    12    58    1
    61    14    59    1
    62    14    60    1
    63    14    61    1
    64    15    62    1
    65    15    63    1
    66    15    64    1
    67    16    65    1
    68    16    66    1
    69    19    67    1
    70    20    68    1
    71    21    69    1
    72    21    70    1
    73    23    71    1
    74    25    72    1
    75    26    73    1
    76    29    74    1
    77    30    75    1
    78    31    76    1
    79    31    77    1
    80    32    78    1
    81    33    79    1
    82    33    80    1
    83    34    81    1
    84    34    82    1
    85    35    83    1
    86    35    84    1
    87    36    85    1
    88    36    86    1
    89    37    87    1
    90    37    88    1
    91    38    89    1
    92    39    90    1
    93    40    91    1
    94    41    92    1
    95    42    93    1
    96    42    94    1
    97    43    95    1
    98    44    96    1
    99    44    97    1
   100    44    98    1
   101    45    99    1
   102    45   100    1
   103    45   101    1
   104    46   102    1
   105    47   103    1
