
     RDKit          3D

103105  0  0  0  0  0  0  0  0999 V2000
    6.8645    5.1258    4.9099 C   0  0  0  0  0  0  0  0  0  0  0  0
    7.3149    4.6373    3.6933 O   0  0  0  0  0  0  0  0  0  0  0  0
    6.6440    4.0435    2.6866 C   0  0  0  0  0  0  0  0  0  0  0  0
    5.3047    3.8032    2.6889 C   0  0  0  0  0  0  0  0  0  0  0  0
    4.6516    3.1990    1.6400 C   0  0  0  0  0  0  0  0  0  0  0  0
    5.3042    2.7944    0.5132 C   0  0  0  0  0  0  0  0  0  0  0  0
    4.6397    2.1977   -0.6567 C   0  0  0  0  0  0  0  0  0  0  0  0
    4.3792    0.7111   -0.5955 C   0  0  2  0  0  0  0  0  0  0  0  0
    3.7224    0.3359   -1.8748 N   0  0  0  0  0  0  0  0  0  0  0  0
    4.0123   -0.8915   -2.4956 C   0  0  0  0  0  0  0  0  0  0  0  0
    4.8645   -1.6232   -1.8679 O   0  0  0  0  0  0  0  0  0  0  0  0
    3.4144   -1.3650   -3.7677 C   0  0  0  0  0  0  0  0  0  0  0  0
    3.8262   -2.7781   -4.0924 C   0  0  0  0  0  0  0  0  0  0  0  0
    5.2979   -2.9854   -4.2365 C   0  0  0  0  0  0  0  0  0  0  0  0
    3.0804   -3.2117   -5.3540 C   0  0  0  0  0  0  0  0  0  0  0  0
    3.3592   -3.6206   -2.9929 N   0  0  0  0  0  0  0  0  0  0  0  0
    3.3480    0.4567    0.4993 C   0  0  0  0  0  0  0  0  0  0  0  0
    3.7338    0.3475    1.6837 O   0  0  0  0  0  0  0  0  0  0  0  0
    2.0086    0.3675    0.1075 N   0  0  0  0  0  0  0  0  0  0  0  0
    0.9533    0.1412    1.0591 C   0  0  1  0  0  0  0  0  0  0  0  0
    0.8615    1.3655    1.9488 C   0  0  0  0  0  0  0  0  0  0  0  0
    0.5627    2.6295    1.2557 C   0  0  0  0  0  0  0  0  0  0  0  0
    0.4890    3.8417    1.9532 C   0  0  0  0  0  0  0  0  0  0  0  0
    0.2230    4.8101    1.0844 N   0  0  0  0  0  0  0  0  0  0  0  0
    0.1300    4.2365   -0.1326 C   0  0  0  0  0  0  0  0  0  0  0  0
    0.3361    2.9093   -0.0282 N   0  0  0  0  0  0  0  0  0  0  0  0
   -0.3398   -0.1551    0.4394 C   0  0  0  0  0  0  0  0  0  0  0  0
   -0.4923   -0.2709   -0.8072 O   0  0  0  0  0  0  0  0  0  0  0  0
   -1.5181   -0.3259    1.2194 N   0  0  0  0  0  0  0  0  0  0  0  0
   -2.8075   -0.5823    0.5752 C   0  0  1  0  0  0  0  0  0  0  0  0
   -3.5737   -1.5919    1.3288 C   0  0  0  0  0  0  0  0  0  0  0  0
   -2.8447   -2.9494    1.4496 C   0  0  0  0  0  0  0  0  0  0  0  0
   -2.5581   -3.5453    0.0949 C   0  0  0  0  0  0  0  0  0  0  0  0
   -3.2665   -4.8643   -0.1288 C   0  0  0  0  0  0  0  0  0  0  0  0
   -4.7329   -4.6990    0.2517 C   0  0  0  0  0  0  0  0  0  0  0  0
   -4.7611   -4.5893    1.7458 C   0  0  0  0  0  0  0  0  0  0  0  0
   -3.6217   -3.8640    2.3625 C   0  0  0  0  0  0  0  0  0  0  0  0
   -3.4608    0.8128    0.5887 C   0  0  1  0  0  0  0  0  0  0  0  0
   -2.5537    1.6337   -0.1697 O   0  0  0  0  0  0  0  0  0  0  0  0
   -4.7699    0.9002   -0.0937 C   0  0  1  0  0  0  0  0  0  0  0  0
   -4.7594    0.3328   -1.3295 O   0  0  0  0  0  0  0  0  0  0  0  0
   -5.9882    0.7579    0.7387 C   0  0  0  0  0  0  0  0  0  0  0  0
   -7.2944    0.8358    0.0177 C   0  0  0  0  0  0  0  0  0  0  0  0
   -7.5137   -0.1976   -1.0331 C   0  0  0  0  0  0  0  0  0  0  0  0
   -7.5925    2.2248   -0.5020 C   0  0  0  0  0  0  0  0  0  0  0  0
    6.7005    3.0271    0.4754 C   0  0  0  0  0  0  0  0  0  0  0  0
    7.3289    3.6301    1.5333 C   0  0  0  0  0  0  0  0  0  0  0  0
    7.4568    4.7056    5.7630 H   0  0  0  0  0  0  0  0  0  0  0  0
    6.9516    6.2516    4.9131 H   0  0  0  0  0  0  0  0  0  0  0  0
    5.8054    4.8753    5.0699 H   0  0  0  0  0  0  0  0  0  0  0  0
    4.7280    4.1072    3.5848 H   0  0  0  0  0  0  0  0  0  0  0  0
    3.5968    3.0476    1.7336 H   0  0  0  0  0  0  0  0  0  0  0  0
    5.2703    2.3446   -1.5809 H   0  0  0  0  0  0  0  0  0  0  0  0
    3.6771    2.7548   -0.8172 H   0  0  0  0  0  0  0  0  0  0  0  0
    5.2812    0.1550   -0.3970 H   0  0  0  0  0  0  0  0  0  0  0  0
    3.0689    1.0027   -2.2863 H   0  0  0  0  0  0  0  0  0  0  0  0
    3.6732   -0.6857   -4.5764 H   0  0  0  0  0  0  0  0  0  0  0  0
    2.3022   -1.4065   -3.5780 H   0  0  0  0  0  0  0  0  0  0  0  0
    5.4740   -3.8758   -4.8975 H   0  0  0  0  0  0  0  0  0  0  0  0
    5.8537   -2.1309   -4.6341 H   0  0  0  0  0  0  0  0  0  0  0  0
    5.7207   -3.2797   -3.2504 H   0  0  0  0  0  0  0  0  0  0  0  0
    2.6743   -4.2173   -5.1736 H   0  0  0  0  0  0  0  0  0  0  0  0
    3.7226   -3.1429   -6.2569 H   0  0  0  0  0  0  0  0  0  0  0  0
    2.1748   -2.5495   -5.4819 H   0  0  0  0  0  0  0  0  0  0  0  0
    4.1007   -3.7704   -2.2748 H   0  0  0  0  0  0  0  0  0  0  0  0
    2.4809   -3.2956   -2.5729 H   0  0  0  0  0  0  0  0  0  0  0  0
    1.7056    0.4458   -0.8992 H   0  0  0  0  0  0  0  0  0  0  0  0
    1.3255   -0.6512    1.7780 H   0  0  0  0  0  0  0  0  0  0  0  0
    0.1792    1.1889    2.8128 H   0  0  0  0  0  0  0  0  0  0  0  0
    1.8657    1.5068    2.4179 H   0  0  0  0  0  0  0  0  0  0  0  0
    0.6209    3.9669    3.0121 H   0  0  0  0  0  0  0  0  0  0  0  0
   -0.0758    4.7360   -1.0843 H   0  0  0  0  0  0  0  0  0  0  0  0
    0.2973    2.2826   -0.8491 H   0  0  0  0  0  0  0  0  0  0  0  0
   -1.4698   -0.2667    2.2339 H   0  0  0  0  0  0  0  0  0  0  0  0
   -2.6413   -0.8517   -0.5078 H   0  0  0  0  0  0  0  0  0  0  0  0
   -3.8622   -1.3047    2.3428 H   0  0  0  0  0  0  0  0  0  0  0  0
   -4.5247   -1.8962    0.7985 H   0  0  0  0  0  0  0  0  0  0  0  0
   -1.8805   -2.7576    1.9524 H   0  0  0  0  0  0  0  0  0  0  0  0
   -1.5138   -3.5428   -0.2068 H   0  0  0  0  0  0  0  0  0  0  0  0
   -3.0665   -2.8418   -0.6414 H   0  0  0  0  0  0  0  0  0  0  0  0
   -3.2382   -5.1062   -1.2064 H   0  0  0  0  0  0  0  0  0  0  0  0
   -2.8577   -5.6989    0.4465 H   0  0  0  0  0  0  0  0  0  0  0  0
   -5.2196   -3.8931   -0.2924 H   0  0  0  0  0  0  0  0  0  0  0  0
   -5.2594   -5.6472   -0.0249 H   0  0  0  0  0  0  0  0  0  0  0  0
   -4.6946   -5.6524    2.1378 H   0  0  0  0  0  0  0  0  0  0  0  0
   -5.7708   -4.2464    2.0869 H   0  0  0  0  0  0  0  0  0  0  0  0
   -4.0093   -3.2170    3.1819 H   0  0  0  0  0  0  0  0  0  0  0  0
   -2.8785   -4.5414    2.8616 H   0  0  0  0  0  0  0  0  0  0  0  0
   -3.4026    1.1856    1.6134 H   0  0  0  0  0  0  0  0  0  0  0  0
   -2.7781    1.5890   -1.1138 H   0  0  0  0  0  0  0  0  0  0  0  0
   -4.8119    2.0596   -0.3690 H   0  0  0  0  0  0  0  0  0  0  0  0
   -4.8278   -0.6690   -1.2312 H   0  0  0  0  0  0  0  0  0  0  0  0
   -5.9514   -0.1739    1.3194 H   0  0  0  0  0  0  0  0  0  0  0  0
   -6.0461    1.5661    1.5274 H   0  0  0  0  0  0  0  0  0  0  0  0
   -8.0834    0.6348    0.8106 H   0  0  0  0  0  0  0  0  0  0  0  0
   -7.1082   -1.1634   -0.6373 H   0  0  0  0  0  0  0  0  0  0  0  0
   -7.0958    0.0700   -2.0260 H   0  0  0  0  0  0  0  0  0  0  0  0
   -8.6066   -0.3637   -1.1446 H   0  0  0  0  0  0  0  0  0  0  0  0
   -6.6516    2.6526   -0.9196 H   0  0  0  0  0  0  0  0  0  0  0  0
   -7.9263    2.9092    0.3060 H   0  0  0  0  0  0  0  0  0  0  0  0
   -8.3475    2.2610   -1.2987 H   0  0  0  0  0  0  0  0  0  0  0  0
    7.2731    2.7193   -0.4078 H   0  0  0  0  0  0  0  0  0  0  0  0
    8.4137    3.8231    1.5479 H   0  0  0  0  0  0  0  0  0  0  0  0
  1  2  1  0
  2  3  1  0
  3  4  2  0
  4  5  1  0
  5  6  2  0
  6  7  1  0
  7  8  1  0
  8  9  1  0
  9 10  1  0
 10 11  2  0
 10 12  1  0
 12 13  1  0
 13 14  1  0
 13 15  1  0
 13 16  1  0
  8 17  1  0
 17 18  2  0
 17 19  1  0
 19 20  1  0
 20 21  1  0
 21 22  1  0
 22 23  2  0
 23 24  1  0
 24 25  2  0
 25 26  1  0
 20 27  1  0
 27 28  2  0
 27 29  1  0
 29 30  1  0
 30 31  1  0
 31 32  1  0
 32 33  1  0
 33 34  1  0
 34 35  1  0
 35 36  1  0
 36 37  1  0
 30 38  1  0
 38 39  1  0
 38 40  1  0
 40 41  1  0
 40 42  1  0
 42 43  1  0
 43 44  1  0
 43 45  1  0
  6 46  1  0
 46 47  2  0
 47  3  1  0
 26 22  1  0
 37 32  1  0
  1 48  1  0
  1 49  1  0
  1 50  1  0
  4 51  1  0
  5 52  1  0
  7 53  1  0
  7 54  1  0
  8 55  1  1
  9 56  1  0
 12 57  1  0
 12 58  1  0
 14 59  1  0
 14 60  1  0
 14 61  1  0
 15 62  1  0
 15 63  1  0
 15 64  1  0
 16 65  1  0
 16 66  1  0
 19 67  1  0
 20 68  1  1
 21 69  1  0
 21 70  1  0
 23 71  1  0
 25 72  1  0
 26 73  1  0
 29 74  1  0
 30 75  1  6
 31 76  1  0
 31 77  1  0
 32 78  1  0
 33 79  1  0
 33 80  1  0
 34 81  1  0
 34 82  1  0
 35 83  1  0
 35 84  1  0
 36 85  1  0
 36 86  1  0
 37 87  1  0
 37 88  1  0
 38 89  1  1
 39 90  1  0
 40 91  1  6
 41 92  1  0
 42 93  1  0
 42 94  1  0
 43 95  1  0
 44 96  1  0
 44 97  1  0
 44 98  1  0
 45 99  1  0
 45100  1  0
 45101  1  0
 46102  1  0
 47103  1  0
M  END
$$$$
