
     RDKit          3D

 44 48  0  0  0  0  0  0  0  0999 V2000
    8.0609   -0.1993   -0.6080 C   0  0  0  0  0  0  0  0  0  0  0  0
    6.5992   -0.1410   -0.4241 C   0  0  0  0  0  0  0  0  0  0  0  0
    5.9756    0.4036    0.6720 C   0  0  0  0  0  0  0  0  0  0  0  0
    4.6061    0.4355    0.7999 C   0  0  0  0  0  0  0  0  0  0  0  0
    3.8197   -0.0954   -0.2021 C   0  0  0  0  0  0  0  0  0  0  0  0
    2.3644   -0.0618   -0.0677 C   0  0  0  0  0  0  0  0  0  0  0  0
    1.5370    0.0380   -1.1686 C   0  0  0  0  0  0  0  0  0  0  0  0
    0.1539    0.0642   -0.9547 C   0  0  0  0  0  0  0  0  0  0  0  0
   -0.3812   -0.0061    0.3036 C   0  0  0  0  0  0  0  0  0  0  0  0
    0.4289   -0.1061    1.4142 C   0  0  0  0  0  0  0  0  0  0  0  0
    1.7959   -0.1308    1.1854 C   0  0  0  0  0  0  0  0  0  0  0  0
   -0.0883   -0.1754    2.6523 N   0  0  0  0  0  0  0  0  0  0  0  0
   -1.4163   -0.1494    2.8488 C   0  0  0  0  0  0  0  0  0  0  0  0
   -1.9302   -0.2129    3.9995 O   0  0  0  0  0  0  0  0  0  0  0  0
   -2.2763   -0.0505    1.7758 C   0  0  0  0  0  0  0  0  0  0  0  0
   -3.6272    0.0010    1.6110 N   0  0  0  0  0  0  0  0  0  0  0  0
   -3.9355    0.0988    0.3139 C   0  0  0  0  0  0  0  0  0  0  0  0
   -5.2827    0.1768   -0.2440 C   0  0  0  0  0  0  0  0  0  0  0  0
   -6.4297    0.1588    0.5008 C   0  0  0  0  0  0  0  0  0  0  0  0
   -6.3732    0.0646    1.8370 F   0  0  0  0  0  0  0  0  0  0  0  0
   -7.7054    0.2344   -0.0496 C   0  0  0  0  0  0  0  0  0  0  0  0
   -7.7989    0.3319   -1.4190 C   0  0  0  0  0  0  0  0  0  0  0  0
   -6.6854    0.3555   -2.2307 C   0  0  0  0  0  0  0  0  0  0  0  0
   -5.4518    0.2777   -1.6290 C   0  0  0  0  0  0  0  0  0  0  0  0
   -4.0025    0.3055   -2.6391 Cl  0  0  0  0  0  0  0  0  0  0  0  0
   -2.7694    0.1119   -0.3850 N   0  0  0  0  0  0  0  0  0  0  0  0
   -1.7473    0.0215    0.4928 C   0  0  0  0  0  0  0  0  0  0  0  0
    4.4268   -0.6435   -1.3042 C   0  0  0  0  0  0  0  0  0  0  0  0
    5.7980   -0.6732   -1.4278 C   0  0  0  0  0  0  0  0  0  0  0  0
    8.6212    0.4631    0.0625 H   0  0  0  0  0  0  0  0  0  0  0  0
    8.4440   -1.2451   -0.4389 H   0  0  0  0  0  0  0  0  0  0  0  0
    8.3548    0.0542   -1.6444 H   0  0  0  0  0  0  0  0  0  0  0  0
    6.5817    0.8203    1.4584 H   0  0  0  0  0  0  0  0  0  0  0  0
    4.1949    0.8821    1.6943 H   0  0  0  0  0  0  0  0  0  0  0  0
    1.9809    0.0915   -2.1401 H   0  0  0  0  0  0  0  0  0  0  0  0
   -0.5083    0.1427   -1.8144 H   0  0  0  0  0  0  0  0  0  0  0  0
    2.4256   -0.2089    2.0521 H   0  0  0  0  0  0  0  0  0  0  0  0
    0.5512   -0.2498    3.4634 H   0  0  0  0  0  0  0  0  0  0  0  0
   -4.2379   -0.0392    2.4644 H   0  0  0  0  0  0  0  0  0  0  0  0
   -8.5822    0.2158    0.5917 H   0  0  0  0  0  0  0  0  0  0  0  0
   -8.7883    0.3907   -1.8510 H   0  0  0  0  0  0  0  0  0  0  0  0
   -6.8117    0.4333   -3.3016 H   0  0  0  0  0  0  0  0  0  0  0  0
    3.8448   -1.0800   -2.1312 H   0  0  0  0  0  0  0  0  0  0  0  0
    6.2642   -1.1052   -2.2961 H   0  0  0  0  0  0  0  0  0  0  0  0
  1  2  1  0
  2  3  2  0
  3  4  1  0
  4  5  2  0
  5  6  1  0
  6  7  2  0
  7  8  1  0
  8  9  2  0
  9 10  1  0
 10 11  2  0
 10 12  1  0
 12 13  1  0
 13 14  2  0
 13 15  1  0
 15 16  1  0
 16 17  1  0
 17 18  1  0
 18 19  2  0
 19 20  1  0
 19 21  1  0
 21 22  2  0
 22 23  1  0
 23 24  2  0
 24 25  1  0
 17 26  2  0
 26 27  1  0
  5 28  1  0
 28 29  2  0
 29  2  1  0
 11  6  1  0
 27 15  2  0
 27  9  1  0
 24 18  1  0
  1 30  1  0
  1 31  1  0
  1 32  1  0
  3 33  1  0
  4 34  1  0
  7 35  1  0
  8 36  1  0
 11 37  1  0
 12 38  1  0
 16 39  1  0
 21 40  1  0
 22 41  1  0
 23 42  1  0
 28 43  1  0
 29 44  1  0
M  END
$$$$
