@<TRIPOS>MOLECULE
*****
 44 48 0 0 0
SMALL
GASTEIGER

@<TRIPOS>ATOM
      1 C           8.0609   -0.1993   -0.6080 C.3     1  UNL1       -0.0397
      2 C           6.5992   -0.1410   -0.4241 C.ar    1  UNL1       -0.0504
      3 C           5.9756    0.4036    0.6720 C.ar    1  UNL1       -0.0583
      4 C           4.6061    0.4355    0.7999 C.ar    1  UNL1       -0.0538
      5 C           3.8197   -0.0954   -0.2021 C.ar    1  UNL1       -0.0178
      6 C           2.3644   -0.0618   -0.0677 C.ar    1  UNL1       -0.0159
      7 C           1.5370    0.0380   -1.1686 C.ar    1  UNL1       -0.0533
      8 C           0.1539    0.0642   -0.9547 C.ar    1  UNL1       -0.0499
      9 C          -0.3812   -0.0061    0.3036 C.ar    1  UNL1        0.0260
     10 C           0.4289   -0.1061    1.4142 C.ar    1  UNL1        0.0519
     11 C           1.7959   -0.1308    1.1854 C.ar    1  UNL1       -0.0299
     12 N          -0.0883   -0.1754    2.6523 N.ar    1  UNL1       -0.3203
     13 C          -1.4163   -0.1494    2.8488 C.ar    1  UNL1        0.2748
     14 O          -1.9302   -0.2129    3.9995 O.2     1  UNL1       -0.2656
     15 C          -2.2763   -0.0505    1.7758 C.ar    1  UNL1        0.1322
     16 N          -3.6272    0.0010    1.6110 N.ar    1  UNL1       -0.3335
     17 C          -3.9355    0.0988    0.3139 C.ar    1  UNL1        0.1436
     18 C          -5.2827    0.1768   -0.2440 C.ar    1  UNL1        0.0707
     19 C          -6.4297    0.1588    0.5008 C.ar    1  UNL1        0.1354
     20 F          -6.3732    0.0646    1.8370 F       1  UNL1       -0.2047
     21 C          -7.7054    0.2344   -0.0496 C.ar    1  UNL1       -0.0257
     22 C          -7.7989    0.3319   -1.4190 C.ar    1  UNL1       -0.0576
     23 C          -6.6854    0.3555   -2.2307 C.ar    1  UNL1       -0.0425
     24 C          -5.4518    0.2777   -1.6290 C.ar    1  UNL1        0.0544
     25 CL         -4.0025    0.3055   -2.6391 Cl      1  UNL1       -0.0827
     26 N          -2.7694    0.1119   -0.3850 N.ar    1  UNL1       -0.2268
     27 C          -1.7473    0.0215    0.4928 C.ar    1  UNL1        0.1039
     28 C           4.4268   -0.6435   -1.3042 C.ar    1  UNL1       -0.0538
     29 C           5.7980   -0.6732   -1.4278 C.ar    1  UNL1       -0.0583
     30 H           8.6212    0.4631    0.0625 H       1  UNL1        0.0278
     31 H           8.4440   -1.2451   -0.4389 H       1  UNL1        0.0278
     32 H           8.3548    0.0542   -1.6444 H       1  UNL1        0.0278
     33 H           6.5817    0.8203    1.4584 H       1  UNL1        0.0620
     34 H           4.1949    0.8821    1.6943 H       1  UNL1        0.0624
     35 H           1.9809    0.0915   -2.1401 H       1  UNL1        0.0624
     36 H          -0.5083    0.1427   -1.8144 H       1  UNL1        0.0625
     37 H           2.4256   -0.2089    2.0521 H       1  UNL1        0.0644
     38 H           0.5512   -0.2498    3.4634 H       1  UNL1        0.1690
     39 H          -4.2379   -0.0392    2.4644 H       1  UNL1        0.1675
     40 H          -8.5822    0.2158    0.5917 H       1  UNL1        0.0646
     41 H          -8.7883    0.3907   -1.8510 H       1  UNL1        0.0619
     42 H          -6.8117    0.4333   -3.3016 H       1  UNL1        0.0632
     43 H           3.8448   -1.0800   -2.1312 H       1  UNL1        0.0624
     44 H           6.2642   -1.1052   -2.2961 H       1  UNL1        0.0620
@<TRIPOS>BOND
     1     1     2    1
     2     2     3   ar
     3     3     4   ar
     4     4     5   ar
     5     5     6    1
     6     6     7   ar
     7     7     8   ar
     8     8     9   ar
     9     9    10   ar
    10    10    11   ar
    11    10    12   ar
    12    12    13   ar
    13    13    14    2
    14    13    15   ar
    15    15    16   ar
    16    16    17   ar
    17    17    18    1
    18    18    19   ar
    19    19    20    1
    20    19    21   ar
    21    21    22   ar
    22    22    23   ar
    23    23    24   ar
    24    24    25    1
    25    17    26   ar
    26    26    27   ar
    27     5    28   ar
    28    28    29   ar
    29    29     2   ar
    30    11     6   ar
    31    27    15   ar
    32    27     9   ar
    33    24    18   ar
    34     1    30    1
    35     1    31    1
    36     1    32    1
    37     3    33    1
    38     4    34    1
    39     7    35    1
    40     8    36    1
    41    11    37    1
    42    12    38    1
    43    16    39    1
    44    21    40    1
    45    22    41    1
    46    23    42    1
    47    28    43    1
    48    29    44    1
