
     RDKit          3D

 67 71  0  0  0  0  0  0  0  0999 V2000
   -2.2516   -2.1883    3.0613 C   0  0  0  0  0  0  0  0  0  0  0  0
   -1.4568   -2.0468    1.9058 O   0  0  0  0  0  0  0  0  0  0  0  0
   -1.9611   -1.4327    0.7673 C   0  0  0  0  0  0  0  0  0  0  0  0
   -3.2601   -0.9425    0.7366 C   0  0  0  0  0  0  0  0  0  0  0  0
   -3.7578   -0.3378   -0.3829 C   0  0  0  0  0  0  0  0  0  0  0  0
   -5.0709    0.1625   -0.4148 C   0  0  0  0  0  0  0  0  0  0  0  0
   -5.8891    0.0270    0.7096 N   0  0  0  0  0  0  0  0  0  0  0  0
   -7.1885    0.5570    0.8316 C   0  0  0  0  0  0  0  0  0  0  0  0
   -7.8361    1.2757   -0.1385 C   0  0  0  0  0  0  0  0  0  0  0  0
   -9.1258    1.7615    0.1084 C   0  0  0  0  0  0  0  0  0  0  0  0
   -9.7387    1.5212    1.3130 C   0  0  0  0  0  0  0  0  0  0  0  0
  -11.4982    2.1800    1.6667 Br  0  0  0  0  0  0  0  0  0  0  0  0
   -9.0866    0.8047    2.2729 C   0  0  0  0  0  0  0  0  0  0  0  0
   -9.8718    0.4953    3.8409 Cl  0  0  0  0  0  0  0  0  0  0  0  0
   -7.8242    0.3181    2.0560 C   0  0  0  0  0  0  0  0  0  0  0  0
   -7.1989   -0.3879    3.0160 F   0  0  0  0  0  0  0  0  0  0  0  0
   -5.4571    0.7380   -1.5549 N   0  0  0  0  0  0  0  0  0  0  0  0
   -4.6971    0.8657   -2.6384 C   0  0  0  0  0  0  0  0  0  0  0  0
   -3.4223    0.3877   -2.6274 N   0  0  0  0  0  0  0  0  0  0  0  0
   -2.9934   -0.1927   -1.5160 C   0  0  0  0  0  0  0  0  0  0  0  0
   -1.6830   -0.6857   -1.4904 C   0  0  0  0  0  0  0  0  0  0  0  0
   -1.1872   -1.2866   -0.3764 C   0  0  0  0  0  0  0  0  0  0  0  0
    0.0801   -1.7702   -0.3167 O   0  0  0  0  0  0  0  0  0  0  0  0
    1.0508   -1.7132   -1.2739 C   0  0  0  0  0  0  0  0  0  0  0  0
    1.5538   -0.3409   -1.6560 C   0  0  2  0  0  0  0  0  0  0  0  0
    2.6092   -0.4814   -2.7103 C   0  0  0  0  0  0  0  0  0  0  0  0
    3.8356    0.2262   -2.2578 C   0  0  2  0  0  0  0  0  0  0  0  0
    4.8326   -0.6752   -1.5320 C   0  0  0  0  0  0  0  0  0  0  0  0
    5.5501    0.2500   -0.6432 N   0  0  0  0  0  0  0  0  0  0  0  0
    6.1590   -0.4642    0.4357 C   0  0  0  0  0  0  0  0  0  0  0  0
    7.1438    0.2959    1.2510 C   0  0  0  0  0  0  0  0  0  0  0  0
    6.6607    1.5166    1.9624 C   0  0  0  0  0  0  0  0  0  0  0  0
    8.3092    0.6835    0.3235 C   0  0  0  0  0  0  0  0  0  0  0  0
    4.5977    1.2426   -0.2636 C   0  0  0  0  0  0  0  0  0  0  0  0
    3.3582    1.0418   -1.0902 C   0  0  2  0  0  0  0  0  0  0  0  0
    2.3605    0.1433   -0.4383 C   0  0  0  0  0  0  0  0  0  0  0  0
   -1.6179   -2.4815    3.9300 H   0  0  0  0  0  0  0  0  0  0  0  0
   -2.7109   -1.2206    3.3361 H   0  0  0  0  0  0  0  0  0  0  0  0
   -3.0316   -2.9416    2.8472 H   0  0  0  0  0  0  0  0  0  0  0  0
   -3.8340   -1.0796    1.6644 H   0  0  0  0  0  0  0  0  0  0  0  0
   -5.4892   -0.5239    1.5152 H   0  0  0  0  0  0  0  0  0  0  0  0
   -7.4034    1.4924   -1.0957 H   0  0  0  0  0  0  0  0  0  0  0  0
   -9.6380    2.3244   -0.6493 H   0  0  0  0  0  0  0  0  0  0  0  0
   -5.0476    1.3359   -3.5352 H   0  0  0  0  0  0  0  0  0  0  0  0
   -1.1410   -0.5650   -2.4091 H   0  0  0  0  0  0  0  0  0  0  0  0
    1.9143   -2.3619   -0.9251 H   0  0  0  0  0  0  0  0  0  0  0  0
    0.7538   -2.2268   -2.2424 H   0  0  0  0  0  0  0  0  0  0  0  0
    0.8076    0.4107   -1.8548 H   0  0  0  0  0  0  0  0  0  0  0  0
    2.7818   -1.5405   -2.9998 H   0  0  0  0  0  0  0  0  0  0  0  0
    2.2259    0.0743   -3.6140 H   0  0  0  0  0  0  0  0  0  0  0  0
    4.3484    0.8214   -3.0354 H   0  0  0  0  0  0  0  0  0  0  0  0
    4.3909   -1.5230   -1.0288 H   0  0  0  0  0  0  0  0  0  0  0  0
    5.5676   -0.9993   -2.2791 H   0  0  0  0  0  0  0  0  0  0  0  0
    6.6272   -1.3884   -0.0049 H   0  0  0  0  0  0  0  0  0  0  0  0
    5.3730   -0.8304    1.1772 H   0  0  0  0  0  0  0  0  0  0  0  0
    7.5480   -0.3819    2.0660 H   0  0  0  0  0  0  0  0  0  0  0  0
    7.4489    1.8384    2.7221 H   0  0  0  0  0  0  0  0  0  0  0  0
    5.8015    1.2427    2.6426 H   0  0  0  0  0  0  0  0  0  0  0  0
    6.3528    2.3565    1.3495 H   0  0  0  0  0  0  0  0  0  0  0  0
    8.5249   -0.2725   -0.2355 H   0  0  0  0  0  0  0  0  0  0  0  0
    9.1395    0.9913    0.9541 H   0  0  0  0  0  0  0  0  0  0  0  0
    7.9200    1.4581   -0.3654 H   0  0  0  0  0  0  0  0  0  0  0  0
    4.3567    1.2528    0.8246 H   0  0  0  0  0  0  0  0  0  0  0  0
    4.9956    2.2415   -0.5692 H   0  0  0  0  0  0  0  0  0  0  0  0
    2.8751    1.9887   -1.3876 H   0  0  0  0  0  0  0  0  0  0  0  0
    2.8209   -0.7620   -0.0090 H   0  0  0  0  0  0  0  0  0  0  0  0
    1.6944    0.6748    0.2749 H   0  0  0  0  0  0  0  0  0  0  0  0
  1  2  1  0
  2  3  1  0
  3  4  2  0
  4  5  1  0
  5  6  2  0
  6  7  1  0
  7  8  1  0
  8  9  2  0
  9 10  1  0
 10 11  2  0
 11 12  1  0
 11 13  1  0
 13 14  1  0
 13 15  2  0
 15 16  1  0
  6 17  1  0
 17 18  2  0
 18 19  1  0
 19 20  2  0
 20 21  1  0
 21 22  2  0
 22 23  1  0
 23 24  1  0
 24 25  1  0
 25 26  1  0
 26 27  1  0
 27 28  1  0
 28 29  1  0
 29 30  1  0
 30 31  1  0
 31 32  1  0
 31 33  1  0
 29 34  1  0
 34 35  1  0
 35 36  1  0
 22  3  1  0
 36 25  1  0
 20  5  1  0
 35 27  1  0
 15  8  1  0
  1 37  1  0
  1 38  1  0
  1 39  1  0
  4 40  1  0
  7 41  1  0
  9 42  1  0
 10 43  1  0
 18 44  1  0
 21 45  1  0
 24 46  1  0
 24 47  1  0
 25 48  1  6
 26 49  1  0
 26 50  1  0
 27 51  1  6
 28 52  1  0
 28 53  1  0
 30 54  1  0
 30 55  1  0
 31 56  1  0
 32 57  1  0
 32 58  1  0
 32 59  1  0
 33 60  1  0
 33 61  1  0
 33 62  1  0
 34 63  1  0
 34 64  1  0
 35 65  1  6
 36 66  1  0
 36 67  1  0
M  END
$$$$
