@<TRIPOS>MOLECULE
*****
 67 71 0 0 0
SMALL
GASTEIGER

@<TRIPOS>ATOM
      1 C          -2.2516   -2.1883    3.0613 C.3     1  UNL1        0.0790
      2 O          -1.4568   -2.0468    1.9058 O.3     1  UNL1       -0.4914
      3 C          -1.9611   -1.4327    0.7673 C.ar    1  UNL1        0.1623
      4 C          -3.2601   -0.9425    0.7366 C.ar    1  UNL1       -0.0038
      5 C          -3.7578   -0.3378   -0.3829 C.ar    1  UNL1        0.0441
      6 C          -5.0709    0.1625   -0.4148 C.ar    1  UNL1        0.1340
      7 N          -5.8891    0.0270    0.7096 N.pl3   1  UNL1       -0.2966
      8 C          -7.1885    0.5570    0.8316 C.ar    1  UNL1        0.0696
      9 C          -7.8361    1.2757   -0.1385 C.ar    1  UNL1       -0.0366
     10 C          -9.1258    1.7615    0.1084 C.ar    1  UNL1       -0.0444
     11 C          -9.7387    1.5212    1.3130 C.ar    1  UNL1        0.0391
     12 BR        -11.4982    2.1800    1.6667 Br      1  UNL1       -0.0487
     13 C          -9.0866    0.8047    2.2729 C.ar    1  UNL1        0.0918
     14 CL         -9.8718    0.4953    3.8409 Cl      1  UNL1       -0.0794
     15 C          -7.8242    0.3181    2.0560 C.ar    1  UNL1        0.1637
     16 F          -7.1989   -0.3879    3.0160 F       1  UNL1       -0.2020
     17 N          -5.4571    0.7380   -1.5549 N.ar    1  UNL1       -0.2200
     18 C          -4.6971    0.8657   -2.6384 C.ar    1  UNL1        0.1187
     19 N          -3.4223    0.3877   -2.6274 N.ar    1  UNL1       -0.2352
     20 C          -2.9934   -0.1927   -1.5160 C.ar    1  UNL1        0.0797
     21 C          -1.6830   -0.6857   -1.4904 C.ar    1  UNL1        0.0098
     22 C          -1.1872   -1.2866   -0.3764 C.ar    1  UNL1        0.1640
     23 O           0.0801   -1.7702   -0.3167 O.3     1  UNL1       -0.4880
     24 C           1.0508   -1.7132   -1.2739 C.3     1  UNL1        0.0926
     25 C           1.5538   -0.3409   -1.6560 C.3     1  UNL1       -0.0062
     26 C           2.6092   -0.4814   -2.7103 C.3     1  UNL1       -0.0428
     27 C           3.8356    0.2262   -2.2578 C.3     1  UNL1       -0.0239
     28 C           4.8326   -0.6752   -1.5320 C.3     1  UNL1        0.0020
     29 N           5.5501    0.2500   -0.6432 N.3     1  UNL1       -0.3015
     30 C           6.1590   -0.4642    0.4357 C.3     1  UNL1        0.0012
     31 C           7.1438    0.2959    1.2510 C.3     1  UNL1       -0.0339
     32 C           6.6607    1.5166    1.9624 C.3     1  UNL1       -0.0615
     33 C           8.3092    0.6835    0.3235 C.3     1  UNL1       -0.0615
     34 C           4.5977    1.2426   -0.2636 C.3     1  UNL1        0.0020
     35 C           3.3582    1.0418   -1.0902 C.3     1  UNL1       -0.0239
     36 C           2.3605    0.1433   -0.4383 C.3     1  UNL1       -0.0428
     37 H          -1.6179   -2.4815    3.9300 H       1  UNL1        0.0660
     38 H          -2.7109   -1.2206    3.3361 H       1  UNL1        0.0660
     39 H          -3.0316   -2.9416    2.8472 H       1  UNL1        0.0660
     40 H          -3.8340   -1.0796    1.6644 H       1  UNL1        0.0663
     41 H          -5.4892   -0.5239    1.5152 H       1  UNL1        0.1537
     42 H          -7.4034    1.4924   -1.0957 H       1  UNL1        0.0637
     43 H          -9.6380    2.3244   -0.6493 H       1  UNL1        0.0630
     44 H          -5.0476    1.3359   -3.5352 H       1  UNL1        0.1048
     45 H          -1.1410   -0.5650   -2.4091 H       1  UNL1        0.0677
     46 H           1.9143   -2.3619   -0.9251 H       1  UNL1        0.0699
     47 H           0.7538   -2.2268   -2.2424 H       1  UNL1        0.0699
     48 H           0.8076    0.4107   -1.8548 H       1  UNL1        0.0334
     49 H           2.7818   -1.5405   -2.9998 H       1  UNL1        0.0272
     50 H           2.2259    0.0743   -3.6140 H       1  UNL1        0.0272
     51 H           4.3484    0.8214   -3.0354 H       1  UNL1        0.0316
     52 H           4.3909   -1.5230   -1.0288 H       1  UNL1        0.0429
     53 H           5.5676   -0.9993   -2.2791 H       1  UNL1        0.0429
     54 H           6.6272   -1.3884   -0.0049 H       1  UNL1        0.0429
     55 H           5.3730   -0.8304    1.1772 H       1  UNL1        0.0429
     56 H           7.5480   -0.3819    2.0660 H       1  UNL1        0.0308
     57 H           7.4489    1.8384    2.7221 H       1  UNL1        0.0233
     58 H           5.8015    1.2427    2.6426 H       1  UNL1        0.0233
     59 H           6.3528    2.3565    1.3495 H       1  UNL1        0.0233
     60 H           8.5249   -0.2725   -0.2355 H       1  UNL1        0.0233
     61 H           9.1395    0.9913    0.9541 H       1  UNL1        0.0233
     62 H           7.9200    1.4581   -0.3654 H       1  UNL1        0.0233
     63 H           4.3567    1.2528    0.8246 H       1  UNL1        0.0429
     64 H           4.9956    2.2415   -0.5692 H       1  UNL1        0.0429
     65 H           2.8751    1.9887   -1.3876 H       1  UNL1        0.0316
     66 H           2.8209   -0.7620   -0.0090 H       1  UNL1        0.0272
     67 H           1.6944    0.6748    0.2749 H       1  UNL1        0.0272
@<TRIPOS>BOND
     1     1     2    1
     2     2     3    1
     3     3     4   ar
     4     4     5   ar
     5     5     6   ar
     6     6     7    1
     7     7     8    1
     8     8     9   ar
     9     9    10   ar
    10    10    11   ar
    11    11    12    1
    12    11    13   ar
    13    13    14    1
    14    13    15   ar
    15    15    16    1
    16     6    17   ar
    17    17    18   ar
    18    18    19   ar
    19    19    20   ar
    20    20    21   ar
    21    21    22   ar
    22    22    23    1
    23    23    24    1
    24    24    25    1
    25    25    26    1
    26    26    27    1
    27    27    28    1
    28    28    29    1
    29    29    30    1
    30    30    31    1
    31    31    32    1
    32    31    33    1
    33    29    34    1
    34    34    35    1
    35    35    36    1
    36    22     3   ar
    37    36    25    1
    38    20     5   ar
    39    35    27    1
    40    15     8   ar
    41     1    37    1
    42     1    38    1
    43     1    39    1
    44     4    40    1
    45     7    41    1
    46     9    42    1
    47    10    43    1
    48    18    44    1
    49    21    45    1
    50    24    46    1
    51    24    47    1
    52    25    48    1
    53    26    49    1
    54    26    50    1
    55    27    51    1
    56    28    52    1
    57    28    53    1
    58    30    54    1
    59    30    55    1
    60    31    56    1
    61    32    57    1
    62    32    58    1
    63    32    59    1
    64    33    60    1
    65    33    61    1
    66    33    62    1
    67    34    63    1
    68    34    64    1
    69    35    65    1
    70    36    66    1
    71    36    67    1
