
     RDKit          3D

 35 37  0  0  0  0  0  0  0  0999 V2000
   -1.8682    0.2279   -0.9985 C   0  0  1  0  0  0  0  0  0  0  0  0
   -1.3623   -0.9735   -1.7038 C   0  0  0  0  0  0  0  0  0  0  0  0
   -2.9216   -0.1611    0.0087 C   0  0  0  0  0  0  0  0  0  0  0  0
   -2.6364   -0.9389    1.1310 C   0  0  0  0  0  0  0  0  0  0  0  0
   -3.8186   -1.1174    1.8537 C   0  0  0  0  0  0  0  0  0  0  0  0
   -4.7896   -0.4315    1.1323 C   0  0  0  0  0  0  0  0  0  0  0  0
   -4.2349    0.1283    0.0413 N   0  0  0  0  0  0  0  0  0  0  0  0
   -0.9034    1.0760   -0.3167 C   0  0  0  0  0  0  0  0  0  0  0  0
    0.3641    1.1227   -0.0110 C   0  0  0  0  0  0  0  0  0  0  0  0
    1.3145    0.1778   -0.3235 C   0  0  0  0  0  0  0  0  0  0  0  0
    2.6104    0.3874    0.0791 C   0  0  0  0  0  0  0  0  0  0  0  0
    3.6134   -0.5938   -0.2420 N   0  0  0  0  0  0  0  0  0  0  0  0
    4.1779   -1.7620    0.3207 C   0  0  0  0  0  0  0  0  0  0  0  0
    5.1917   -2.3816   -0.4533 N   0  0  0  0  0  0  0  0  0  0  0  0
    3.7948   -2.2195    1.4481 O   0  0  0  0  0  0  0  0  0  0  0  0
    3.0288    1.4952    0.7847 C   0  0  0  0  0  0  0  0  0  0  0  0
    2.0456    2.4172    1.0774 C   0  0  0  0  0  0  0  0  0  0  0  0
    0.7365    2.2350    0.6870 C   0  0  0  0  0  0  0  0  0  0  0  0
   -0.2989    2.9813    0.8719 N   0  0  0  0  0  0  0  0  0  0  0  0
   -1.4287    2.3342    0.2644 C   0  0  0  0  0  0  0  0  0  0  0  0
   -2.5741    2.8759    0.3118 O   0  0  0  0  0  0  0  0  0  0  0  0
   -2.4233    0.8391   -1.7584 H   0  0  0  0  0  0  0  0  0  0  0  0
   -0.6371   -0.7361   -2.5067 H   0  0  0  0  0  0  0  0  0  0  0  0
   -2.2522   -1.3879   -2.2809 H   0  0  0  0  0  0  0  0  0  0  0  0
   -1.0152   -1.8069   -1.0687 H   0  0  0  0  0  0  0  0  0  0  0  0
   -1.6942   -1.3627    1.4492 H   0  0  0  0  0  0  0  0  0  0  0  0
   -3.9727   -1.6613    2.7704 H   0  0  0  0  0  0  0  0  0  0  0  0
   -5.8306   -0.3571    1.4028 H   0  0  0  0  0  0  0  0  0  0  0  0
   -4.6643    0.7136   -0.7233 H   0  0  0  0  0  0  0  0  0  0  0  0
    1.0640   -0.7049   -0.8664 H   0  0  0  0  0  0  0  0  0  0  0  0
    3.9297   -0.2098   -1.1805 H   0  0  0  0  0  0  0  0  0  0  0  0
    5.0312   -2.5104   -1.4730 H   0  0  0  0  0  0  0  0  0  0  0  0
    6.0735   -2.6875    0.0466 H   0  0  0  0  0  0  0  0  0  0  0  0
    4.0491    1.6644    1.1039 H   0  0  0  0  0  0  0  0  0  0  0  0
    2.3009    3.3281    1.6379 H   0  0  0  0  0  0  0  0  0  0  0  0
  1  2  1  0
  1  3  1  0
  3  4  2  0
  4  5  1  0
  5  6  2  0
  6  7  1  0
  1  8  1  0
  8  9  2  0
  9 10  1  0
 10 11  2  0
 11 12  1  0
 12 13  1  0
 13 14  1  0
 13 15  2  0
 11 16  1  0
 16 17  2  0
 17 18  1  0
 18 19  2  0
 19 20  1  0
 20 21  2  0
  7  3  1  0
 20  8  1  0
 18  9  1  0
  1 22  1  6
  2 23  1  0
  2 24  1  0
  2 25  1  0
  4 26  1  0
  5 27  1  0
  6 28  1  0
  7 29  1  0
 10 30  1  0
 12 31  1  0
 14 32  1  0
 14 33  1  0
 16 34  1  0
 17 35  1  0
M  END
$$$$
