
     RDKit          3D

 55 58  0  0  0  0  0  0  0  0999 V2000
   -9.1274    0.1388    0.1056 C   0  0  0  0  0  0  0  0  0  0  0  0
   -7.6513   -0.0838    0.3723 C   0  0  0  0  0  0  0  0  0  0  0  0
   -7.2742    0.3298    1.6388 O   0  0  0  0  0  0  0  0  0  0  0  0
   -7.2687   -1.5010    0.1522 C   0  0  0  0  0  0  0  0  0  0  0  0
   -7.5551   -2.0307   -0.9597 O   0  0  0  0  0  0  0  0  0  0  0  0
   -6.6032   -2.2219    1.1664 N   0  0  0  0  0  0  0  0  0  0  0  0
   -6.1452   -1.9881    2.5052 C   0  0  0  0  0  0  0  0  0  0  0  0
   -5.0483   -3.0345    2.2521 C   0  0  0  0  0  0  0  0  0  0  0  0
   -3.9039   -2.3208    1.6328 C   0  0  0  0  0  0  0  0  0  0  0  0
   -2.9859   -1.7392    1.1124 C   0  0  0  0  0  0  0  0  0  0  0  0
   -1.8924   -1.0712    0.4842 C   0  0  0  0  0  0  0  0  0  0  0  0
   -1.8507   -0.5227   -0.7735 C   0  0  0  0  0  0  0  0  0  0  0  0
   -0.6721   -0.0135   -1.3063 C   0  0  0  0  0  0  0  0  0  0  0  0
    0.5192   -0.0214   -0.6251 C   0  0  0  0  0  0  0  0  0  0  0  0
    1.7190    0.4548   -1.1117 C   0  0  0  0  0  0  0  0  0  0  0  0
    1.7511    0.9625   -2.2873 O   0  0  0  0  0  0  0  0  0  0  0  0
    2.8348    0.3810   -0.3461 C   0  0  0  0  0  0  0  0  0  0  0  0
    4.1646    0.7514   -0.8097 C   0  0  0  0  0  0  0  0  0  0  0  0
    5.2215   -0.1197   -0.4674 C   0  0  0  0  0  0  0  0  0  0  0  0
    6.4819    0.1508   -0.8706 C   0  0  0  0  0  0  0  0  0  0  0  0
    6.8097    1.2692   -1.6288 C   0  0  0  0  0  0  0  0  0  0  0  0
    8.1547    1.4398   -2.0055 N   0  0  0  0  0  0  0  0  0  0  0  0
    9.0943    2.8548   -1.8849 S   0  0  0  0  0  6  0  0  0  0  0  0
    9.2966    3.4357   -0.2245 C   0  0  0  0  0  0  0  0  0  0  0  0
    8.4764    3.9202   -2.7381 O   0  0  0  0  0  0  0  0  0  0  0  0
   10.4940    2.5413   -2.3986 O   0  0  0  0  0  0  0  0  0  0  0  0
    5.7686    2.1171   -1.9605 C   0  0  0  0  0  0  0  0  0  0  0  0
    4.4467    1.8496   -1.5463 C   0  0  0  0  0  0  0  0  0  0  0  0
    2.7327   -0.1763    0.9289 C   0  0  0  0  0  0  0  0  0  0  0  0
    1.5829   -0.5962    1.3090 O   0  0  0  0  0  0  0  0  0  0  0  0
    0.4568   -0.5852    0.6665 C   0  0  0  0  0  0  0  0  0  0  0  0
   -0.6881   -1.0823    1.1980 C   0  0  0  0  0  0  0  0  0  0  0  0
   -6.0731   -3.5668    1.2829 C   0  0  0  0  0  0  0  0  0  0  0  0
   -9.5715   -0.7659   -0.3546 H   0  0  0  0  0  0  0  0  0  0  0  0
   -9.6741    0.3460    1.0641 H   0  0  0  0  0  0  0  0  0  0  0  0
   -9.2909    1.0045   -0.5659 H   0  0  0  0  0  0  0  0  0  0  0  0
   -7.0949    0.5495   -0.3561 H   0  0  0  0  0  0  0  0  0  0  0  0
   -8.0251    0.8687    2.0171 H   0  0  0  0  0  0  0  0  0  0  0  0
   -6.8594   -2.4057    3.2220 H   0  0  0  0  0  0  0  0  0  0  0  0
   -5.7093   -0.9948    2.7302 H   0  0  0  0  0  0  0  0  0  0  0  0
   -4.7882   -3.6631    3.0957 H   0  0  0  0  0  0  0  0  0  0  0  0
   -2.7770   -0.5081   -1.3332 H   0  0  0  0  0  0  0  0  0  0  0  0
   -0.6584    0.4143   -2.3119 H   0  0  0  0  0  0  0  0  0  0  0  0
    4.9366   -0.9795    0.1300 H   0  0  0  0  0  0  0  0  0  0  0  0
    7.2798   -0.5550   -0.5724 H   0  0  0  0  0  0  0  0  0  0  0  0
    8.6236    0.5660   -2.4085 H   0  0  0  0  0  0  0  0  0  0  0  0
    9.3318    2.5854    0.5003 H   0  0  0  0  0  0  0  0  0  0  0  0
   10.3098    3.9026   -0.1536 H   0  0  0  0  0  0  0  0  0  0  0  0
    8.5634    4.1977    0.0737 H   0  0  0  0  0  0  0  0  0  0  0  0
    5.9574    2.9952   -2.5478 H   0  0  0  0  0  0  0  0  0  0  0  0
    3.6659    2.5498   -1.8363 H   0  0  0  0  0  0  0  0  0  0  0  0
    3.6164   -0.2520    1.5807 H   0  0  0  0  0  0  0  0  0  0  0  0
   -0.7084   -1.5104    2.1970 H   0  0  0  0  0  0  0  0  0  0  0  0
   -5.6467   -3.9871    0.3484 H   0  0  0  0  0  0  0  0  0  0  0  0
   -6.7465   -4.2798    1.8041 H   0  0  0  0  0  0  0  0  0  0  0  0
  1  2  1  0
  2  3  1  0
  2  4  1  0
  4  5  2  0
  4  6  1  0
  6  7  1  0
  7  8  1  0
  8  9  1  0
  9 10  3  0
 10 11  1  0
 11 12  2  0
 12 13  1  0
 13 14  2  0
 14 15  1  0
 15 16  2  0
 15 17  1  0
 17 18  1  0
 18 19  2  0
 19 20  1  0
 20 21  2  0
 21 22  1  0
 22 23  1  0
 23 24  1  0
 23 25  2  0
 23 26  2  0
 21 27  1  0
 27 28  2  0
 17 29  2  0
 29 30  1  0
 30 31  1  0
 31 32  2  0
  8 33  1  0
 33  6  1  0
 32 11  1  0
 31 14  1  0
 28 18  1  0
  1 34  1  0
  1 35  1  0
  1 36  1  0
  2 37  1  0
  3 38  1  0
  7 39  1  0
  7 40  1  0
  8 41  1  0
 12 42  1  0
 13 43  1  0
 19 44  1  0
 20 45  1  0
 22 46  1  0
 24 47  1  0
 24 48  1  0
 24 49  1  0
 27 50  1  0
 28 51  1  0
 29 52  1  0
 32 53  1  0
 33 54  1  0
 33 55  1  0
M  END
$$$$
