@<TRIPOS>MOLECULE
*****
 55 58 0 0 0
SMALL
GASTEIGER

@<TRIPOS>ATOM
      1 C          -9.1274    0.1388    0.1056 C.3     1  UNL1       -0.0303
      2 C          -7.6513   -0.0838    0.3723 C.3     1  UNL1        0.1283
      3 O          -7.2742    0.3298    1.6388 O.3     1  UNL1       -0.3828
      4 C          -7.2687   -1.5010    0.1522 C.2     1  UNL1        0.2440
      5 O          -7.5551   -2.0307   -0.9597 O.2     1  UNL1       -0.2728
      6 N          -6.6032   -2.2219    1.1664 N.am    1  UNL1       -0.2969
      7 C          -6.1452   -1.9881    2.5052 C.3     1  UNL1        0.0299
      8 C          -5.0483   -3.0345    2.2521 C.3     1  UNL1        0.0524
      9 C          -3.9039   -2.3208    1.6328 C.1     1  UNL1       -0.0905
     10 C          -2.9859   -1.7392    1.1124 C.1     1  UNL1       -0.0658
     11 C          -1.8924   -1.0712    0.4842 C.ar    1  UNL1        0.0285
     12 C          -1.8507   -0.5227   -0.7735 C.ar    1  UNL1       -0.0454
     13 C          -0.6721   -0.0135   -1.3063 C.ar    1  UNL1       -0.0462
     14 C           0.5192   -0.0214   -0.6251 C.ar    1  UNL1        0.0646
     15 C           1.7190    0.4548   -1.1117 C.ar    1  UNL1        0.2001
     16 O           1.7511    0.9625   -2.2873 O.2     1  UNL1       -0.2864
     17 C           2.8348    0.3810   -0.3461 C.ar    1  UNL1        0.0643
     18 C           4.1646    0.7514   -0.8097 C.ar    1  UNL1       -0.0112
     19 C           5.2215   -0.1197   -0.4674 C.ar    1  UNL1       -0.0520
     20 C           6.4819    0.1508   -0.8706 C.ar    1  UNL1       -0.0388
     21 C           6.8097    1.2692   -1.6288 C.ar    1  UNL1        0.0477
     22 N           8.1547    1.4398   -2.0055 N.pl3   1  UNL1       -0.2209
     23 S           9.0943    2.8548   -1.8849 S.O2    1  UNL1        0.0403
     24 C           9.2966    3.4357   -0.2245 C.3     1  UNL1        0.0736
     25 O           8.4764    3.9202   -2.7381 O.2     1  UNL1       -0.1555
     26 O          10.4940    2.5413   -2.3986 O.2     1  UNL1       -0.1555
     27 C           5.7686    2.1171   -1.9605 C.ar    1  UNL1       -0.0388
     28 C           4.4467    1.8496   -1.5463 C.ar    1  UNL1       -0.0520
     29 C           2.7327   -0.1763    0.9289 C.ar    1  UNL1        0.1038
     30 O           1.5829   -0.5962    1.3090 O.2     1  UNL1       -0.4621
     31 C           0.4568   -0.5852    0.6665 C.ar    1  UNL1        0.1396
     32 C          -0.6881   -1.0823    1.1980 C.ar    1  UNL1       -0.0032
     33 C          -6.0731   -3.5668    1.2829 C.3     1  UNL1        0.0299
     34 H          -9.5715   -0.7659   -0.3546 H       1  UNL1        0.0259
     35 H          -9.6741    0.3460    1.0641 H       1  UNL1        0.0259
     36 H          -9.2909    1.0045   -0.5659 H       1  UNL1        0.0259
     37 H          -7.0949    0.5495   -0.3561 H       1  UNL1        0.0687
     38 H          -8.0251    0.8687    2.0171 H       1  UNL1        0.2104
     39 H          -6.8594   -2.4057    3.2220 H       1  UNL1        0.0477
     40 H          -5.7093   -0.9948    2.7302 H       1  UNL1        0.0477
     41 H          -4.7882   -3.6631    3.0957 H       1  UNL1        0.0464
     42 H          -2.7770   -0.5081   -1.3332 H       1  UNL1        0.0630
     43 H          -0.6584    0.4143   -2.3119 H       1  UNL1        0.0626
     44 H           4.9366   -0.9795    0.1300 H       1  UNL1        0.0624
     45 H           7.2798   -0.5550   -0.5724 H       1  UNL1        0.0637
     46 H           8.6236    0.5660   -2.4085 H       1  UNL1        0.1733
     47 H           9.3318    2.5854    0.5003 H       1  UNL1        0.0482
     48 H          10.3098    3.9026   -0.1536 H       1  UNL1        0.0482
     49 H           8.5634    4.1977    0.0737 H       1  UNL1        0.0482
     50 H           5.9574    2.9952   -2.5478 H       1  UNL1        0.0637
     51 H           3.6659    2.5498   -1.8363 H       1  UNL1        0.0624
     52 H           3.6164   -0.2520    1.5807 H       1  UNL1        0.1037
     53 H          -0.7084   -1.5104    2.1970 H       1  UNL1        0.0667
     54 H          -5.6467   -3.9871    0.3484 H       1  UNL1        0.0477
     55 H          -6.7465   -4.2798    1.8041 H       1  UNL1        0.0477
@<TRIPOS>BOND
     1     1     2    1
     2     2     3    1
     3     2     4    1
     4     4     5    2
     5     4     6   am
     6     6     7    1
     7     7     8    1
     8     8     9    1
     9     9    10    3
    10    10    11    1
    11    11    12   ar
    12    12    13   ar
    13    13    14   ar
    14    14    15   ar
    15    15    16    2
    16    15    17   ar
    17    17    18    1
    18    18    19   ar
    19    19    20   ar
    20    20    21   ar
    21    21    22    1
    22    22    23    1
    23    23    24    1
    24    23    25    2
    25    23    26    2
    26    21    27   ar
    27    27    28   ar
    28    17    29   ar
    29    29    30   ar
    30    30    31   ar
    31    31    32   ar
    32     8    33    1
    33    33     6    1
    34    32    11   ar
    35    31    14   ar
    36    28    18   ar
    37     1    34    1
    38     1    35    1
    39     1    36    1
    40     2    37    1
    41     3    38    1
    42     7    39    1
    43     7    40    1
    44     8    41    1
    45    12    42    1
    46    13    43    1
    47    19    44    1
    48    20    45    1
    49    22    46    1
    50    24    47    1
    51    24    48    1
    52    24    49    1
    53    27    50    1
    54    28    51    1
    55    29    52    1
    56    32    53    1
    57    33    54    1
    58    33    55    1
