
     RDKit          3D

 67 71  0  0  0  0  0  0  0  0999 V2000
    9.0192   -2.2495   -0.7259 C   0  0  0  0  0  0  0  0  0  0  0  0
    8.2178   -1.5315    0.3397 C   0  0  0  0  0  0  0  0  0  0  0  0
    8.6909   -2.1017    1.6750 C   0  0  0  0  0  0  0  0  0  0  0  0
    6.8493   -1.8283    0.2177 O   0  0  0  0  0  0  0  0  0  0  0  0
    5.9438   -0.7608    0.1027 C   0  0  0  0  0  0  0  0  0  0  0  0
    4.6053   -1.0580   -0.0170 C   0  0  0  0  0  0  0  0  0  0  0  0
    3.6571   -0.0306   -0.1344 C   0  0  0  0  0  0  0  0  0  0  0  0
    2.3000   -0.3617   -0.2705 N   0  0  0  0  0  0  0  0  0  0  0  0
    1.2187    0.5445   -0.1396 C   0  0  0  0  0  0  0  0  0  0  0  0
    1.3190    1.8197    0.1865 N   0  0  0  0  0  0  0  0  0  0  0  0
    0.2163    2.5850    0.2822 C   0  0  0  0  0  0  0  0  0  0  0  0
   -1.0661    2.1169    0.0552 C   0  0  0  0  0  0  0  0  0  0  0  0
   -2.2312    2.9814    0.1751 C   0  0  0  0  0  0  0  0  0  0  0  0
   -2.0643    4.3248    0.5224 C   0  0  0  0  0  0  0  0  0  0  0  0
   -3.1403    5.2002    0.6517 C   0  0  0  0  0  0  0  0  0  0  0  0
   -4.4005    4.7084    0.4264 C   0  0  0  0  0  0  0  0  0  0  0  0
   -5.5248    5.5064    0.5333 C   0  0  0  0  0  0  0  0  0  0  0  0
   -6.7633    4.9814    0.3023 C   0  0  0  0  0  0  0  0  0  0  0  0
   -6.9769    3.6646   -0.0423 C   0  0  0  0  0  0  0  0  0  0  0  0
   -5.8594    2.8674   -0.1495 C   0  0  0  0  0  0  0  0  0  0  0  0
   -4.5773    3.3858    0.0835 C   0  0  0  0  0  0  0  0  0  0  0  0
   -3.4974    2.6033   -0.0224 N   0  0  0  0  0  0  0  0  0  0  0  0
   -1.1624    0.7861   -0.2848 C   0  0  0  0  0  0  0  0  0  0  0  0
   -2.3989    0.1465   -0.5641 N   0  0  0  0  0  0  0  0  0  0  0  0
   -2.3482   -1.2720   -0.8965 C   0  0  2  0  0  0  0  0  0  0  0  0
   -3.7531   -1.7729   -1.2799 C   0  0  0  0  0  0  0  0  0  0  0  0
   -3.6513   -3.2576   -1.1276 C   0  0  2  0  0  0  0  0  0  0  0  0
   -4.8306   -3.8486   -0.3863 C   0  0  0  0  0  0  0  0  0  0  0  0
   -4.6153   -5.2282   -0.3127 O   0  0  0  0  0  0  0  0  0  0  0  0
   -2.4110   -3.5383   -0.3186 C   0  0  1  0  0  0  0  0  0  0  0  0
   -1.4061   -3.9049   -1.2230 O   0  0  0  0  0  0  0  0  0  0  0  0
   -2.0758   -2.1596    0.2744 C   0  0  1  0  0  0  0  0  0  0  0  0
   -0.7874   -2.1930    0.7279 O   0  0  0  0  0  0  0  0  0  0  0  0
   -0.0207    0.0704   -0.3646 N   0  0  0  0  0  0  0  0  0  0  0  0
    4.1541    1.2381   -0.1211 C   0  0  0  0  0  0  0  0  0  0  0  0
    5.5197    1.5033    0.0021 C   0  0  0  0  0  0  0  0  0  0  0  0
    6.3992    0.5013    0.1126 N   0  0  0  0  0  0  0  0  0  0  0  0
    8.8152   -3.3354   -0.6092 H   0  0  0  0  0  0  0  0  0  0  0  0
    8.7622   -1.9466   -1.7450 H   0  0  0  0  0  0  0  0  0  0  0  0
   10.0976   -2.1185   -0.4985 H   0  0  0  0  0  0  0  0  0  0  0  0
    8.3931   -0.4333    0.2982 H   0  0  0  0  0  0  0  0  0  0  0  0
    9.6894   -1.6876    1.8664 H   0  0  0  0  0  0  0  0  0  0  0  0
    7.9258   -1.7578    2.4243 H   0  0  0  0  0  0  0  0  0  0  0  0
    8.6976   -3.2012    1.5550 H   0  0  0  0  0  0  0  0  0  0  0  0
    4.2326   -2.0708   -0.0260 H   0  0  0  0  0  0  0  0  0  0  0  0
    2.0532   -1.3766   -0.4914 H   0  0  0  0  0  0  0  0  0  0  0  0
    0.3993    3.6093    0.5528 H   0  0  0  0  0  0  0  0  0  0  0  0
   -1.0897    4.7381    0.7045 H   0  0  0  0  0  0  0  0  0  0  0  0
   -3.0062    6.2325    0.9190 H   0  0  0  0  0  0  0  0  0  0  0  0
   -5.3449    6.5410    0.8048 H   0  0  0  0  0  0  0  0  0  0  0  0
   -7.6141    5.6658    0.4034 H   0  0  0  0  0  0  0  0  0  0  0  0
   -7.9823    3.2917   -0.2168 H   0  0  0  0  0  0  0  0  0  0  0  0
   -5.9712    1.8213   -0.4189 H   0  0  0  0  0  0  0  0  0  0  0  0
   -3.3337    0.5682   -0.5610 H   0  0  0  0  0  0  0  0  0  0  0  0
   -1.6650   -1.4881   -1.7124 H   0  0  0  0  0  0  0  0  0  0  0  0
   -4.0173   -1.4566   -2.3046 H   0  0  0  0  0  0  0  0  0  0  0  0
   -4.4332   -1.3545   -0.5114 H   0  0  0  0  0  0  0  0  0  0  0  0
   -3.6076   -3.6996   -2.1474 H   0  0  0  0  0  0  0  0  0  0  0  0
   -4.8062   -3.4752    0.6531 H   0  0  0  0  0  0  0  0  0  0  0  0
   -5.7934   -3.6665   -0.8981 H   0  0  0  0  0  0  0  0  0  0  0  0
   -4.4458   -5.6160   -1.2248 H   0  0  0  0  0  0  0  0  0  0  0  0
   -2.5825   -4.2912    0.4649 H   0  0  0  0  0  0  0  0  0  0  0  0
   -1.7967   -4.3048   -2.0494 H   0  0  0  0  0  0  0  0  0  0  0  0
   -2.8283   -2.0044    1.0886 H   0  0  0  0  0  0  0  0  0  0  0  0
   -0.6873   -2.2310    1.7073 H   0  0  0  0  0  0  0  0  0  0  0  0
    3.4963    2.0870   -0.2146 H   0  0  0  0  0  0  0  0  0  0  0  0
    5.8949    2.5229    0.0106 H   0  0  0  0  0  0  0  0  0  0  0  0
  1  2  1  0
  2  3  1  0
  2  4  1  0
  4  5  1  0
  5  6  2  0
  6  7  1  0
  7  8  1  0
  8  9  1  0
  9 10  2  0
 10 11  1  0
 11 12  2  0
 12 13  1  0
 13 14  2  0
 14 15  1  0
 15 16  2  0
 16 17  1  0
 17 18  2  0
 18 19  1  0
 19 20  2  0
 20 21  1  0
 21 22  2  0
 12 23  1  0
 23 24  1  0
 24 25  1  0
 25 26  1  0
 26 27  1  0
 27 28  1  0
 28 29  1  0
 27 30  1  0
 30 31  1  0
 30 32  1  0
 32 33  1  0
 23 34  2  0
  7 35  2  0
 35 36  1  0
 36 37  2  0
 37  5  1  0
 34  9  1  0
 22 13  1  0
 32 25  1  0
 21 16  1  0
  1 38  1  0
  1 39  1  0
  1 40  1  0
  2 41  1  0
  3 42  1  0
  3 43  1  0
  3 44  1  0
  6 45  1  0
  8 46  1  0
 11 47  1  0
 14 48  1  0
 15 49  1  0
 17 50  1  0
 18 51  1  0
 19 52  1  0
 20 53  1  0
 24 54  1  0
 25 55  1  6
 26 56  1  0
 26 57  1  0
 27 58  1  6
 28 59  1  0
 28 60  1  0
 29 61  1  0
 30 62  1  1
 31 63  1  0
 32 64  1  1
 33 65  1  0
 35 66  1  0
 36 67  1  0
M  END
$$$$
