@<TRIPOS>MOLECULE
*****
 67 71 0 0 0
SMALL
GASTEIGER

@<TRIPOS>ATOM
      1 C           9.0192   -2.2495   -0.7259 C.3     1  UNL1       -0.0280
      2 C           8.2178   -1.5315    0.3397 C.3     1  UNL1        0.0962
      3 C           8.6909   -2.1017    1.6750 C.3     1  UNL1       -0.0280
      4 O           6.8493   -1.8283    0.2177 O.3     1  UNL1       -0.4736
      5 C           5.9438   -0.7608    0.1027 C.ar    1  UNL1        0.2167
      6 C           4.6053   -1.0580   -0.0170 C.ar    1  UNL1        0.0212
      7 C           3.6571   -0.0306   -0.1344 C.ar    1  UNL1        0.0400
      8 N           2.3000   -0.3617   -0.2705 N.pl3   1  UNL1       -0.2834
      9 C           1.2187    0.5445   -0.1396 C.ar    1  UNL1        0.2212
     10 N           1.3190    1.8197    0.1865 N.ar    1  UNL1       -0.2219
     11 C           0.2163    2.5850    0.2822 C.ar    1  UNL1        0.0437
     12 C          -1.0661    2.1169    0.0552 C.ar    1  UNL1        0.0583
     13 C          -2.2312    2.9814    0.1751 C.ar    1  UNL1        0.0764
     14 C          -2.0643    4.3248    0.5224 C.ar    1  UNL1       -0.0349
     15 C          -3.1403    5.2002    0.6517 C.ar    1  UNL1       -0.0505
     16 C          -4.4005    4.7084    0.4264 C.ar    1  UNL1        0.0004
     17 C          -5.5248    5.5064    0.5333 C.ar    1  UNL1       -0.0526
     18 C          -6.7633    4.9814    0.3023 C.ar    1  UNL1       -0.0611
     19 C          -6.9769    3.6646   -0.0423 C.ar    1  UNL1       -0.0597
     20 C          -5.8594    2.8674   -0.1495 C.ar    1  UNL1       -0.0357
     21 C          -4.5773    3.3858    0.0835 C.ar    1  UNL1        0.0717
     22 N          -3.4974    2.6033   -0.0224 N.ar    1  UNL1       -0.2465
     23 C          -1.1624    0.7861   -0.2848 C.ar    1  UNL1        0.1334
     24 N          -2.3989    0.1465   -0.5641 N.pl3   1  UNL1       -0.3230
     25 C          -2.3482   -1.2720   -0.8965 C.3     1  UNL1        0.0507
     26 C          -3.7531   -1.7729   -1.2799 C.3     1  UNL1       -0.0247
     27 C          -3.6513   -3.2576   -1.1276 C.3     1  UNL1        0.0124
     28 C          -4.8306   -3.8486   -0.3863 C.3     1  UNL1        0.0495
     29 O          -4.6153   -5.2282   -0.3127 O.3     1  UNL1       -0.3946
     30 C          -2.4110   -3.5383   -0.3186 C.3     1  UNL1        0.0877
     31 O          -1.4061   -3.9049   -1.2230 O.3     1  UNL1       -0.3888
     32 C          -2.0758   -2.1596    0.2744 C.3     1  UNL1        0.0996
     33 O          -0.7874   -2.1930    0.7279 O.3     1  UNL1       -0.3874
     34 N          -0.0207    0.0704   -0.3646 N.ar    1  UNL1       -0.1988
     35 C           4.1541    1.2381   -0.1211 C.ar    1  UNL1       -0.0221
     36 C           5.5197    1.5033    0.0021 C.ar    1  UNL1        0.0331
     37 N           6.3992    0.5013    0.1126 N.ar    1  UNL1       -0.2212
     38 H           8.8152   -3.3354   -0.6092 H       1  UNL1        0.0265
     39 H           8.7622   -1.9466   -1.7450 H       1  UNL1        0.0265
     40 H          10.0976   -2.1185   -0.4985 H       1  UNL1        0.0265
     41 H           8.3931   -0.4333    0.2982 H       1  UNL1        0.0728
     42 H           9.6894   -1.6876    1.8664 H       1  UNL1        0.0265
     43 H           7.9258   -1.7578    2.4243 H       1  UNL1        0.0265
     44 H           8.6976   -3.2012    1.5550 H       1  UNL1        0.0265
     45 H           4.2326   -2.0708   -0.0260 H       1  UNL1        0.0689
     46 H           2.0532   -1.3766   -0.4914 H       1  UNL1        0.1550
     47 H           0.3993    3.6093    0.5528 H       1  UNL1        0.0838
     48 H          -1.0897    4.7381    0.7045 H       1  UNL1        0.0639
     49 H          -3.0062    6.2325    0.9190 H       1  UNL1        0.0625
     50 H          -5.3449    6.5410    0.8048 H       1  UNL1        0.0624
     51 H          -7.6141    5.6658    0.4034 H       1  UNL1        0.0618
     52 H          -7.9823    3.2917   -0.2168 H       1  UNL1        0.0618
     53 H          -5.9712    1.8213   -0.4189 H       1  UNL1        0.0639
     54 H          -3.3337    0.5682   -0.5610 H       1  UNL1        0.1479
     55 H          -1.6650   -1.4881   -1.7124 H       1  UNL1        0.0524
     56 H          -4.0173   -1.4566   -2.3046 H       1  UNL1        0.0288
     57 H          -4.4332   -1.3545   -0.5114 H       1  UNL1        0.0288
     58 H          -3.6076   -3.6996   -2.1474 H       1  UNL1        0.0349
     59 H          -4.8062   -3.4752    0.6531 H       1  UNL1        0.0561
     60 H          -5.7934   -3.6665   -0.8981 H       1  UNL1        0.0561
     61 H          -4.4458   -5.6160   -1.2248 H       1  UNL1        0.2094
     62 H          -2.5825   -4.2912    0.4649 H       1  UNL1        0.0623
     63 H          -1.7967   -4.3048   -2.0494 H       1  UNL1        0.2099
     64 H          -2.8283   -2.0044    1.0886 H       1  UNL1        0.0638
     65 H          -0.6873   -2.2310    1.7073 H       1  UNL1        0.2100
     66 H           3.4963    2.0870   -0.2146 H       1  UNL1        0.0651
     67 H           5.8949    2.5229    0.0106 H       1  UNL1        0.0831
@<TRIPOS>BOND
     1     1     2    1
     2     2     3    1
     3     2     4    1
     4     4     5    1
     5     5     6   ar
     6     6     7   ar
     7     7     8    1
     8     8     9    1
     9     9    10   ar
    10    10    11   ar
    11    11    12   ar
    12    12    13    1
    13    13    14   ar
    14    14    15   ar
    15    15    16   ar
    16    16    17   ar
    17    17    18   ar
    18    18    19   ar
    19    19    20   ar
    20    20    21   ar
    21    21    22   ar
    22    12    23   ar
    23    23    24    1
    24    24    25    1
    25    25    26    1
    26    26    27    1
    27    27    28    1
    28    28    29    1
    29    27    30    1
    30    30    31    1
    31    30    32    1
    32    32    33    1
    33    23    34   ar
    34     7    35   ar
    35    35    36   ar
    36    36    37   ar
    37    37     5   ar
    38    34     9   ar
    39    22    13   ar
    40    32    25    1
    41    21    16   ar
    42     1    38    1
    43     1    39    1
    44     1    40    1
    45     2    41    1
    46     3    42    1
    47     3    43    1
    48     3    44    1
    49     6    45    1
    50     8    46    1
    51    11    47    1
    52    14    48    1
    53    15    49    1
    54    17    50    1
    55    18    51    1
    56    19    52    1
    57    20    53    1
    58    24    54    1
    59    25    55    1
    60    26    56    1
    61    26    57    1
    62    27    58    1
    63    28    59    1
    64    28    60    1
    65    29    61    1
    66    30    62    1
    67    31    63    1
    68    32    64    1
    69    33    65    1
    70    35    66    1
    71    36    67    1
