
     RDKit          3D

 40 41  0  0  0  0  0  0  0  0999 V2000
   -3.5859   -1.9873   -1.1718 C   0  0  0  0  0  0  0  0  0  0  0  0
   -2.8618   -1.2506   -0.1467 N   0  0  0  0  0  0  0  0  0  0  0  0
   -3.6105   -1.3706    1.0933 C   0  0  0  0  0  0  0  0  0  0  0  0
   -2.6729    0.1352   -0.5188 C   0  0  0  0  0  0  0  0  0  0  0  0
   -1.9315    0.9430    0.5018 C   0  0  0  0  0  0  0  0  0  0  0  0
   -0.6795    0.5333    0.7832 O   0  0  0  0  0  0  0  0  0  0  0  0
    0.2633    0.5219   -0.2010 C   0  0  0  0  0  0  0  0  0  0  0  0
    1.0437   -0.7105   -0.3795 C   0  0  0  0  0  0  0  0  0  0  0  0
    0.6871   -2.0170   -0.3508 C   0  0  0  0  0  0  0  0  0  0  0  0
    1.5066   -3.1017   -0.5409 C   0  0  0  0  0  0  0  0  0  0  0  0
    2.8270   -2.9004   -0.7880 C   0  0  0  0  0  0  0  0  0  0  0  0
    3.3035   -1.6090   -0.8400 C   0  0  0  0  0  0  0  0  0  0  0  0
    2.4175   -0.5723   -0.6386 C   0  0  0  0  0  0  0  0  0  0  0  0
    1.2625    1.6763    0.0553 C   0  0  0  0  0  0  0  0  0  0  0  0
    1.6726    1.7636    1.3705 C   0  0  0  0  0  0  0  0  0  0  0  0
    2.5647    2.7435    1.7656 C   0  0  0  0  0  0  0  0  0  0  0  0
    3.0193    3.6153    0.8048 C   0  0  0  0  0  0  0  0  0  0  0  0
    2.6010    3.5165   -0.5062 C   0  0  0  0  0  0  0  0  0  0  0  0
    1.7164    2.5558   -0.9324 C   0  0  0  0  0  0  0  0  0  0  0  0
   -2.9291   -2.1547   -2.0679 H   0  0  0  0  0  0  0  0  0  0  0  0
   -3.8077   -2.9850   -0.7617 H   0  0  0  0  0  0  0  0  0  0  0  0
   -4.4714   -1.4271   -1.5266 H   0  0  0  0  0  0  0  0  0  0  0  0
   -4.4884   -0.6662    1.1013 H   0  0  0  0  0  0  0  0  0  0  0  0
   -2.9931   -1.1068    1.9720 H   0  0  0  0  0  0  0  0  0  0  0  0
   -4.0077   -2.4253    1.1465 H   0  0  0  0  0  0  0  0  0  0  0  0
   -3.6977    0.5768   -0.6745 H   0  0  0  0  0  0  0  0  0  0  0  0
   -2.1189    0.1328   -1.4870 H   0  0  0  0  0  0  0  0  0  0  0  0
   -2.0274    2.0192    0.2333 H   0  0  0  0  0  0  0  0  0  0  0  0
   -2.5197    0.8683    1.4719 H   0  0  0  0  0  0  0  0  0  0  0  0
   -0.2296    0.7854   -1.1583 H   0  0  0  0  0  0  0  0  0  0  0  0
   -0.3421   -2.2185   -0.1550 H   0  0  0  0  0  0  0  0  0  0  0  0
    1.1132   -4.0931   -0.4957 H   0  0  0  0  0  0  0  0  0  0  0  0
    3.4670   -3.7544   -0.9367 H   0  0  0  0  0  0  0  0  0  0  0  0
    4.3529   -1.4519   -1.0363 H   0  0  0  0  0  0  0  0  0  0  0  0
    2.8876    0.4062   -0.6987 H   0  0  0  0  0  0  0  0  0  0  0  0
    1.3285    1.0890    2.1432 H   0  0  0  0  0  0  0  0  0  0  0  0
    2.9571    2.9120    2.7585 H   0  0  0  0  0  0  0  0  0  0  0  0
    3.7284    4.4380    0.9822 H   0  0  0  0  0  0  0  0  0  0  0  0
    2.9280    4.1830   -1.3201 H   0  0  0  0  0  0  0  0  0  0  0  0
    1.3269    2.3870   -1.9132 H   0  0  0  0  0  0  0  0  0  0  0  0
  1  2  1  0
  2  3  1  0
  2  4  1  0
  4  5  1  0
  5  6  1  0
  6  7  1  0
  7  8  1  0
  8  9  2  0
  9 10  1  0
 10 11  2  0
 11 12  1  0
 12 13  2  0
  7 14  1  0
 14 15  2  0
 15 16  1  0
 16 17  2  0
 17 18  1  0
 18 19  2  0
 13  8  1  0
 19 14  1  0
  1 20  1  0
  1 21  1  0
  1 22  1  0
  3 23  1  0
  3 24  1  0
  3 25  1  0
  4 26  1  0
  4 27  1  0
  5 28  1  0
  5 29  1  0
  7 30  1  0
  9 31  1  0
 10 32  1  0
 11 33  1  0
 12 34  1  0
 13 35  1  0
 15 36  1  0
 16 37  1  0
 17 38  1  0
 18 39  1  0
 19 40  1  0
M  END
$$$$
