@<TRIPOS>MOLECULE
*****
 43 45 0 0 0
SMALL
GASTEIGER

@<TRIPOS>ATOM
      1 C           6.2791    1.8216   -1.8551 C.3     1  UNL1        0.0790
      2 O           6.7321    0.7526   -1.0333 O.3     1  UNL1       -0.4914
      3 C           5.7962   -0.0223   -0.3673 C.ar    1  UNL1        0.1618
      4 C           4.4279    0.2117   -0.4768 C.ar    1  UNL1       -0.0092
      5 C           3.5081   -0.5800    0.2016 C.ar    1  UNL1       -0.0213
      6 C           2.0872   -0.3376    0.0884 C.2     1  UNL1       -0.0524
      7 C           1.5261    0.6154   -0.6355 C.2     1  UNL1       -0.0340
      8 C           0.0813    0.7448   -0.6578 C.ar    1  UNL1        0.0860
      9 C          -0.8425   -0.0306    0.0079 C.ar    1  UNL1       -0.0092
     10 C          -2.1046    0.4329   -0.2893 C.ar    1  UNL1        0.0664
     11 C          -3.3439   -0.1165    0.2149 C.ar    1  UNL1        0.0035
     12 C          -3.3314   -1.2070    1.0783 C.ar    1  UNL1       -0.0489
     13 C          -4.4786   -1.7590    1.5794 C.ar    1  UNL1       -0.0159
     14 C          -5.6812   -1.1906    1.1958 C.ar    1  UNL1        0.1585
     15 O          -6.8361   -1.7484    1.7018 O.3     1  UNL1       -0.5033
     16 C          -5.7554   -0.1189    0.3507 C.ar    1  UNL1        0.1619
     17 O          -6.9671    0.4282   -0.0155 O.3     1  UNL1       -0.4914
     18 C          -6.9850    1.5293   -0.8871 C.3     1  UNL1        0.0790
     19 C          -4.5831    0.4095   -0.1331 C.ar    1  UNL1       -0.0072
     20 N          -1.9394    1.4701   -1.1202 N.ar    1  UNL1       -0.2764
     21 N          -0.6261    1.6531   -1.3382 N.ar    1  UNL1       -0.1739
     22 C           3.9652   -1.6202    1.0004 C.ar    1  UNL1       -0.0509
     23 C           5.3179   -1.8552    1.1114 C.ar    1  UNL1       -0.0160
     24 C           6.2206   -1.0574    0.4292 C.ar    1  UNL1        0.1585
     25 O           7.5957   -1.3077    0.5512 O.3     1  UNL1       -0.5033
     26 H           7.1058    2.4725   -2.1745 H       1  UNL1        0.0660
     27 H           5.6968    1.3972   -2.6983 H       1  UNL1        0.0660
     28 H           5.5586    2.4855   -1.2935 H       1  UNL1        0.0660
     29 H           4.1350    1.0355   -1.1133 H       1  UNL1        0.0661
     30 H           1.4182   -1.0034    0.6531 H       1  UNL1        0.0624
     31 H           2.1557    1.2868   -1.2025 H       1  UNL1        0.0639
     32 H          -0.6109   -0.8815    0.6692 H       1  UNL1        0.0660
     33 H          -2.3715   -1.6515    1.3772 H       1  UNL1        0.0625
     34 H          -4.4715   -2.6043    2.2487 H       1  UNL1        0.0655
     35 H          -7.3124   -1.2764    2.4650 H       1  UNL1        0.2923
     36 H          -6.4053    1.2738   -1.8006 H       1  UNL1        0.0660
     37 H          -6.5717    2.4474   -0.4201 H       1  UNL1        0.0660
     38 H          -8.0483    1.6776   -1.2296 H       1  UNL1        0.0660
     39 H          -4.5869    1.2725   -0.8167 H       1  UNL1        0.0662
     40 H          -2.6740    2.0730   -1.5571 H       1  UNL1        0.1889
     41 H           3.2574   -2.2394    1.5303 H       1  UNL1        0.0625
     42 H           5.6948   -2.6659    1.7329 H       1  UNL1        0.0655
     43 H           7.9674   -2.2171    0.2872 H       1  UNL1        0.2923
@<TRIPOS>BOND
     1     1     2    1
     2     2     3    1
     3     3     4   ar
     4     4     5   ar
     5     5     6    1
     6     6     7    2
     7     7     8    1
     8     8     9   ar
     9     9    10   ar
    10    10    11    1
    11    11    12   ar
    12    12    13   ar
    13    13    14   ar
    14    14    15    1
    15    14    16   ar
    16    16    17    1
    17    17    18    1
    18    16    19   ar
    19    10    20   ar
    20    20    21   ar
    21     5    22   ar
    22    22    23   ar
    23    23    24   ar
    24    24    25    1
    25    24     3   ar
    26    21     8   ar
    27    19    11   ar
    28     1    26    1
    29     1    27    1
    30     1    28    1
    31     4    29    1
    32     6    30    1
    33     7    31    1
    34     9    32    1
    35    12    33    1
    36    13    34    1
    37    15    35    1
    38    18    36    1
    39    18    37    1
    40    18    38    1
    41    19    39    1
    42    20    40    1
    43    22    41    1
    44    23    42    1
    45    25    43    1
