
     RDKit          3D

 43 45  0  0  0  0  0  0  0  0999 V2000
    6.2791    1.8216   -1.8551 C   0  0  0  0  0  0  0  0  0  0  0  0
    6.7321    0.7526   -1.0333 O   0  0  0  0  0  0  0  0  0  0  0  0
    5.7962   -0.0223   -0.3673 C   0  0  0  0  0  0  0  0  0  0  0  0
    4.4279    0.2117   -0.4768 C   0  0  0  0  0  0  0  0  0  0  0  0
    3.5081   -0.5800    0.2016 C   0  0  0  0  0  0  0  0  0  0  0  0
    2.0872   -0.3376    0.0884 C   0  0  0  0  0  0  0  0  0  0  0  0
    1.5261    0.6154   -0.6355 C   0  0  0  0  0  0  0  0  0  0  0  0
    0.0813    0.7448   -0.6578 C   0  0  0  0  0  0  0  0  0  0  0  0
   -0.8425   -0.0306    0.0079 C   0  0  0  0  0  0  0  0  0  0  0  0
   -2.1046    0.4329   -0.2893 C   0  0  0  0  0  0  0  0  0  0  0  0
   -3.3439   -0.1165    0.2149 C   0  0  0  0  0  0  0  0  0  0  0  0
   -3.3314   -1.2070    1.0783 C   0  0  0  0  0  0  0  0  0  0  0  0
   -4.4786   -1.7590    1.5794 C   0  0  0  0  0  0  0  0  0  0  0  0
   -5.6812   -1.1906    1.1958 C   0  0  0  0  0  0  0  0  0  0  0  0
   -6.8361   -1.7484    1.7018 O   0  0  0  0  0  0  0  0  0  0  0  0
   -5.7554   -0.1189    0.3507 C   0  0  0  0  0  0  0  0  0  0  0  0
   -6.9671    0.4282   -0.0155 O   0  0  0  0  0  0  0  0  0  0  0  0
   -6.9850    1.5293   -0.8871 C   0  0  0  0  0  0  0  0  0  0  0  0
   -4.5831    0.4095   -0.1331 C   0  0  0  0  0  0  0  0  0  0  0  0
   -1.9394    1.4701   -1.1202 N   0  0  0  0  0  0  0  0  0  0  0  0
   -0.6261    1.6531   -1.3382 N   0  0  0  0  0  0  0  0  0  0  0  0
    3.9652   -1.6202    1.0004 C   0  0  0  0  0  0  0  0  0  0  0  0
    5.3179   -1.8552    1.1114 C   0  0  0  0  0  0  0  0  0  0  0  0
    6.2206   -1.0574    0.4292 C   0  0  0  0  0  0  0  0  0  0  0  0
    7.5957   -1.3077    0.5512 O   0  0  0  0  0  0  0  0  0  0  0  0
    7.1058    2.4725   -2.1745 H   0  0  0  0  0  0  0  0  0  0  0  0
    5.6968    1.3972   -2.6983 H   0  0  0  0  0  0  0  0  0  0  0  0
    5.5586    2.4855   -1.2935 H   0  0  0  0  0  0  0  0  0  0  0  0
    4.1350    1.0355   -1.1133 H   0  0  0  0  0  0  0  0  0  0  0  0
    1.4182   -1.0034    0.6531 H   0  0  0  0  0  0  0  0  0  0  0  0
    2.1557    1.2868   -1.2025 H   0  0  0  0  0  0  0  0  0  0  0  0
   -0.6109   -0.8815    0.6692 H   0  0  0  0  0  0  0  0  0  0  0  0
   -2.3715   -1.6515    1.3772 H   0  0  0  0  0  0  0  0  0  0  0  0
   -4.4715   -2.6043    2.2487 H   0  0  0  0  0  0  0  0  0  0  0  0
   -7.3124   -1.2764    2.4650 H   0  0  0  0  0  0  0  0  0  0  0  0
   -6.4053    1.2738   -1.8006 H   0  0  0  0  0  0  0  0  0  0  0  0
   -6.5717    2.4474   -0.4201 H   0  0  0  0  0  0  0  0  0  0  0  0
   -8.0483    1.6776   -1.2296 H   0  0  0  0  0  0  0  0  0  0  0  0
   -4.5869    1.2725   -0.8167 H   0  0  0  0  0  0  0  0  0  0  0  0
   -2.6740    2.0730   -1.5571 H   0  0  0  0  0  0  0  0  0  0  0  0
    3.2574   -2.2394    1.5303 H   0  0  0  0  0  0  0  0  0  0  0  0
    5.6948   -2.6659    1.7329 H   0  0  0  0  0  0  0  0  0  0  0  0
    7.9674   -2.2171    0.2872 H   0  0  0  0  0  0  0  0  0  0  0  0
  1  2  1  0
  2  3  1  0
  3  4  2  0
  4  5  1  0
  5  6  1  0
  6  7  2  0
  7  8  1  0
  8  9  1  0
  9 10  2  0
 10 11  1  0
 11 12  2  0
 12 13  1  0
 13 14  2  0
 14 15  1  0
 14 16  1  0
 16 17  1  0
 17 18  1  0
 16 19  2  0
 10 20  1  0
 20 21  1  0
  5 22  2  0
 22 23  1  0
 23 24  2  0
 24 25  1  0
 24  3  1  0
 21  8  2  0
 19 11  1  0
  1 26  1  0
  1 27  1  0
  1 28  1  0
  4 29  1  0
  6 30  1  0
  7 31  1  0
  9 32  1  0
 12 33  1  0
 13 34  1  0
 15 35  1  0
 18 36  1  0
 18 37  1  0
 18 38  1  0
 19 39  1  0
 20 40  1  0
 22 41  1  0
 23 42  1  0
 25 43  1  0
M  END
$$$$
