@<TRIPOS>MOLECULE
*****
 69 72 0 0 0
SMALL
GASTEIGER

@<TRIPOS>ATOM
      1 C          -8.9698    0.3519    0.8275 C.3     1  UNL1       -0.0470
      2 C          -8.4055   -1.0297    0.5472 C.3     1  UNL1        0.0233
      3 N          -7.0700   -1.1409    1.0596 N.ar    1  UNL1       -0.3149
      4 C          -5.9743   -0.8183    0.3108 C.ar    1  UNL1        0.0156
      5 C          -4.6990   -0.9317    0.8226 C.ar    1  UNL1       -0.0015
      6 C          -3.5543   -0.5749   -0.0095 C.ar    1  UNL1       -0.0165
      7 C          -2.3414   -1.2087    0.1363 C.ar    1  UNL1       -0.0537
      8 C          -1.2337   -0.8758   -0.6547 C.ar    1  UNL1       -0.0562
      9 C          -1.3175    0.0905   -1.6004 C.ar    1  UNL1       -0.0271
     10 C          -0.2019    0.5189   -2.5170 C.3     1  UNL1        0.0515
     11 C          -0.3243   -0.2446   -3.7907 C.3     1  UNL1       -0.0421
     12 N           1.0716    0.5419   -1.9078 N.am    1  UNL1       -0.2605
     13 C           1.7609    1.8013   -1.5899 C.3     1  UNL1        0.0224
     14 C           2.2207    1.7338   -0.1417 C.3     1  UNL1        0.0076
     15 C           3.2182    0.5964    0.0797 C.3     1  UNL1        0.1440
     16 C           3.4837    0.4945    1.5374 C.3     1  UNL1        0.0199
     17 C           4.4071   -0.5649    1.9949 C.3     1  UNL1        0.0645
     18 C           3.9479   -1.9654    1.6351 C.3     1  UNL1       -0.0362
     19 C           5.8503   -0.4045    1.6493 C.3     1  UNL1       -0.0362
     20 O           4.3534   -0.5454    3.4186 O.3     1  UNL1       -0.3890
     21 C           4.4008    0.9882   -0.7440 C.ar    1  UNL1       -0.0040
     22 C           4.6775    0.4230   -1.9557 C.ar    1  UNL1       -0.0548
     23 C           5.7527    0.8403   -2.6894 C.ar    1  UNL1       -0.0614
     24 C           6.6040    1.8411   -2.2506 C.ar    1  UNL1       -0.0617
     25 C           6.2908    2.3912   -1.0151 C.ar    1  UNL1       -0.0614
     26 C           5.2141    1.9833   -0.2654 C.ar    1  UNL1       -0.0548
     27 O           2.6174   -0.5931   -0.4011 O.3     1  UNL1       -0.4387
     28 C           1.7861   -0.6249   -1.5244 C.2     1  UNL1        0.4042
     29 O           1.6670   -1.6673   -2.1947 O.2     1  UNL1       -0.2262
     30 C          -2.5331    0.7322   -1.7529 C.ar    1  UNL1       -0.0562
     31 C          -3.6258    0.4078   -0.9764 C.ar    1  UNL1       -0.0537
     32 C          -4.5540   -1.3837    2.1240 C.ar    1  UNL1       -0.0475
     33 C          -5.6598   -1.7062    2.8711 C.ar    1  UNL1        0.0036
     34 C          -6.9173   -1.5829    2.3338 C.ar    1  UNL1        0.2513
     35 O          -7.9262   -1.8810    3.0267 O.2     1  UNL1       -0.2677
     36 H          -8.9009    0.5743    1.9155 H       1  UNL1        0.0247
     37 H          -8.4010    1.1506    0.3058 H       1  UNL1        0.0247
     38 H         -10.0491    0.3833    0.5747 H       1  UNL1        0.0247
     39 H          -9.0583   -1.7470    1.0697 H       1  UNL1        0.0490
     40 H          -8.4442   -1.1615   -0.5647 H       1  UNL1        0.0490
     41 H          -6.1820   -0.4717   -0.7025 H       1  UNL1        0.0816
     42 H          -2.2373   -1.9952    0.8905 H       1  UNL1        0.0624
     43 H          -0.3237   -1.4040   -0.4825 H       1  UNL1        0.0621
     44 H          -0.4645    1.6139   -2.7674 H       1  UNL1        0.0549
     45 H          -0.4565   -1.3360   -3.5714 H       1  UNL1        0.0251
     46 H           0.5610   -0.0530   -4.4321 H       1  UNL1        0.0251
     47 H          -1.2758    0.0752   -4.2909 H       1  UNL1        0.0251
     48 H           2.6464    1.9382   -2.2248 H       1  UNL1        0.0467
     49 H           1.0946    2.6534   -1.6967 H       1  UNL1        0.0467
     50 H           1.3350    1.6250    0.5342 H       1  UNL1        0.0322
     51 H           2.7224    2.7016    0.0751 H       1  UNL1        0.0322
     52 H           2.4856    0.4072    2.0619 H       1  UNL1        0.0335
     53 H           3.8794    1.4692    1.9235 H       1  UNL1        0.0335
     54 H           4.1521   -2.2370    0.5965 H       1  UNL1        0.0257
     55 H           4.5633   -2.6590    2.2729 H       1  UNL1        0.0257
     56 H           2.8942   -2.1330    1.9478 H       1  UNL1        0.0257
     57 H           6.2351    0.5691    1.9943 H       1  UNL1        0.0257
     58 H           6.3982   -1.1869    2.2716 H       1  UNL1        0.0257
     59 H           6.1024   -0.5898    0.5844 H       1  UNL1        0.0257
     60 H           3.4808   -0.9564    3.6427 H       1  UNL1        0.2101
     61 H           4.0612   -0.3523   -2.3456 H       1  UNL1        0.0622
     62 H           6.0090    0.4132   -3.6653 H       1  UNL1        0.0618
     63 H           7.4585    2.1772   -2.8274 H       1  UNL1        0.0618
     64 H           6.9599    3.1855   -0.6581 H       1  UNL1        0.0618
     65 H           5.0692    2.4916    0.6866 H       1  UNL1        0.0622
     66 H          -2.6430    1.5127   -2.4989 H       1  UNL1        0.0621
     67 H          -4.5936    0.9000   -1.0787 H       1  UNL1        0.0624
     68 H          -3.5709   -1.4886    2.5680 H       1  UNL1        0.0626
     69 H          -5.5238   -2.0621    3.8994 H       1  UNL1        0.0672
@<TRIPOS>BOND
     1     1     2    1
     2     2     3    1
     3     3     4   ar
     4     4     5   ar
     5     5     6    1
     6     6     7   ar
     7     7     8   ar
     8     8     9   ar
     9     9    10    1
    10    10    11    1
    11    10    12    1
    12    12    13    1
    13    13    14    1
    14    14    15    1
    15    15    16    1
    16    16    17    1
    17    17    18    1
    18    17    19    1
    19    17    20    1
    20    15    21    1
    21    21    22   ar
    22    22    23   ar
    23    23    24   ar
    24    24    25   ar
    25    25    26   ar
    26    15    27    1
    27    27    28    1
    28    28    29    2
    29     9    30   ar
    30    30    31   ar
    31     5    32   ar
    32    32    33   ar
    33    33    34   ar
    34    34    35    2
    35    34     3   ar
    36    31     6   ar
    37    28    12   am
    38    26    21   ar
    39     1    36    1
    40     1    37    1
    41     1    38    1
    42     2    39    1
    43     2    40    1
    44     4    41    1
    45     7    42    1
    46     8    43    1
    47    10    44    1
    48    11    45    1
    49    11    46    1
    50    11    47    1
    51    13    48    1
    52    13    49    1
    53    14    50    1
    54    14    51    1
    55    16    52    1
    56    16    53    1
    57    18    54    1
    58    18    55    1
    59    18    56    1
    60    19    57    1
    61    19    58    1
    62    19    59    1
    63    20    60    1
    64    22    61    1
    65    23    62    1
    66    24    63    1
    67    25    64    1
    68    26    65    1
    69    30    66    1
    70    31    67    1
    71    32    68    1
    72    33    69    1
