@<TRIPOS>MOLECULE
*****
 73 77 0 0 0
SMALL
GASTEIGER

@<TRIPOS>ATOM
      1 C           6.7910   -1.9286    0.7317 C.3     1  UNL1       -0.0361
      2 C           6.1611   -0.5517    0.9040 C.3     1  UNL1        0.0873
      3 O           5.1159   -0.4896    0.0195 O.3     1  UNL1       -0.3431
      4 C           4.3686    0.6778    0.0532 C.3     1  UNL1        0.1879
      5 O           3.1154    0.3381    0.5524 O.3     1  UNL1       -0.3461
      6 C           2.1068    0.5265   -0.3564 C.3     1  UNL1        0.0796
      7 C           0.7449    0.1392    0.2235 C.3     1  UNL1        0.1144
      8 O          -0.1552    0.3520   -0.7755 O.3     1  UNL1       -0.3313
      9 C          -1.0287   -0.7653   -0.9145 C.3     1  UNL1        0.2311
     10 O          -2.1157   -0.3883   -1.7437 O.3     1  UNL1       -0.4532
     11 C          -3.1604    0.2435   -1.0472 C.ar    1  UNL1        0.2138
     12 C          -4.3520   -0.0816   -0.3793 C.ar    1  UNL1        0.1810
     13 O          -5.0356    0.8627    0.1539 O.2     1  UNL1       -0.4507
     14 C          -4.7072    2.1252    0.1221 C.ar    1  UNL1        0.1465
     15 C          -5.6456    2.9028    0.7825 C.ar    1  UNL1        0.0231
     16 C          -5.3577    4.2737    0.7844 C.ar    1  UNL1        0.1239
     17 O          -6.2562    5.1453    1.4343 O.3     1  UNL1       -0.5065
     18 C          -4.2264    4.7646    0.1704 C.ar    1  UNL1        0.0223
     19 C          -3.3461    3.9197   -0.4638 C.ar    1  UNL1        0.1348
     20 O          -2.1904    4.3821   -1.0984 O.3     1  UNL1       -0.5058
     21 C          -3.5660    2.5550   -0.5054 C.ar    1  UNL1        0.1092
     22 C          -2.7343    1.6051   -1.1266 C.ar    1  UNL1        0.2382
     23 O          -1.7568    2.1899   -1.6368 O.2     1  UNL1       -0.2830
     24 C          -4.3081   -1.5031   -0.5955 C.ar    1  UNL1        0.0247
     25 C          -5.5468   -1.6679    0.2255 C.ar    1  UNL1       -0.0057
     26 C          -6.2747   -2.8428    0.5737 C.ar    1  UNL1        0.1589
     27 O          -7.4005   -3.1810    1.2969 O.3     1  UNL1       -0.5033
     28 C          -5.7966   -4.0544    0.0954 C.ar    1  UNL1        0.1583
     29 O          -6.2072   -5.3570    0.2115 O.3     1  UNL1       -0.5033
     30 C          -4.6328   -3.9832   -0.6886 C.ar    1  UNL1       -0.0159
     31 C          -4.1641   -2.7284   -0.8498 C.ar    1  UNL1       -0.0473
     32 C          -0.1580   -1.8590   -1.4069 C.3     1  UNL1        0.1454
     33 O          -0.7446   -2.9069   -2.0709 O.3     1  UNL1       -0.3829
     34 C           0.6472   -2.3450   -0.1887 C.3     1  UNL1        0.1152
     35 O           1.8797   -2.8153   -0.6439 O.3     1  UNL1       -0.3864
     36 C           0.8784   -1.2330    0.7619 C.3     1  UNL1        0.1120
     37 O          -0.0459   -1.3776    1.8230 O.3     1  UNL1       -0.3865
     38 C           4.9812    1.7799    0.8718 C.3     1  UNL1        0.1341
     39 O           4.4327    2.9677    0.3985 O.3     1  UNL1       -0.3841
     40 C           6.4650    1.8689    0.7944 C.3     1  UNL1        0.1140
     41 O           6.9296    2.7658   -0.1849 O.3     1  UNL1       -0.3864
     42 C           7.1481    0.5438    0.5404 C.3     1  UNL1        0.1095
     43 O           8.3147    0.4347    1.2848 O.3     1  UNL1       -0.3866
     44 H           7.0572   -1.9983   -0.3632 H       1  UNL1        0.0255
     45 H           5.9635   -2.6554    0.9520 H       1  UNL1        0.0255
     46 H           7.6254   -2.1011    1.4050 H       1  UNL1        0.0255
     47 H           5.8779   -0.3536    1.9598 H       1  UNL1        0.0621
     48 H           4.2162    1.0292   -0.9890 H       1  UNL1        0.0937
     49 H           2.0167    1.6371   -0.5162 H       1  UNL1        0.0587
     50 H           2.2752    0.1009   -1.3515 H       1  UNL1        0.0587
     51 H           0.5793    0.8554    1.0594 H       1  UNL1        0.0647
     52 H          -1.4435   -0.9259    0.0974 H       1  UNL1        0.1084
     53 H          -6.5275    2.5716    1.2682 H       1  UNL1        0.0691
     54 H          -7.1363    5.2851    0.9571 H       1  UNL1        0.2921
     55 H          -3.9734    5.8262    0.1571 H       1  UNL1        0.0691
     56 H          -2.2449    4.4164   -2.1219 H       1  UNL1        0.2922
     57 H          -6.2862   -1.0089    0.8150 H       1  UNL1        0.0662
     58 H          -8.2034   -2.5586    1.3495 H       1  UNL1        0.2923
     59 H          -6.2676   -5.9790   -0.5669 H       1  UNL1        0.2923
     60 H          -4.0188   -4.7247   -1.2034 H       1  UNL1        0.0655
     61 H          -3.2618   -2.4736   -1.4603 H       1  UNL1        0.0626
     62 H           0.5805   -1.3969   -2.1226 H       1  UNL1        0.0683
     63 H          -0.6541   -3.7743   -1.6067 H       1  UNL1        0.2102
     64 H           0.0631   -3.1947    0.2026 H       1  UNL1        0.0648
     65 H           2.1026   -2.3107   -1.4843 H       1  UNL1        0.2100
     66 H           1.8736   -1.3609    1.2422 H       1  UNL1        0.0647
     67 H           0.1607   -0.6835    2.4997 H       1  UNL1        0.2100
     68 H           4.7133    1.6567    1.9567 H       1  UNL1        0.0671
     69 H           5.0980    3.6841    0.2799 H       1  UNL1        0.2101
     70 H           6.8584    2.2643    1.7600 H       1  UNL1        0.0648
     71 H           7.4013    2.3001   -0.8997 H       1  UNL1        0.2100
     72 H           7.3381    0.4365   -0.5462 H       1  UNL1        0.0646
     73 H           9.0493    0.1322    0.7034 H       1  UNL1        0.2100
@<TRIPOS>BOND
     1     1     2    1
     2     2     3    1
     3     3     4    1
     4     4     5    1
     5     5     6    1
     6     6     7    1
     7     7     8    1
     8     8     9    1
     9     9    10    1
    10    10    11    1
    11    11    12   ar
    12    12    13   ar
    13    13    14   ar
    14    14    15   ar
    15    15    16   ar
    16    16    17    1
    17    16    18   ar
    18    18    19   ar
    19    19    20    1
    20    19    21   ar
    21    21    22   ar
    22    22    23    2
    23    12    24    1
    24    24    25   ar
    25    25    26   ar
    26    26    27    1
    27    26    28   ar
    28    28    29    1
    29    28    30   ar
    30    30    31   ar
    31     9    32    1
    32    32    33    1
    33    32    34    1
    34    34    35    1
    35    34    36    1
    36    36    37    1
    37     4    38    1
    38    38    39    1
    39    38    40    1
    40    40    41    1
    41    40    42    1
    42    42    43    1
    43    42     2    1
    44    36     7    1
    45    22    11   ar
    46    31    24   ar
    47    21    14   ar
    48     1    44    1
    49     1    45    1
    50     1    46    1
    51     2    47    1
    52     4    48    1
    53     6    49    1
    54     6    50    1
    55     7    51    1
    56     9    52    1
    57    15    53    1
    58    17    54    1
    59    18    55    1
    60    20    56    1
    61    25    57    1
    62    27    58    1
    63    29    59    1
    64    30    60    1
    65    31    61    1
    66    32    62    1
    67    33    63    1
    68    34    64    1
    69    35    65    1
    70    36    66    1
    71    37    67    1
    72    38    68    1
    73    39    69    1
    74    40    70    1
    75    41    71    1
    76    42    72    1
    77    43    73    1
