
     RDKit          3D

 45 48  0  0  0  0  0  0  0  0999 V2000
    2.4278    1.9965   -4.2029 C   0  0  0  0  0  0  0  0  0  0  0  0
    2.1640    1.3494   -2.9984 O   0  0  0  0  0  0  0  0  0  0  0  0
    0.9099    1.2673   -2.4163 C   0  0  0  0  0  0  0  0  0  0  0  0
   -0.1779    1.8523   -3.0384 C   0  0  0  0  0  0  0  0  0  0  0  0
   -1.4008    1.7900   -2.5013 N   0  0  0  0  0  0  0  0  0  0  0  0
   -1.6588    1.1669   -1.3402 C   0  0  0  0  0  0  0  0  0  0  0  0
   -3.0312    1.1221   -0.7806 C   0  0  0  0  0  0  0  0  0  0  0  0
   -3.0717    0.4174    0.4438 O   0  0  0  0  0  0  0  0  0  0  0  0
   -4.2023    0.2187    1.1830 C   0  0  0  0  0  0  0  0  0  0  0  0
   -4.1188   -0.4843    2.3607 C   0  0  0  0  0  0  0  0  0  0  0  0
   -5.2485   -0.6980    3.1252 C   0  0  0  0  0  0  0  0  0  0  0  0
   -6.4766   -0.2331    2.7590 C   0  0  0  0  0  0  0  0  0  0  0  0
   -7.5871   -0.4517    3.5250 F   0  0  0  0  0  0  0  0  0  0  0  0
   -6.5822    0.4769    1.5768 C   0  0  0  0  0  0  0  0  0  0  0  0
   -7.8093    0.9478    1.1999 F   0  0  0  0  0  0  0  0  0  0  0  0
   -5.4514    0.6903    0.8125 C   0  0  0  0  0  0  0  0  0  0  0  0
   -0.5730    0.5795   -0.7132 C   0  0  0  0  0  0  0  0  0  0  0  0
    0.7084    0.6181   -1.2303 C   0  0  0  0  0  0  0  0  0  0  0  0
    1.8053   -0.0181   -0.5233 C   0  0  0  0  0  0  0  0  0  0  0  0
    1.6263   -0.6861    0.6872 C   0  0  0  0  0  0  0  0  0  0  0  0
    2.8340   -1.1676    1.0889 C   0  0  0  0  0  0  0  0  0  0  0  0
    3.7745   -0.8160    0.1550 C   0  0  0  0  0  0  0  0  0  0  0  0
    3.0962   -0.1242   -0.7951 N   0  0  0  0  0  0  0  0  0  0  0  0
    5.1772   -1.2058    0.3523 C   0  0  0  0  0  0  0  0  0  0  0  0
    5.2700   -2.4799    1.1515 C   0  0  0  0  0  0  0  0  0  0  0  0
    4.5620   -2.3095    2.3914 N   0  0  0  0  0  0  0  0  0  0  0  0
    3.1790   -1.9474    2.2827 C   0  0  0  0  0  0  0  0  0  0  0  0
    2.3270   -2.2644    3.1303 O   0  0  0  0  0  0  0  0  0  0  0  0
    2.5078    3.1088   -4.1097 H   0  0  0  0  0  0  0  0  0  0  0  0
    1.6402    1.8127   -4.9813 H   0  0  0  0  0  0  0  0  0  0  0  0
    3.3729    1.6385   -4.6640 H   0  0  0  0  0  0  0  0  0  0  0  0
   -0.0424    2.3686   -3.9728 H   0  0  0  0  0  0  0  0  0  0  0  0
   -3.7679    0.7776   -1.5123 H   0  0  0  0  0  0  0  0  0  0  0  0
   -3.3237    2.1827   -0.5283 H   0  0  0  0  0  0  0  0  0  0  0  0
   -3.1703   -0.8712    2.6915 H   0  0  0  0  0  0  0  0  0  0  0  0
   -5.1188   -1.2605    4.0455 H   0  0  0  0  0  0  0  0  0  0  0  0
   -5.5331    1.2427   -0.1072 H   0  0  0  0  0  0  0  0  0  0  0  0
   -0.8170    0.0774    0.2350 H   0  0  0  0  0  0  0  0  0  0  0  0
    0.7049   -0.8053    1.2164 H   0  0  0  0  0  0  0  0  0  0  0  0
    3.5798    0.2572   -1.6208 H   0  0  0  0  0  0  0  0  0  0  0  0
    5.7528   -1.2665   -0.5927 H   0  0  0  0  0  0  0  0  0  0  0  0
    5.6611   -0.4074    0.9874 H   0  0  0  0  0  0  0  0  0  0  0  0
    6.3360   -2.7541    1.3365 H   0  0  0  0  0  0  0  0  0  0  0  0
    4.7674   -3.2777    0.5454 H   0  0  0  0  0  0  0  0  0  0  0  0
    4.9784   -2.4310    3.3461 H   0  0  0  0  0  0  0  0  0  0  0  0
  1  2  1  0
  2  3  1  0
  3  4  2  0
  4  5  1  0
  5  6  2  0
  6  7  1  0
  7  8  1  0
  8  9  1  0
  9 10  2  0
 10 11  1  0
 11 12  2  0
 12 13  1  0
 12 14  1  0
 14 15  1  0
 14 16  2  0
  6 17  1  0
 17 18  2  0
 18 19  1  0
 19 20  2  0
 20 21  1  0
 21 22  2  0
 22 23  1  0
 22 24  1  0
 24 25  1  0
 25 26  1  0
 26 27  1  0
 27 28  2  0
 18  3  1  0
 23 19  1  0
 16  9  1  0
 27 21  1  0
  1 29  1  0
  1 30  1  0
  1 31  1  0
  4 32  1  0
  7 33  1  0
  7 34  1  0
 10 35  1  0
 11 36  1  0
 16 37  1  0
 17 38  1  0
 20 39  1  0
 23 40  1  0
 24 41  1  0
 24 42  1  0
 25 43  1  0
 25 44  1  0
 26 45  1  0
M  END
$$$$
