@<TRIPOS>MOLECULE
*****
 45 48 0 0 0
SMALL
GASTEIGER

@<TRIPOS>ATOM
      1 C           2.4278    1.9965   -4.2029 C.3     1  UNL1        0.0789
      2 O           2.1640    1.3494   -2.9984 O.3     1  UNL1       -0.4929
      3 C           0.9099    1.2673   -2.4163 C.ar    1  UNL1        0.1472
      4 C          -0.1779    1.8523   -3.0384 C.ar    1  UNL1        0.0703
      5 N          -1.4008    1.7900   -2.5013 N.ar    1  UNL1       -0.2528
      6 C          -1.6588    1.1669   -1.3402 C.ar    1  UNL1        0.0793
      7 C          -3.0312    1.1221   -0.7806 C.3     1  UNL1        0.1313
      8 O          -3.0717    0.4174    0.4438 O.3     1  UNL1       -0.4858
      9 C          -4.2023    0.2187    1.1830 C.ar    1  UNL1        0.1240
     10 C          -4.1188   -0.4843    2.3607 C.ar    1  UNL1       -0.0170
     11 C          -5.2485   -0.6980    3.1252 C.ar    1  UNL1       -0.0201
     12 C          -6.4766   -0.2331    2.7590 C.ar    1  UNL1        0.1586
     13 F          -7.5871   -0.4517    3.5250 F       1  UNL1       -0.2025
     14 C          -6.5822    0.4769    1.5768 C.ar    1  UNL1        0.1619
     15 F          -7.8093    0.9478    1.1999 F       1  UNL1       -0.2024
     16 C          -5.4514    0.6903    0.8125 C.ar    1  UNL1        0.0182
     17 C          -0.5730    0.5795   -0.7132 C.ar    1  UNL1       -0.0244
     18 C           0.7084    0.6181   -1.2303 C.ar    1  UNL1        0.0433
     19 C           1.8053   -0.0181   -0.5233 C.ar    1  UNL1        0.0510
     20 C           1.6263   -0.6861    0.6872 C.ar    1  UNL1       -0.0239
     21 C           2.8340   -1.1676    1.0889 C.ar    1  UNL1        0.0578
     22 C           3.7745   -0.8160    0.1550 C.ar    1  UNL1        0.0301
     23 N           3.0962   -0.1242   -0.7951 N.ar    1  UNL1       -0.3572
     24 C           5.1772   -1.2058    0.3523 C.3     1  UNL1        0.0038
     25 C           5.2700   -2.4799    1.1515 C.3     1  UNL1        0.0172
     26 N           4.5620   -2.3095    2.3914 N.am    1  UNL1       -0.3109
     27 C           3.1790   -1.9474    2.2827 C.2     1  UNL1        0.2458
     28 O           2.3270   -2.2644    3.1303 O.2     1  UNL1       -0.2701
     29 H           2.5078    3.1088   -4.1097 H       1  UNL1        0.0660
     30 H           1.6402    1.8127   -4.9813 H       1  UNL1        0.0660
     31 H           3.3729    1.6385   -4.6640 H       1  UNL1        0.0660
     32 H          -0.0424    2.3686   -3.9728 H       1  UNL1        0.0867
     33 H          -3.7679    0.7776   -1.5123 H       1  UNL1        0.0763
     34 H          -3.3237    2.1827   -0.5283 H       1  UNL1        0.0763
     35 H          -3.1703   -0.8712    2.6915 H       1  UNL1        0.0655
     36 H          -5.1188   -1.2605    4.0455 H       1  UNL1        0.0648
     37 H          -5.5331    1.2427   -0.1072 H       1  UNL1        0.0684
     38 H          -0.8170    0.0774    0.2350 H       1  UNL1        0.0644
     39 H           0.7049   -0.8053    1.2164 H       1  UNL1        0.0646
     40 H           3.5798    0.2572   -1.6208 H       1  UNL1        0.1656
     41 H           5.7528   -1.2665   -0.5927 H       1  UNL1        0.0343
     42 H           5.6611   -0.4074    0.9874 H       1  UNL1        0.0343
     43 H           6.3360   -2.7541    1.3365 H       1  UNL1        0.0466
     44 H           4.7674   -3.2777    0.5454 H       1  UNL1        0.0466
     45 H           4.9784   -2.4310    3.3461 H       1  UNL1        0.1490
@<TRIPOS>BOND
     1     1     2    1
     2     2     3    1
     3     3     4   ar
     4     4     5   ar
     5     5     6   ar
     6     6     7    1
     7     7     8    1
     8     8     9    1
     9     9    10   ar
    10    10    11   ar
    11    11    12   ar
    12    12    13    1
    13    12    14   ar
    14    14    15    1
    15    14    16   ar
    16     6    17   ar
    17    17    18   ar
    18    18    19    1
    19    19    20   ar
    20    20    21   ar
    21    21    22   ar
    22    22    23   ar
    23    22    24    1
    24    24    25    1
    25    25    26    1
    26    26    27   am
    27    27    28    2
    28    18     3   ar
    29    23    19   ar
    30    16     9   ar
    31    27    21    1
    32     1    29    1
    33     1    30    1
    34     1    31    1
    35     4    32    1
    36     7    33    1
    37     7    34    1
    38    10    35    1
    39    11    36    1
    40    16    37    1
    41    17    38    1
    42    20    39    1
    43    23    40    1
    44    24    41    1
    45    24    42    1
    46    25    43    1
    47    25    44    1
    48    26    45    1
