@<TRIPOS>MOLECULE
*****
 64 68 0 0 0
SMALL
GASTEIGER

@<TRIPOS>ATOM
      1 C           8.4556    0.9022   -2.2943 C.3     1  UNL1       -0.0126
      2 N           7.9985    0.2502   -1.1123 N.3     1  UNL1       -0.3024
      3 C           7.4916    1.1003   -0.0928 C.3     1  UNL1        0.0144
      4 C           6.6154    0.3716    0.9037 C.3     1  UNL1        0.0250
      5 N           5.5536   -0.2599    0.1278 N.pl3   1  UNL1       -0.3275
      6 C           4.1731   -0.0168    0.3206 C.ar    1  UNL1        0.0299
      7 C           3.2813   -0.9616   -0.1237 C.ar    1  UNL1       -0.0389
      8 C           1.9253   -0.7219    0.0569 C.ar    1  UNL1       -0.0387
      9 C           1.4170    0.3920    0.6465 C.ar    1  UNL1        0.0337
     10 N           0.0526    0.6267    0.8562 N.pl3   1  UNL1       -0.2825
     11 C          -0.9133   -0.3982    0.9694 C.ar    1  UNL1        0.2376
     12 N          -0.5856   -1.7007    1.0145 N.ar    1  UNL1       -0.2194
     13 C          -1.5324   -2.6374    1.1325 C.ar    1  UNL1        0.0566
     14 C          -2.8474   -2.2928    1.2095 C.ar    1  UNL1        0.0843
     15 C          -3.9832   -3.0622    1.3556 C.ar    1  UNL1       -0.0327
     16 C          -5.0265   -2.1647    1.3944 C.ar    1  UNL1       -0.0336
     17 C          -4.5342   -0.8814    1.2735 C.ar    1  UNL1        0.0752
     18 C          -5.3620    0.2997    1.3306 C.ar    1  UNL1        0.0230
     19 C          -6.1701    0.4902    2.4838 C.ar    1  UNL1       -0.0507
     20 C          -6.9981    1.5585    2.5707 C.ar    1  UNL1       -0.0610
     21 C          -7.0765    2.4815    1.5495 C.ar    1  UNL1       -0.0599
     22 C          -6.2913    2.2810    0.4471 C.ar    1  UNL1       -0.0385
     23 C          -5.4130    1.1849    0.3058 C.ar    1  UNL1        0.0597
     24 N          -4.7158    1.1012   -0.8987 N.pl3   1  UNL1       -0.2100
     25 C          -3.4299    1.6935   -1.1594 C.3     1  UNL1        0.0232
     26 S          -5.4413    0.2777   -2.2374 S.O2    1  UNL1        0.0424
     27 C          -5.7118   -1.4048   -1.7910 C.3     1  UNL1        0.0738
     28 O          -6.7027    0.9617   -2.6782 O.2     1  UNL1       -0.1553
     29 O          -4.5297    0.2931   -3.4517 O.2     1  UNL1       -0.1553
     30 N          -3.2169   -0.9706    1.1641 N.ar    1  UNL1       -0.2274
     31 N          -2.2304   -0.1261    1.0487 N.ar    1  UNL1       -0.1295
     32 C           2.3456    1.3560    1.0980 C.ar    1  UNL1       -0.0387
     33 C           3.6893    1.1242    0.9230 C.ar    1  UNL1       -0.0389
     34 C           5.9781   -1.1719   -0.9024 C.3     1  UNL1        0.0250
     35 C           7.4178   -1.0315   -1.2604 C.3     1  UNL1        0.0144
     36 H           8.1651    1.9904   -2.2534 H       1  UNL1        0.0391
     37 H           9.5801    0.8789   -2.3643 H       1  UNL1        0.0391
     38 H           8.0585    0.4148   -3.1995 H       1  UNL1        0.0391
     39 H           6.8307    1.8646   -0.5943 H       1  UNL1        0.0442
     40 H           8.3000    1.6165    0.5064 H       1  UNL1        0.0442
     41 H           6.2037    1.0771    1.6173 H       1  UNL1        0.0476
     42 H           7.1891   -0.4453    1.4045 H       1  UNL1        0.0476
     43 H           3.6167   -1.8660   -0.5997 H       1  UNL1        0.0637
     44 H           1.2638   -1.4895   -0.3180 H       1  UNL1        0.0637
     45 H          -0.2797    1.6109    0.9342 H       1  UNL1        0.1551
     46 H          -1.2338   -3.6937    1.1680 H       1  UNL1        0.0852
     47 H          -4.0143   -4.1356    1.4216 H       1  UNL1        0.0640
     48 H          -6.0726   -2.4414    1.5047 H       1  UNL1        0.0640
     49 H          -6.0800   -0.2666    3.2779 H       1  UNL1        0.0625
     50 H          -7.6080    1.6703    3.4740 H       1  UNL1        0.0618
     51 H          -7.7485    3.3234    1.6510 H       1  UNL1        0.0618
     52 H          -6.3456    2.9973   -0.3606 H       1  UNL1        0.0637
     53 H          -2.7594    0.8985   -1.5739 H       1  UNL1        0.0446
     54 H          -3.4789    2.4499   -1.9778 H       1  UNL1        0.0446
     55 H          -2.9836    2.2081   -0.2967 H       1  UNL1        0.0446
     56 H          -6.4818   -1.4294   -0.9869 H       1  UNL1        0.0482
     57 H          -6.0378   -1.9793   -2.6854 H       1  UNL1        0.0482
     58 H          -4.7402   -1.8230   -1.4602 H       1  UNL1        0.0482
     59 H           1.9442    2.2347    1.5632 H       1  UNL1        0.0637
     60 H           4.3991    1.8877    1.2821 H       1  UNL1        0.0637
     61 H           5.3014   -1.1545   -1.7825 H       1  UNL1        0.0476
     62 H           5.8250   -2.2023   -0.4678 H       1  UNL1        0.0476
     63 H           8.0186   -1.8465   -0.7654 H       1  UNL1        0.0442
     64 H           7.4856   -1.2940   -2.3632 H       1  UNL1        0.0442
@<TRIPOS>BOND
     1     1     2    1
     2     2     3    1
     3     3     4    1
     4     4     5    1
     5     5     6    1
     6     6     7   ar
     7     7     8   ar
     8     8     9   ar
     9     9    10    1
    10    10    11    1
    11    11    12   ar
    12    12    13   ar
    13    13    14   ar
    14    14    15   ar
    15    15    16   ar
    16    16    17   ar
    17    17    18    1
    18    18    19   ar
    19    19    20   ar
    20    20    21   ar
    21    21    22   ar
    22    22    23   ar
    23    23    24    1
    24    24    25    1
    25    24    26    1
    26    26    27    1
    27    26    28    2
    28    26    29    2
    29    17    30   ar
    30    30    31   ar
    31     9    32   ar
    32    32    33   ar
    33     5    34    1
    34    34    35    1
    35    35     2    1
    36    33     6   ar
    37    31    11   ar
    38    30    14   ar
    39    23    18   ar
    40     1    36    1
    41     1    37    1
    42     1    38    1
    43     3    39    1
    44     3    40    1
    45     4    41    1
    46     4    42    1
    47     7    43    1
    48     8    44    1
    49    10    45    1
    50    13    46    1
    51    15    47    1
    52    16    48    1
    53    19    49    1
    54    20    50    1
    55    21    51    1
    56    22    52    1
    57    25    53    1
    58    25    54    1
    59    25    55    1
    60    27    56    1
    61    27    57    1
    62    27    58    1
    63    32    59    1
    64    33    60    1
    65    34    61    1
    66    34    62    1
    67    35    63    1
    68    35    64    1
