@<TRIPOS>MOLECULE
*****
 44 47 0 0 0
SMALL
GASTEIGER

@<TRIPOS>ATOM
      1 C           3.5674   -2.3593   -1.3034 C.3     1  UNL1       -0.0333
      2 C           3.4013   -0.8528   -1.4090 C.3     1  UNL1        0.0958
      3 O           4.5799   -0.2607   -1.8969 O.3     1  UNL1       -0.3859
      4 C           3.1633   -0.3323   -0.0354 C.ar    1  UNL1        0.0912
      5 C           4.0288   -0.2449    1.0230 C.ar    1  UNL1        0.0538
      6 N           3.3634    0.3040    2.0521 N.ar    1  UNL1       -0.2343
      7 C           2.0864    0.5761    1.6910 C.ar    1  UNL1        0.1545
      8 C           1.0434    1.1373    2.3955 C.ar    1  UNL1       -0.0153
      9 C          -0.1650    1.2885    1.7183 C.ar    1  UNL1       -0.0290
     10 C          -0.2759    0.8853    0.4071 C.ar    1  UNL1        0.1103
     11 C          -1.5340    1.0494   -0.2958 C.ar    1  UNL1        0.0968
     12 C          -2.4060    0.0186   -0.5462 C.ar    1  UNL1        0.0982
     13 C          -2.2241   -1.3575   -0.1296 C.ar    1  UNL1        0.0027
     14 C          -1.8809   -2.3832   -0.9818 C.ar    1  UNL1       -0.0498
     15 C          -1.7249   -3.6918   -0.5129 C.ar    1  UNL1       -0.0258
     16 C          -1.9111   -3.9879    0.8158 C.ar    1  UNL1        0.1234
     17 F          -1.7587   -5.2628    1.2769 F       1  UNL1       -0.2055
     18 C          -2.2539   -2.9697    1.6730 C.ar    1  UNL1       -0.0258
     19 C          -2.4023   -1.6909    1.1926 C.ar    1  UNL1       -0.0498
     20 N          -3.4187    0.5687   -1.2307 N.ar    1  UNL1       -0.2351
     21 C          -3.2342    1.8823   -1.4248 C.ar    1  UNL1        0.0973
     22 N          -2.0402    2.1728   -0.8289 N.ar    1  UNL1       -0.3229
     23 C          -1.4894    3.5021   -0.8259 C.3     1  UNL1        0.0852
     24 C          -1.9958    4.2487    0.3900 C.3     1  UNL1        0.2569
     25 F          -1.4709    5.5179    0.3965 F       1  UNL1       -0.2073
     26 F          -3.3776    4.3155    0.3509 F       1  UNL1       -0.2073
     27 N           0.8135    0.3431   -0.1951 N.ar    1  UNL1       -0.1631
     28 N           1.9748    0.1821    0.4095 N.ar    1  UNL1       -0.2142
     29 H           2.7401   -2.8586   -1.8076 H       1  UNL1        0.0258
     30 H           3.6161   -2.6906   -0.2537 H       1  UNL1        0.0258
     31 H           4.5565   -2.6360   -1.7756 H       1  UNL1        0.0258
     32 H           2.5625   -0.5923   -2.0791 H       1  UNL1        0.0656
     33 H           4.9218    0.4096   -1.2722 H       1  UNL1        0.2103
     34 H           5.0592   -0.5729    0.9929 H       1  UNL1        0.0849
     35 H           1.1252    1.4570    3.4320 H       1  UNL1        0.0655
     36 H          -0.9790    1.7279    2.2908 H       1  UNL1        0.0641
     37 H          -1.7278   -2.1828   -2.0295 H       1  UNL1        0.0625
     38 H          -1.4540   -4.4457   -1.2287 H       1  UNL1        0.0646
     39 H          -2.4037   -3.2026    2.7361 H       1  UNL1        0.0646
     40 H          -2.6786   -0.9282    1.9362 H       1  UNL1        0.0625
     41 H          -3.8739    2.5957   -1.9402 H       1  UNL1        0.1029
     42 H          -1.8203    4.0554   -1.7267 H       1  UNL1        0.0548
     43 H          -0.3772    3.4985   -0.8695 H       1  UNL1        0.0548
     44 H          -1.7253    3.7671    1.3482 H       1  UNL1        0.1037
@<TRIPOS>BOND
     1     1     2    1
     2     2     3    1
     3     2     4    1
     4     4     5   ar
     5     5     6   ar
     6     6     7   ar
     7     7     8   ar
     8     8     9   ar
     9     9    10   ar
    10    10    11    1
    11    11    12   ar
    12    12    13    1
    13    13    14   ar
    14    14    15   ar
    15    15    16   ar
    16    16    17    1
    17    16    18   ar
    18    18    19   ar
    19    12    20   ar
    20    20    21   ar
    21    21    22   ar
    22    22    23    1
    23    23    24    1
    24    24    25    1
    25    24    26    1
    26    10    27   ar
    27    27    28   ar
    28    28     4   ar
    29    28     7   ar
    30    22    11   ar
    31    19    13   ar
    32     1    29    1
    33     1    30    1
    34     1    31    1
    35     2    32    1
    36     3    33    1
    37     5    34    1
    38     8    35    1
    39     9    36    1
    40    14    37    1
    41    15    38    1
    42    18    39    1
    43    19    40    1
    44    21    41    1
    45    23    42    1
    46    23    43    1
    47    24    44    1
