
     RDKit          3D

 44 47  0  0  0  0  0  0  0  0999 V2000
    3.5674   -2.3593   -1.3034 C   0  0  0  0  0  0  0  0  0  0  0  0
    3.4013   -0.8528   -1.4090 C   0  0  0  0  0  0  0  0  0  0  0  0
    4.5799   -0.2607   -1.8969 O   0  0  0  0  0  0  0  0  0  0  0  0
    3.1633   -0.3323   -0.0354 C   0  0  0  0  0  0  0  0  0  0  0  0
    4.0288   -0.2449    1.0230 C   0  0  0  0  0  0  0  0  0  0  0  0
    3.3634    0.3040    2.0521 N   0  0  0  0  0  0  0  0  0  0  0  0
    2.0864    0.5761    1.6910 C   0  0  0  0  0  0  0  0  0  0  0  0
    1.0434    1.1373    2.3955 C   0  0  0  0  0  0  0  0  0  0  0  0
   -0.1650    1.2885    1.7183 C   0  0  0  0  0  0  0  0  0  0  0  0
   -0.2759    0.8853    0.4071 C   0  0  0  0  0  0  0  0  0  0  0  0
   -1.5340    1.0494   -0.2958 C   0  0  0  0  0  0  0  0  0  0  0  0
   -2.4060    0.0186   -0.5462 C   0  0  0  0  0  0  0  0  0  0  0  0
   -2.2241   -1.3575   -0.1296 C   0  0  0  0  0  0  0  0  0  0  0  0
   -1.8809   -2.3832   -0.9818 C   0  0  0  0  0  0  0  0  0  0  0  0
   -1.7249   -3.6918   -0.5129 C   0  0  0  0  0  0  0  0  0  0  0  0
   -1.9111   -3.9879    0.8158 C   0  0  0  0  0  0  0  0  0  0  0  0
   -1.7587   -5.2628    1.2769 F   0  0  0  0  0  0  0  0  0  0  0  0
   -2.2539   -2.9697    1.6730 C   0  0  0  0  0  0  0  0  0  0  0  0
   -2.4023   -1.6909    1.1926 C   0  0  0  0  0  0  0  0  0  0  0  0
   -3.4187    0.5687   -1.2307 N   0  0  0  0  0  0  0  0  0  0  0  0
   -3.2342    1.8823   -1.4248 C   0  0  0  0  0  0  0  0  0  0  0  0
   -2.0402    2.1728   -0.8289 N   0  0  0  0  0  0  0  0  0  0  0  0
   -1.4894    3.5021   -0.8259 C   0  0  0  0  0  0  0  0  0  0  0  0
   -1.9958    4.2487    0.3900 C   0  0  0  0  0  0  0  0  0  0  0  0
   -1.4709    5.5179    0.3965 F   0  0  0  0  0  0  0  0  0  0  0  0
   -3.3776    4.3155    0.3509 F   0  0  0  0  0  0  0  0  0  0  0  0
    0.8135    0.3431   -0.1951 N   0  0  0  0  0  0  0  0  0  0  0  0
    1.9748    0.1821    0.4095 N   0  0  0  0  0  0  0  0  0  0  0  0
    2.7401   -2.8586   -1.8076 H   0  0  0  0  0  0  0  0  0  0  0  0
    3.6161   -2.6906   -0.2537 H   0  0  0  0  0  0  0  0  0  0  0  0
    4.5565   -2.6360   -1.7756 H   0  0  0  0  0  0  0  0  0  0  0  0
    2.5625   -0.5923   -2.0791 H   0  0  0  0  0  0  0  0  0  0  0  0
    4.9218    0.4096   -1.2722 H   0  0  0  0  0  0  0  0  0  0  0  0
    5.0592   -0.5729    0.9929 H   0  0  0  0  0  0  0  0  0  0  0  0
    1.1252    1.4570    3.4320 H   0  0  0  0  0  0  0  0  0  0  0  0
   -0.9790    1.7279    2.2908 H   0  0  0  0  0  0  0  0  0  0  0  0
   -1.7278   -2.1828   -2.0295 H   0  0  0  0  0  0  0  0  0  0  0  0
   -1.4540   -4.4457   -1.2287 H   0  0  0  0  0  0  0  0  0  0  0  0
   -2.4037   -3.2026    2.7361 H   0  0  0  0  0  0  0  0  0  0  0  0
   -2.6786   -0.9282    1.9362 H   0  0  0  0  0  0  0  0  0  0  0  0
   -3.8739    2.5957   -1.9402 H   0  0  0  0  0  0  0  0  0  0  0  0
   -1.8203    4.0554   -1.7267 H   0  0  0  0  0  0  0  0  0  0  0  0
   -0.3772    3.4985   -0.8695 H   0  0  0  0  0  0  0  0  0  0  0  0
   -1.7253    3.7671    1.3482 H   0  0  0  0  0  0  0  0  0  0  0  0
  1  2  1  0
  2  3  1  0
  2  4  1  0
  4  5  2  0
  5  6  1  0
  6  7  2  0
  7  8  1  0
  8  9  2  0
  9 10  1  0
 10 11  1  0
 11 12  2  0
 12 13  1  0
 13 14  2  0
 14 15  1  0
 15 16  2  0
 16 17  1  0
 16 18  1  0
 18 19  2  0
 12 20  1  0
 20 21  2  0
 21 22  1  0
 22 23  1  0
 23 24  1  0
 24 25  1  0
 24 26  1  0
 10 27  2  0
 27 28  1  0
 28  4  1  0
 28  7  1  0
 22 11  1  0
 19 13  1  0
  1 29  1  0
  1 30  1  0
  1 31  1  0
  2 32  1  0
  3 33  1  0
  5 34  1  0
  8 35  1  0
  9 36  1  0
 14 37  1  0
 15 38  1  0
 18 39  1  0
 19 40  1  0
 21 41  1  0
 23 42  1  0
 23 43  1  0
 24 44  1  0
M  END
$$$$
