@<TRIPOS>MOLECULE
*****
 70 74 0 0 0
SMALL
GASTEIGER

@<TRIPOS>ATOM
      1 C           8.2725    2.4203    3.8866 C.3     1  UNL1        0.0003
      2 N           7.8099    1.1428    4.3607 N.pl3   1  UNL1       -0.3165
      3 C           6.8166    0.4305    3.6148 C.ar    1  UNL1        0.2155
      4 N           6.3412   -0.7556    4.0003 N.ar    1  UNL1       -0.2223
      5 C           5.4028   -1.4424    3.3093 C.ar    1  UNL1        0.0404
      6 C           4.9011   -0.8975    2.1392 C.ar    1  UNL1        0.0192
      7 C           3.9478   -1.5276    1.3796 C.ar    1  UNL1       -0.0434
      8 C           3.4550   -0.9755    0.2168 C.ar    1  UNL1       -0.0169
      9 C           2.4405   -1.6212   -0.6094 C.ar    1  UNL1       -0.0142
     10 C           1.3576   -0.8940   -1.1018 C.ar    1  UNL1       -0.0416
     11 C           0.3776   -1.4453   -1.8796 C.ar    1  UNL1        0.0376
     12 C          -0.7551   -0.6861   -2.3967 C.2     1  UNL1        0.2484
     13 O          -1.6298   -1.2456   -3.1421 O.2     1  UNL1       -0.2699
     14 N          -0.9568    0.6897   -2.1143 N.am    1  UNL1       -0.2785
     15 C          -2.0764    1.4045   -2.6399 C.ar    1  UNL1        0.0764
     16 C          -2.0184    2.0639   -3.8450 C.ar    1  UNL1       -0.0253
     17 C          -3.0886    2.7559   -4.3684 C.ar    1  UNL1        0.0568
     18 C          -3.0046    3.4616   -5.6731 C.3     1  UNL1        0.4175
     19 F          -4.1666    3.2987   -6.4101 F       1  UNL1       -0.1659
     20 F          -2.8468    4.8363   -5.4988 F       1  UNL1       -0.1659
     21 F          -1.9751    2.9345   -6.4249 F       1  UNL1       -0.1659
     22 C          -4.2430    2.7600   -3.6189 C.ar    1  UNL1       -0.0465
     23 C          -4.3449    2.1011   -2.3865 C.ar    1  UNL1       -0.0175
     24 C          -3.2604    1.4169   -1.8862 C.ar    1  UNL1        0.1420
     25 O          -3.2268    0.7332   -0.7000 O.3     1  UNL1       -0.4869
     26 C          -4.2731    0.6075    0.1851 C.3     1  UNL1        0.1026
     27 C          -3.9800    1.1981    1.5551 C.3     1  UNL1       -0.0029
     28 C          -4.4266    0.2627    2.6571 C.3     1  UNL1        0.0019
     29 N          -5.7208   -0.3024    2.4539 N.3     1  UNL1       -0.3051
     30 C          -5.9119   -1.3468    3.4562 C.3     1  UNL1       -0.0128
     31 C          -5.9949   -0.8038    1.1472 C.3     1  UNL1        0.0019
     32 C          -4.7143   -0.8563    0.3467 C.3     1  UNL1       -0.0029
     33 C           0.4581   -2.7839   -2.1957 C.ar    1  UNL1       -0.0493
     34 C           1.5059   -3.5342   -1.7322 C.ar    1  UNL1       -0.0575
     35 C           2.5005   -2.9527   -0.9368 C.ar    1  UNL1       -0.0427
     36 C           3.6029   -3.8212   -0.4756 C.3     1  UNL1       -0.0391
     37 C           3.9816    0.2553   -0.1381 C.ar    1  UNL1       -0.0520
     38 C           4.9342    0.9133    0.5967 C.ar    1  UNL1       -0.0350
     39 C           5.3943    0.3234    1.7477 C.ar    1  UNL1        0.0761
     40 N           6.3228    0.9506    2.4774 N.ar    1  UNL1       -0.2145
     41 H           9.3751    2.4922    4.0223 H       1  UNL1        0.0426
     42 H           8.0000    2.5216    2.7947 H       1  UNL1        0.0426
     43 H           7.8027    3.2791    4.4108 H       1  UNL1        0.0426
     44 H           8.1870    0.7330    5.2340 H       1  UNL1        0.1486
     45 H           5.0238   -2.3906    3.6181 H       1  UNL1        0.0837
     46 H           3.5844   -2.4830    1.7200 H       1  UNL1        0.0631
     47 H           1.3314    0.1439   -0.8340 H       1  UNL1        0.0631
     48 H          -0.2633    1.1710   -1.5091 H       1  UNL1        0.1552
     49 H          -1.0994    2.0451   -4.4135 H       1  UNL1        0.0643
     50 H          -5.1052    3.2831   -3.9795 H       1  UNL1        0.0624
     51 H          -5.2795    2.1351   -1.8325 H       1  UNL1        0.0655
     52 H          -5.1701    1.1294   -0.1801 H       1  UNL1        0.0733
     53 H          -4.4529    2.1855    1.7109 H       1  UNL1        0.0313
     54 H          -2.8904    1.3301    1.6670 H       1  UNL1        0.0313
     55 H          -3.6500   -0.5322    2.8178 H       1  UNL1        0.0428
     56 H          -4.4532    0.8527    3.5995 H       1  UNL1        0.0428
     57 H          -5.3711   -2.2741    3.1888 H       1  UNL1        0.0391
     58 H          -6.9930   -1.4870    3.5779 H       1  UNL1        0.0391
     59 H          -5.5161   -0.9428    4.4156 H       1  UNL1        0.0391
     60 H          -6.7296   -0.1147    0.6475 H       1  UNL1        0.0428
     61 H          -6.4576   -1.8098    1.2404 H       1  UNL1        0.0428
     62 H          -4.9391   -1.3098   -0.6208 H       1  UNL1        0.0313
     63 H          -3.9614   -1.4348    0.9194 H       1  UNL1        0.0313
     64 H          -0.3118   -3.2214   -2.8081 H       1  UNL1        0.0625
     65 H           1.5783   -4.6003   -1.9781 H       1  UNL1        0.0621
     66 H           4.5497   -3.3083   -0.3079 H       1  UNL1        0.0278
     67 H           3.8203   -4.5943   -1.2731 H       1  UNL1        0.0278
     68 H           3.2591   -4.4471    0.3921 H       1  UNL1        0.0278
     69 H           3.6215    0.7214   -1.0431 H       1  UNL1        0.0624
     70 H           5.3024    1.8583    0.2747 H       1  UNL1        0.0639
@<TRIPOS>BOND
     1     1     2    1
     2     2     3    1
     3     3     4   ar
     4     4     5   ar
     5     5     6   ar
     6     6     7   ar
     7     7     8   ar
     8     8     9    1
     9     9    10   ar
    10    10    11   ar
    11    11    12    1
    12    12    13    2
    13    12    14   am
    14    14    15    1
    15    15    16   ar
    16    16    17   ar
    17    17    18    1
    18    18    19    1
    19    18    20    1
    20    18    21    1
    21    17    22   ar
    22    22    23   ar
    23    23    24   ar
    24    24    25    1
    25    25    26    1
    26    26    27    1
    27    27    28    1
    28    28    29    1
    29    29    30    1
    30    29    31    1
    31    31    32    1
    32    11    33   ar
    33    33    34   ar
    34    34    35   ar
    35    35    36    1
    36     8    37   ar
    37    37    38   ar
    38    38    39   ar
    39    39    40   ar
    40    40     3   ar
    41    39     6   ar
    42    35     9   ar
    43    24    15   ar
    44    32    26    1
    45     1    41    1
    46     1    42    1
    47     1    43    1
    48     2    44    1
    49     5    45    1
    50     7    46    1
    51    10    47    1
    52    14    48    1
    53    16    49    1
    54    22    50    1
    55    23    51    1
    56    26    52    1
    57    27    53    1
    58    27    54    1
    59    28    55    1
    60    28    56    1
    61    30    57    1
    62    30    58    1
    63    30    59    1
    64    31    60    1
    65    31    61    1
    66    32    62    1
    67    32    63    1
    68    33    64    1
    69    34    65    1
    70    36    66    1
    71    36    67    1
    72    36    68    1
    73    37    69    1
    74    38    70    1
