@<TRIPOS>MOLECULE
*****
 69 74 0 0 0
SMALL
GASTEIGER

@<TRIPOS>ATOM
      1 O          -4.2909    0.0159    0.0938 O.2     1  UNL1       -0.2444
      2 C          -3.1958   -0.4403   -0.3410 C.ar    1  UNL1        0.3515
      3 N          -2.9819   -1.7180   -0.6913 N.ar    1  UNL1       -0.2120
      4 C          -3.9017   -2.8374   -0.6440 C.3     1  UNL1        0.0497
      5 C          -3.7409   -3.5529    0.6517 C.3     1  UNL1       -0.0171
      6 C          -4.0260   -2.6107    1.7909 C.3     1  UNL1       -0.0249
      7 C          -3.8666   -3.4013    3.0880 C.3     1  UNL1        0.0480
      8 O          -4.6686   -4.5079    3.1179 O.3     1  UNL1       -0.3797
      9 C          -4.4034   -5.4075    2.0876 C.3     1  UNL1        0.0480
     10 C          -4.7084   -4.7228    0.7747 C.3     1  UNL1       -0.0249
     11 N          -1.6979   -1.7608   -1.0941 N.ar    1  UNL1       -0.1481
     12 C          -1.1438   -0.5602   -0.9956 C.ar    1  UNL1        0.1695
     13 C           0.2170   -0.1708   -1.3251 C.ar    1  UNL1        0.0243
     14 C           0.4987    0.2176   -2.6410 C.ar    1  UNL1       -0.0327
     15 C           1.7657    0.5901   -2.9879 C.ar    1  UNL1        0.0304
     16 N           2.7034    0.5710   -2.0501 N.ar    1  UNL1       -0.2405
     17 C           2.5190    0.2137   -0.7713 C.ar    1  UNL1        0.1195
     18 N           3.5891    0.2232    0.1724 N.pl3   1  UNL1       -0.3262
     19 C           4.8934    0.6143   -0.2610 C.3     1  UNL1        0.0220
     20 C           5.4353   -0.3184   -1.2900 C.3     1  UNL1       -0.0345
     21 C           6.3309   -1.4057   -0.7421 C.3     1  UNL1       -0.0514
     22 C           7.3623   -0.8451    0.1785 C.3     1  UNL1       -0.0529
     23 C           6.6373   -0.2303    1.3553 C.3     1  UNL1       -0.0514
     24 C           5.8302    0.9264    0.8722 C.3     1  UNL1       -0.0345
     25 C           1.2355   -0.1685   -0.3998 C.ar    1  UNL1       -0.0112
     26 N          -2.0750    0.2762   -0.5238 N.ar    1  UNL1       -0.2435
     27 C          -1.8923    1.6856   -0.2647 C.ar    1  UNL1        0.0535
     28 C          -1.0702    2.1347    0.7336 C.ar    1  UNL1       -0.0370
     29 C          -0.9276    3.4976    0.9434 C.ar    1  UNL1       -0.0521
     30 C          -1.5867    4.4391    0.1800 C.ar    1  UNL1       -0.0178
     31 C          -1.4618    5.7826    0.3679 C.ar    1  UNL1       -0.0540
     32 C          -2.1395    6.6770   -0.4190 C.ar    1  UNL1       -0.0612
     33 C          -2.9699    6.2467   -1.4267 C.ar    1  UNL1       -0.0612
     34 C          -3.1078    4.8925   -1.6305 C.ar    1  UNL1       -0.0540
     35 C          -2.4244    3.9852   -0.8371 C.ar    1  UNL1       -0.0159
     36 C          -2.5564    2.6159   -1.0342 C.ar    1  UNL1       -0.0299
     37 H          -4.9288   -2.4227   -0.6967 H       1  UNL1        0.0513
     38 H          -3.6650   -3.4832   -1.5157 H       1  UNL1        0.0513
     39 H          -2.7011   -3.9457    0.7785 H       1  UNL1        0.0320
     40 H          -3.2921   -1.7700    1.8262 H       1  UNL1        0.0291
     41 H          -5.0770   -2.2745    1.6993 H       1  UNL1        0.0291
     42 H          -4.1497   -2.7294    3.9042 H       1  UNL1        0.0560
     43 H          -2.7873   -3.6515    3.1873 H       1  UNL1        0.0560
     44 H          -3.3463   -5.7269    2.0565 H       1  UNL1        0.0560
     45 H          -5.0371   -6.2849    2.2510 H       1  UNL1        0.0560
     46 H          -5.7260   -4.2875    0.8425 H       1  UNL1        0.0291
     47 H          -4.6310   -5.4086   -0.0849 H       1  UNL1        0.0291
     48 H          -0.3080    0.2079   -3.3419 H       1  UNL1        0.0640
     49 H           1.9897    0.8930   -4.0103 H       1  UNL1        0.0830
     50 H           3.4290   -0.0456    1.1465 H       1  UNL1        0.1477
     51 H           4.7484    1.6041   -0.7982 H       1  UNL1        0.0498
     52 H           4.5969   -0.8049   -1.8219 H       1  UNL1        0.0283
     53 H           6.0107    0.2319   -2.0760 H       1  UNL1        0.0283
     54 H           5.7715   -2.2590   -0.3231 H       1  UNL1        0.0266
     55 H           6.8810   -1.8247   -1.6348 H       1  UNL1        0.0266
     56 H           8.0609   -1.6304    0.4998 H       1  UNL1        0.0265
     57 H           7.8922   -0.0347   -0.3446 H       1  UNL1        0.0265
     58 H           7.4197    0.1650    2.0353 H       1  UNL1        0.0266
     59 H           5.9980   -0.9530    1.8839 H       1  UNL1        0.0266
     60 H           6.5527    1.7137    0.5364 H       1  UNL1        0.0283
     61 H           5.2223    1.3741    1.6925 H       1  UNL1        0.0283
     62 H           1.0484   -0.4600    0.6104 H       1  UNL1        0.0659
     63 H          -0.5507    1.4043    1.3356 H       1  UNL1        0.0638
     64 H          -0.2716    3.8442    1.7396 H       1  UNL1        0.0624
     65 H          -0.8091    6.1264    1.1602 H       1  UNL1        0.0624
     66 H          -2.0363    7.7415   -0.2651 H       1  UNL1        0.0618
     67 H          -3.5170    6.9526   -2.0625 H       1  UNL1        0.0618
     68 H          -3.7519    4.5215   -2.4131 H       1  UNL1        0.0624
     69 H          -3.2155    2.2701   -1.8341 H       1  UNL1        0.0644
@<TRIPOS>BOND
     1     1     2    2
     2     2     3   ar
     3     3     4    1
     4     4     5    1
     5     5     6    1
     6     6     7    1
     7     7     8    1
     8     8     9    1
     9     9    10    1
    10     3    11   ar
    11    11    12   ar
    12    12    13    1
    13    13    14   ar
    14    14    15   ar
    15    15    16   ar
    16    16    17   ar
    17    17    18    1
    18    18    19    1
    19    19    20    1
    20    20    21    1
    21    21    22    1
    22    22    23    1
    23    23    24    1
    24    17    25   ar
    25    12    26   ar
    26    26    27    1
    27    27    28   ar
    28    28    29   ar
    29    29    30   ar
    30    30    31   ar
    31    31    32   ar
    32    32    33   ar
    33    33    34   ar
    34    34    35   ar
    35    35    36   ar
    36    26     2   ar
    37    36    27   ar
    38    10     5    1
    39    25    13   ar
    40    35    30   ar
    41    24    19    1
    42     4    37    1
    43     4    38    1
    44     5    39    1
    45     6    40    1
    46     6    41    1
    47     7    42    1
    48     7    43    1
    49     9    44    1
    50     9    45    1
    51    10    46    1
    52    10    47    1
    53    14    48    1
    54    15    49    1
    55    18    50    1
    56    19    51    1
    57    20    52    1
    58    20    53    1
    59    21    54    1
    60    21    55    1
    61    22    56    1
    62    22    57    1
    63    23    58    1
    64    23    59    1
    65    24    60    1
    66    24    61    1
    67    25    62    1
    68    28    63    1
    69    29    64    1
    70    31    65    1
    71    32    66    1
    72    33    67    1
    73    34    68    1
    74    36    69    1
