
     RDKit          3D

 69 74  0  0  0  0  0  0  0  0999 V2000
   -4.2909    0.0159    0.0938 O   0  0  0  0  0  0  0  0  0  0  0  0
   -3.1958   -0.4403   -0.3410 C   0  0  0  0  0  0  0  0  0  0  0  0
   -2.9819   -1.7180   -0.6913 N   0  0  0  0  0  0  0  0  0  0  0  0
   -3.9017   -2.8374   -0.6440 C   0  0  0  0  0  0  0  0  0  0  0  0
   -3.7409   -3.5529    0.6517 C   0  0  0  0  0  0  0  0  0  0  0  0
   -4.0260   -2.6107    1.7909 C   0  0  0  0  0  0  0  0  0  0  0  0
   -3.8666   -3.4013    3.0880 C   0  0  0  0  0  0  0  0  0  0  0  0
   -4.6686   -4.5079    3.1179 O   0  0  0  0  0  0  0  0  0  0  0  0
   -4.4034   -5.4075    2.0876 C   0  0  0  0  0  0  0  0  0  0  0  0
   -4.7084   -4.7228    0.7747 C   0  0  0  0  0  0  0  0  0  0  0  0
   -1.6979   -1.7608   -1.0941 N   0  0  0  0  0  0  0  0  0  0  0  0
   -1.1438   -0.5602   -0.9956 C   0  0  0  0  0  0  0  0  0  0  0  0
    0.2170   -0.1708   -1.3251 C   0  0  0  0  0  0  0  0  0  0  0  0
    0.4987    0.2176   -2.6410 C   0  0  0  0  0  0  0  0  0  0  0  0
    1.7657    0.5901   -2.9879 C   0  0  0  0  0  0  0  0  0  0  0  0
    2.7034    0.5710   -2.0501 N   0  0  0  0  0  0  0  0  0  0  0  0
    2.5190    0.2137   -0.7713 C   0  0  0  0  0  0  0  0  0  0  0  0
    3.5891    0.2232    0.1724 N   0  0  0  0  0  0  0  0  0  0  0  0
    4.8934    0.6143   -0.2610 C   0  0  0  0  0  0  0  0  0  0  0  0
    5.4353   -0.3184   -1.2900 C   0  0  0  0  0  0  0  0  0  0  0  0
    6.3309   -1.4057   -0.7421 C   0  0  0  0  0  0  0  0  0  0  0  0
    7.3623   -0.8451    0.1785 C   0  0  0  0  0  0  0  0  0  0  0  0
    6.6373   -0.2303    1.3553 C   0  0  0  0  0  0  0  0  0  0  0  0
    5.8302    0.9264    0.8722 C   0  0  0  0  0  0  0  0  0  0  0  0
    1.2355   -0.1685   -0.3998 C   0  0  0  0  0  0  0  0  0  0  0  0
   -2.0750    0.2762   -0.5238 N   0  0  0  0  0  0  0  0  0  0  0  0
   -1.8923    1.6856   -0.2647 C   0  0  0  0  0  0  0  0  0  0  0  0
   -1.0702    2.1347    0.7336 C   0  0  0  0  0  0  0  0  0  0  0  0
   -0.9276    3.4976    0.9434 C   0  0  0  0  0  0  0  0  0  0  0  0
   -1.5867    4.4391    0.1800 C   0  0  0  0  0  0  0  0  0  0  0  0
   -1.4618    5.7826    0.3679 C   0  0  0  0  0  0  0  0  0  0  0  0
   -2.1395    6.6770   -0.4190 C   0  0  0  0  0  0  0  0  0  0  0  0
   -2.9699    6.2467   -1.4267 C   0  0  0  0  0  0  0  0  0  0  0  0
   -3.1078    4.8925   -1.6305 C   0  0  0  0  0  0  0  0  0  0  0  0
   -2.4244    3.9852   -0.8371 C   0  0  0  0  0  0  0  0  0  0  0  0
   -2.5564    2.6159   -1.0342 C   0  0  0  0  0  0  0  0  0  0  0  0
   -4.9288   -2.4227   -0.6967 H   0  0  0  0  0  0  0  0  0  0  0  0
   -3.6650   -3.4832   -1.5157 H   0  0  0  0  0  0  0  0  0  0  0  0
   -2.7011   -3.9457    0.7785 H   0  0  0  0  0  0  0  0  0  0  0  0
   -3.2921   -1.7700    1.8262 H   0  0  0  0  0  0  0  0  0  0  0  0
   -5.0770   -2.2745    1.6993 H   0  0  0  0  0  0  0  0  0  0  0  0
   -4.1497   -2.7294    3.9042 H   0  0  0  0  0  0  0  0  0  0  0  0
   -2.7873   -3.6515    3.1873 H   0  0  0  0  0  0  0  0  0  0  0  0
   -3.3463   -5.7269    2.0565 H   0  0  0  0  0  0  0  0  0  0  0  0
   -5.0371   -6.2849    2.2510 H   0  0  0  0  0  0  0  0  0  0  0  0
   -5.7260   -4.2875    0.8425 H   0  0  0  0  0  0  0  0  0  0  0  0
   -4.6310   -5.4086   -0.0849 H   0  0  0  0  0  0  0  0  0  0  0  0
   -0.3080    0.2079   -3.3419 H   0  0  0  0  0  0  0  0  0  0  0  0
    1.9897    0.8930   -4.0103 H   0  0  0  0  0  0  0  0  0  0  0  0
    3.4290   -0.0456    1.1465 H   0  0  0  0  0  0  0  0  0  0  0  0
    4.7484    1.6041   -0.7982 H   0  0  0  0  0  0  0  0  0  0  0  0
    4.5969   -0.8049   -1.8219 H   0  0  0  0  0  0  0  0  0  0  0  0
    6.0107    0.2319   -2.0760 H   0  0  0  0  0  0  0  0  0  0  0  0
    5.7715   -2.2590   -0.3231 H   0  0  0  0  0  0  0  0  0  0  0  0
    6.8810   -1.8247   -1.6348 H   0  0  0  0  0  0  0  0  0  0  0  0
    8.0609   -1.6304    0.4998 H   0  0  0  0  0  0  0  0  0  0  0  0
    7.8922   -0.0347   -0.3446 H   0  0  0  0  0  0  0  0  0  0  0  0
    7.4197    0.1650    2.0353 H   0  0  0  0  0  0  0  0  0  0  0  0
    5.9980   -0.9530    1.8839 H   0  0  0  0  0  0  0  0  0  0  0  0
    6.5527    1.7137    0.5364 H   0  0  0  0  0  0  0  0  0  0  0  0
    5.2223    1.3741    1.6925 H   0  0  0  0  0  0  0  0  0  0  0  0
    1.0484   -0.4600    0.6104 H   0  0  0  0  0  0  0  0  0  0  0  0
   -0.5507    1.4043    1.3356 H   0  0  0  0  0  0  0  0  0  0  0  0
   -0.2716    3.8442    1.7396 H   0  0  0  0  0  0  0  0  0  0  0  0
   -0.8091    6.1264    1.1602 H   0  0  0  0  0  0  0  0  0  0  0  0
   -2.0363    7.7415   -0.2651 H   0  0  0  0  0  0  0  0  0  0  0  0
   -3.5170    6.9526   -2.0625 H   0  0  0  0  0  0  0  0  0  0  0  0
   -3.7519    4.5215   -2.4131 H   0  0  0  0  0  0  0  0  0  0  0  0
   -3.2155    2.2701   -1.8341 H   0  0  0  0  0  0  0  0  0  0  0  0
  1  2  2  0
  2  3  1  0
  3  4  1  0
  4  5  1  0
  5  6  1  0
  6  7  1  0
  7  8  1  0
  8  9  1  0
  9 10  1  0
  3 11  1  0
 11 12  2  0
 12 13  1  0
 13 14  2  0
 14 15  1  0
 15 16  2  0
 16 17  1  0
 17 18  1  0
 18 19  1  0
 19 20  1  0
 20 21  1  0
 21 22  1  0
 22 23  1  0
 23 24  1  0
 17 25  2  0
 12 26  1  0
 26 27  1  0
 27 28  2  0
 28 29  1  0
 29 30  2  0
 30 31  1  0
 31 32  2  0
 32 33  1  0
 33 34  2  0
 34 35  1  0
 35 36  2  0
 26  2  1  0
 36 27  1  0
 10  5  1  0
 25 13  1  0
 35 30  1  0
 24 19  1  0
  4 37  1  0
  4 38  1  0
  5 39  1  0
  6 40  1  0
  6 41  1  0
  7 42  1  0
  7 43  1  0
  9 44  1  0
  9 45  1  0
 10 46  1  0
 10 47  1  0
 14 48  1  0
 15 49  1  0
 18 50  1  0
 19 51  1  0
 20 52  1  0
 20 53  1  0
 21 54  1  0
 21 55  1  0
 22 56  1  0
 22 57  1  0
 23 58  1  0
 23 59  1  0
 24 60  1  0
 24 61  1  0
 25 62  1  0
 28 63  1  0
 29 64  1  0
 31 65  1  0
 32 66  1  0
 33 67  1  0
 34 68  1  0
 36 69  1  0
M  END
$$$$
