@<TRIPOS>MOLECULE
*****
 41 43 0 0 0
SMALL
GASTEIGER

@<TRIPOS>ATOM
      1 C          -5.9498    0.2399   -2.1195 C.3     1  UNL1       -0.0306
      2 C          -5.4952    0.6377   -0.7337 C.3     1  UNL1        0.0900
      3 O          -4.1573    0.1847   -0.6087 O.3     1  UNL1       -0.4614
      4 C          -3.4666    0.4073    0.5518 C.2     1  UNL1        0.3412
      5 O          -4.0774    1.0291    1.4874 O.2     1  UNL1       -0.2449
      6 C          -2.0800   -0.0258    0.7708 C.ar    1  UNL1        0.0826
      7 C          -1.6272   -1.2140    1.2954 C.ar    1  UNL1        0.0276
      8 C          -2.5279   -2.3063    1.7542 C.3     1  UNL1       -0.0236
      9 N          -0.2826   -1.1736    1.3062 N.ar    1  UNL1       -0.3577
     10 C           0.1831   -0.0190    0.8137 C.ar    1  UNL1        0.0439
     11 C           1.5293    0.4674    0.6065 C.2     1  UNL1       -0.0253
     12 C           2.4512   -0.2012   -0.0477 C.2     1  UNL1        0.0479
     13 C           2.3266   -1.5007   -0.6769 C.2     1  UNL1        0.2490
     14 O           1.2926   -2.2063   -0.7201 O.2     1  UNL1       -0.2698
     15 N           3.6096   -1.8360   -1.2488 N.am    1  UNL1       -0.2809
     16 C           4.5230   -0.7762   -0.9888 C.ar    1  UNL1        0.0416
     17 C           5.8528   -0.6117   -1.3187 C.ar    1  UNL1       -0.0399
     18 C           6.4767    0.5465   -0.9184 C.ar    1  UNL1       -0.0600
     19 C           5.8321    1.5358   -0.2094 C.ar    1  UNL1       -0.0611
     20 C           4.5109    1.3572    0.1104 C.ar    1  UNL1       -0.0521
     21 C           3.8573    0.2081   -0.2762 C.ar    1  UNL1        0.0084
     22 C          -0.9462    0.7105    0.4744 C.ar    1  UNL1       -0.0115
     23 C          -0.9346    2.0701   -0.1147 C.3     1  UNL1       -0.0369
     24 H          -6.9460    0.6580   -2.3654 H       1  UNL1        0.0262
     25 H          -6.0124   -0.8602   -2.1745 H       1  UNL1        0.0262
     26 H          -5.1832    0.6132   -2.8193 H       1  UNL1        0.0262
     27 H          -6.1614    0.1247    0.0148 H       1  UNL1        0.0695
     28 H          -5.6168    1.7204   -0.5480 H       1  UNL1        0.0695
     29 H          -3.4390   -1.8612    2.2405 H       1  UNL1        0.0292
     30 H          -2.0110   -3.0194    2.4004 H       1  UNL1        0.0292
     31 H          -2.9356   -2.8770    0.8717 H       1  UNL1        0.0292
     32 H           0.2862   -1.9721    1.6855 H       1  UNL1        0.1656
     33 H           1.8373    1.4588    1.0054 H       1  UNL1        0.0646
     34 H           3.8065   -2.7157   -1.7641 H       1  UNL1        0.1552
     35 H           6.4234   -1.3437   -1.8718 H       1  UNL1        0.0636
     36 H           7.5320    0.7316   -1.1528 H       1  UNL1        0.0618
     37 H           6.3021    2.4583    0.1183 H       1  UNL1        0.0618
     38 H           3.9507    2.1029    0.6699 H       1  UNL1        0.0624
     39 H          -1.9635    2.4583   -0.2203 H       1  UNL1        0.0278
     40 H          -0.4891    2.0920   -1.1369 H       1  UNL1        0.0278
     41 H          -0.2808    2.7076    0.5083 H       1  UNL1        0.0278
@<TRIPOS>BOND
     1     1     2    1
     2     2     3    1
     3     3     4    1
     4     4     5    2
     5     4     6    1
     6     6     7   ar
     7     7     8    1
     8     7     9   ar
     9     9    10   ar
    10    10    11    1
    11    11    12    2
    12    12    13    1
    13    13    14    2
    14    13    15   am
    15    15    16    1
    16    16    17   ar
    17    17    18   ar
    18    18    19   ar
    19    19    20   ar
    20    20    21   ar
    21    10    22   ar
    22    22    23    1
    23    22     6   ar
    24    21    12    1
    25    21    16   ar
    26     1    24    1
    27     1    25    1
    28     1    26    1
    29     2    27    1
    30     2    28    1
    31     8    29    1
    32     8    30    1
    33     8    31    1
    34     9    32    1
    35    11    33    1
    36    15    34    1
    37    17    35    1
    38    18    36    1
    39    19    37    1
    40    20    38    1
    41    23    39    1
    42    23    40    1
    43    23    41    1
