@<TRIPOS>MOLECULE
*****
 78 81 0 0 0
SMALL
GASTEIGER

@<TRIPOS>ATOM
      1 C          -3.9464    2.2808    4.8909 C.3     1  UNL1       -0.0496
      2 C          -3.1860    1.7176    3.7360 C.3     1  UNL1        0.0063
      3 N          -4.1167    1.1975    2.7450 N.pl3   1  UNL1       -0.3440
      4 C          -3.6573    0.6035    1.5441 C.ar    1  UNL1        0.0296
      5 C          -2.2938    0.4905    1.2586 C.ar    1  UNL1       -0.0286
      6 C          -1.8521   -0.0864    0.0927 C.ar    1  UNL1        0.0402
      7 C          -0.4388   -0.2213   -0.2309 C.2     1  UNL1        0.2445
      8 O          -0.0769   -0.7463   -1.3406 O.2     1  UNL1       -0.2702
      9 N           0.5961    0.2041    0.6310 N.am    1  UNL1       -0.3057
     10 C           1.9787    0.0357    0.2381 C.3     1  UNL1        0.0545
     11 C           2.5635    1.4421    0.2343 C.3     1  UNL1       -0.0067
     12 C           1.8615    2.3170   -0.7071 C.ar    1  UNL1       -0.0455
     13 C           0.7711    3.0420   -0.2858 C.ar    1  UNL1       -0.0585
     14 C           0.0966    3.8754   -1.1676 C.ar    1  UNL1       -0.0615
     15 C           0.5098    3.9943   -2.4954 C.ar    1  UNL1       -0.0617
     16 C           1.6079    3.2589   -2.9039 C.ar    1  UNL1       -0.0615
     17 C           2.2849    2.4198   -2.0111 C.ar    1  UNL1       -0.0585
     18 C           2.6306   -0.8111    1.2921 C.3     1  UNL1        0.0862
     19 O           2.5446   -0.1798    2.5278 O.3     1  UNL1       -0.3887
     20 C           4.0134   -1.2741    0.9931 C.3     1  UNL1        0.0240
     21 N           4.9985   -0.2517    0.9648 N.3     1  UNL1       -0.3106
     22 C           6.3281   -0.6574    0.6719 C.3     1  UNL1        0.0119
     23 C           6.8745   -1.7166    1.6033 C.3     1  UNL1       -0.0139
     24 C           8.2077   -2.1994    1.1262 C.3     1  UNL1        0.0491
     25 O           8.5855   -1.7280   -0.1177 O.3     1  UNL1       -0.3797
     26 C           7.5541   -2.0357   -1.0163 C.3     1  UNL1        0.0491
     27 C           6.4773   -0.9953   -0.7741 C.3     1  UNL1       -0.0139
     28 C          -2.7971   -0.5524   -0.7909 C.ar    1  UNL1       -0.0269
     29 C          -4.1494   -0.4577   -0.5419 C.ar    1  UNL1        0.0533
     30 N          -5.0578   -0.9594   -1.4920 N.pl3   1  UNL1       -0.2073
     31 C          -5.5702   -0.1190   -2.5564 C.3     1  UNL1        0.0346
     32 C          -7.0646   -0.4289   -2.6487 C.3     1  UNL1       -0.0340
     33 C          -7.3344   -1.7023   -3.3912 C.3     1  UNL1       -0.0304
     34 C          -6.5456   -2.8779   -2.9300 C.3     1  UNL1        0.0850
     35 S          -5.6238   -2.6004   -1.4575 S.O2    1  UNL1        0.0455
     36 O          -4.4266   -3.4918   -1.3869 O.2     1  UNL1       -0.1550
     37 O          -6.4367   -2.8361   -0.2175 O.2     1  UNL1       -0.1550
     38 C          -4.5707    0.1240    0.6326 C.ar    1  UNL1       -0.0182
     39 H          -4.8941    1.7479    5.0391 H       1  UNL1        0.0245
     40 H          -3.3683    2.1448    5.8448 H       1  UNL1        0.0245
     41 H          -4.1628    3.3587    4.7762 H       1  UNL1        0.0245
     42 H          -2.5226    0.9049    4.1359 H       1  UNL1        0.0458
     43 H          -2.5382    2.5187    3.3216 H       1  UNL1        0.0458
     44 H          -5.1394    1.2602    2.9169 H       1  UNL1        0.1461
     45 H          -1.6207    0.8759    1.9942 H       1  UNL1        0.0643
     46 H           0.3311    0.6386    1.5499 H       1  UNL1        0.1494
     47 H           2.0015   -0.4196   -0.7595 H       1  UNL1        0.0527
     48 H           3.6472    1.4512    0.0056 H       1  UNL1        0.0332
     49 H           2.4461    1.8437    1.2613 H       1  UNL1        0.0332
     50 H           0.4625    2.9415    0.7397 H       1  UNL1        0.0620
     51 H          -0.7568    4.4445   -0.8427 H       1  UNL1        0.0618
     52 H          -0.0308    4.6501   -3.1664 H       1  UNL1        0.0618
     53 H           1.9268    3.3558   -3.9431 H       1  UNL1        0.0618
     54 H           3.1365    1.8663   -2.3776 H       1  UNL1        0.0620
     55 H           2.0080   -1.7493    1.4135 H       1  UNL1        0.0624
     56 H           1.6629   -0.3707    2.9817 H       1  UNL1        0.2099
     57 H           4.2506   -2.0407    1.7918 H       1  UNL1        0.0450
     58 H           4.0646   -1.8558    0.0526 H       1  UNL1        0.0450
     59 H           4.9284    0.4359    1.7486 H       1  UNL1        0.1223
     60 H           6.9773    0.2602    0.8482 H       1  UNL1        0.0462
     61 H           6.2009   -2.6084    1.6342 H       1  UNL1        0.0302
     62 H           7.0193   -1.2768    2.6113 H       1  UNL1        0.0302
     63 H           9.0393   -1.9067    1.8320 H       1  UNL1        0.0560
     64 H           8.2710   -3.3265    1.0999 H       1  UNL1        0.0560
     65 H           7.9615   -2.0022   -2.0430 H       1  UNL1        0.0560
     66 H           7.2003   -3.0636   -0.7869 H       1  UNL1        0.0560
     67 H           6.7702   -0.0769   -1.3540 H       1  UNL1        0.0302
     68 H           5.5506   -1.3673   -1.1998 H       1  UNL1        0.0302
     69 H          -2.4865   -1.0123   -1.7187 H       1  UNL1        0.0644
     70 H          -5.3895    0.9519   -2.3850 H       1  UNL1        0.0482
     71 H          -5.0727   -0.4069   -3.5130 H       1  UNL1        0.0482
     72 H          -7.5229    0.4029   -3.2136 H       1  UNL1        0.0281
     73 H          -7.4390   -0.4310   -1.6019 H       1  UNL1        0.0281
     74 H          -8.4184   -1.8950   -3.3320 H       1  UNL1        0.0282
     75 H          -7.0935   -1.5156   -4.4613 H       1  UNL1        0.0282
     76 H          -5.8450   -3.2652   -3.6975 H       1  UNL1        0.0518
     77 H          -7.2506   -3.7229   -2.7248 H       1  UNL1        0.0518
     78 H          -5.6439    0.1855    0.8028 H       1  UNL1        0.0655
@<TRIPOS>BOND
     1     1     2    1
     2     2     3    1
     3     3     4    1
     4     4     5   ar
     5     5     6   ar
     6     6     7    1
     7     7     8    2
     8     7     9   am
     9     9    10    1
    10    10    11    1
    11    11    12    1
    12    12    13   ar
    13    13    14   ar
    14    14    15   ar
    15    15    16   ar
    16    16    17   ar
    17    10    18    1
    18    18    19    1
    19    18    20    1
    20    20    21    1
    21    21    22    1
    22    22    23    1
    23    23    24    1
    24    24    25    1
    25    25    26    1
    26    26    27    1
    27     6    28   ar
    28    28    29   ar
    29    29    30    1
    30    30    31    1
    31    31    32    1
    32    32    33    1
    33    33    34    1
    34    34    35    1
    35    35    36    2
    36    35    37    2
    37    29    38   ar
    38    38     4   ar
    39    17    12   ar
    40    27    22    1
    41    35    30    1
    42     1    39    1
    43     1    40    1
    44     1    41    1
    45     2    42    1
    46     2    43    1
    47     3    44    1
    48     5    45    1
    49     9    46    1
    50    10    47    1
    51    11    48    1
    52    11    49    1
    53    13    50    1
    54    14    51    1
    55    15    52    1
    56    16    53    1
    57    17    54    1
    58    18    55    1
    59    19    56    1
    60    20    57    1
    61    20    58    1
    62    21    59    1
    63    22    60    1
    64    23    61    1
    65    23    62    1
    66    24    63    1
    67    24    64    1
    68    26    65    1
    69    26    66    1
    70    27    67    1
    71    27    68    1
    72    28    69    1
    73    31    70    1
    74    31    71    1
    75    32    72    1
    76    32    73    1
    77    33    74    1
    78    33    75    1
    79    34    76    1
    80    34    77    1
    81    38    78    1
