
     RDKit          3D

 78 81  0  0  0  0  0  0  0  0999 V2000
   -3.9464    2.2808    4.8909 C   0  0  0  0  0  0  0  0  0  0  0  0
   -3.1860    1.7176    3.7360 C   0  0  0  0  0  0  0  0  0  0  0  0
   -4.1167    1.1975    2.7450 N   0  0  0  0  0  0  0  0  0  0  0  0
   -3.6573    0.6035    1.5441 C   0  0  0  0  0  0  0  0  0  0  0  0
   -2.2938    0.4905    1.2586 C   0  0  0  0  0  0  0  0  0  0  0  0
   -1.8521   -0.0864    0.0927 C   0  0  0  0  0  0  0  0  0  0  0  0
   -0.4388   -0.2213   -0.2309 C   0  0  0  0  0  0  0  0  0  0  0  0
   -0.0769   -0.7463   -1.3406 O   0  0  0  0  0  0  0  0  0  0  0  0
    0.5961    0.2041    0.6310 N   0  0  0  0  0  0  0  0  0  0  0  0
    1.9787    0.0357    0.2381 C   0  0  1  0  0  0  0  0  0  0  0  0
    2.5635    1.4421    0.2343 C   0  0  0  0  0  0  0  0  0  0  0  0
    1.8615    2.3170   -0.7071 C   0  0  0  0  0  0  0  0  0  0  0  0
    0.7711    3.0420   -0.2858 C   0  0  0  0  0  0  0  0  0  0  0  0
    0.0966    3.8754   -1.1676 C   0  0  0  0  0  0  0  0  0  0  0  0
    0.5098    3.9943   -2.4954 C   0  0  0  0  0  0  0  0  0  0  0  0
    1.6079    3.2589   -2.9039 C   0  0  0  0  0  0  0  0  0  0  0  0
    2.2849    2.4198   -2.0111 C   0  0  0  0  0  0  0  0  0  0  0  0
    2.6306   -0.8111    1.2921 C   0  0  2  0  0  0  0  0  0  0  0  0
    2.5446   -0.1798    2.5278 O   0  0  0  0  0  0  0  0  0  0  0  0
    4.0134   -1.2741    0.9931 C   0  0  0  0  0  0  0  0  0  0  0  0
    4.9985   -0.2517    0.9648 N   0  0  0  0  0  0  0  0  0  0  0  0
    6.3281   -0.6574    0.6719 C   0  0  0  0  0  0  0  0  0  0  0  0
    6.8745   -1.7166    1.6033 C   0  0  0  0  0  0  0  0  0  0  0  0
    8.2077   -2.1994    1.1262 C   0  0  0  0  0  0  0  0  0  0  0  0
    8.5855   -1.7280   -0.1177 O   0  0  0  0  0  0  0  0  0  0  0  0
    7.5541   -2.0357   -1.0163 C   0  0  0  0  0  0  0  0  0  0  0  0
    6.4773   -0.9953   -0.7741 C   0  0  0  0  0  0  0  0  0  0  0  0
   -2.7971   -0.5524   -0.7909 C   0  0  0  0  0  0  0  0  0  0  0  0
   -4.1494   -0.4577   -0.5419 C   0  0  0  0  0  0  0  0  0  0  0  0
   -5.0578   -0.9594   -1.4920 N   0  0  0  0  0  0  0  0  0  0  0  0
   -5.5702   -0.1190   -2.5564 C   0  0  0  0  0  0  0  0  0  0  0  0
   -7.0646   -0.4289   -2.6487 C   0  0  0  0  0  0  0  0  0  0  0  0
   -7.3344   -1.7023   -3.3912 C   0  0  0  0  0  0  0  0  0  0  0  0
   -6.5456   -2.8779   -2.9300 C   0  0  0  0  0  0  0  0  0  0  0  0
   -5.6238   -2.6004   -1.4575 S   0  0  0  0  0  6  0  0  0  0  0  0
   -4.4266   -3.4918   -1.3869 O   0  0  0  0  0  0  0  0  0  0  0  0
   -6.4367   -2.8361   -0.2175 O   0  0  0  0  0  0  0  0  0  0  0  0
   -4.5707    0.1240    0.6326 C   0  0  0  0  0  0  0  0  0  0  0  0
   -4.8941    1.7479    5.0391 H   0  0  0  0  0  0  0  0  0  0  0  0
   -3.3683    2.1448    5.8448 H   0  0  0  0  0  0  0  0  0  0  0  0
   -4.1628    3.3587    4.7762 H   0  0  0  0  0  0  0  0  0  0  0  0
   -2.5226    0.9049    4.1359 H   0  0  0  0  0  0  0  0  0  0  0  0
   -2.5382    2.5187    3.3216 H   0  0  0  0  0  0  0  0  0  0  0  0
   -5.1394    1.2602    2.9169 H   0  0  0  0  0  0  0  0  0  0  0  0
   -1.6207    0.8759    1.9942 H   0  0  0  0  0  0  0  0  0  0  0  0
    0.3311    0.6386    1.5499 H   0  0  0  0  0  0  0  0  0  0  0  0
    2.0015   -0.4196   -0.7595 H   0  0  0  0  0  0  0  0  0  0  0  0
    3.6472    1.4512    0.0056 H   0  0  0  0  0  0  0  0  0  0  0  0
    2.4461    1.8437    1.2613 H   0  0  0  0  0  0  0  0  0  0  0  0
    0.4625    2.9415    0.7397 H   0  0  0  0  0  0  0  0  0  0  0  0
   -0.7568    4.4445   -0.8427 H   0  0  0  0  0  0  0  0  0  0  0  0
   -0.0308    4.6501   -3.1664 H   0  0  0  0  0  0  0  0  0  0  0  0
    1.9268    3.3558   -3.9431 H   0  0  0  0  0  0  0  0  0  0  0  0
    3.1365    1.8663   -2.3776 H   0  0  0  0  0  0  0  0  0  0  0  0
    2.0080   -1.7493    1.4135 H   0  0  0  0  0  0  0  0  0  0  0  0
    1.6629   -0.3707    2.9817 H   0  0  0  0  0  0  0  0  0  0  0  0
    4.2506   -2.0407    1.7918 H   0  0  0  0  0  0  0  0  0  0  0  0
    4.0646   -1.8558    0.0526 H   0  0  0  0  0  0  0  0  0  0  0  0
    4.9284    0.4359    1.7486 H   0  0  0  0  0  0  0  0  0  0  0  0
    6.9773    0.2602    0.8482 H   0  0  0  0  0  0  0  0  0  0  0  0
    6.2009   -2.6084    1.6342 H   0  0  0  0  0  0  0  0  0  0  0  0
    7.0193   -1.2768    2.6113 H   0  0  0  0  0  0  0  0  0  0  0  0
    9.0393   -1.9067    1.8320 H   0  0  0  0  0  0  0  0  0  0  0  0
    8.2710   -3.3265    1.0999 H   0  0  0  0  0  0  0  0  0  0  0  0
    7.9615   -2.0022   -2.0430 H   0  0  0  0  0  0  0  0  0  0  0  0
    7.2003   -3.0636   -0.7869 H   0  0  0  0  0  0  0  0  0  0  0  0
    6.7702   -0.0769   -1.3540 H   0  0  0  0  0  0  0  0  0  0  0  0
    5.5506   -1.3673   -1.1998 H   0  0  0  0  0  0  0  0  0  0  0  0
   -2.4865   -1.0123   -1.7187 H   0  0  0  0  0  0  0  0  0  0  0  0
   -5.3895    0.9519   -2.3850 H   0  0  0  0  0  0  0  0  0  0  0  0
   -5.0727   -0.4069   -3.5130 H   0  0  0  0  0  0  0  0  0  0  0  0
   -7.5229    0.4029   -3.2136 H   0  0  0  0  0  0  0  0  0  0  0  0
   -7.4390   -0.4310   -1.6019 H   0  0  0  0  0  0  0  0  0  0  0  0
   -8.4184   -1.8950   -3.3320 H   0  0  0  0  0  0  0  0  0  0  0  0
   -7.0935   -1.5156   -4.4613 H   0  0  0  0  0  0  0  0  0  0  0  0
   -5.8450   -3.2652   -3.6975 H   0  0  0  0  0  0  0  0  0  0  0  0
   -7.2506   -3.7229   -2.7248 H   0  0  0  0  0  0  0  0  0  0  0  0
   -5.6439    0.1855    0.8028 H   0  0  0  0  0  0  0  0  0  0  0  0
  1  2  1  0
  2  3  1  0
  3  4  1  0
  4  5  2  0
  5  6  1  0
  6  7  1  0
  7  8  2  0
  7  9  1  0
  9 10  1  0
 10 11  1  0
 11 12  1  0
 12 13  2  0
 13 14  1  0
 14 15  2  0
 15 16  1  0
 16 17  2  0
 10 18  1  0
 18 19  1  0
 18 20  1  0
 20 21  1  0
 21 22  1  0
 22 23  1  0
 23 24  1  0
 24 25  1  0
 25 26  1  0
 26 27  1  0
  6 28  2  0
 28 29  1  0
 29 30  1  0
 30 31  1  0
 31 32  1  0
 32 33  1  0
 33 34  1  0
 34 35  1  0
 35 36  2  0
 35 37  2  0
 29 38  2  0
 38  4  1  0
 17 12  1  0
 27 22  1  0
 35 30  1  0
  1 39  1  0
  1 40  1  0
  1 41  1  0
  2 42  1  0
  2 43  1  0
  3 44  1  0
  5 45  1  0
  9 46  1  0
 10 47  1  6
 11 48  1  0
 11 49  1  0
 13 50  1  0
 14 51  1  0
 15 52  1  0
 16 53  1  0
 17 54  1  0
 18 55  1  1
 19 56  1  0
 20 57  1  0
 20 58  1  0
 21 59  1  0
 22 60  1  0
 23 61  1  0
 23 62  1  0
 24 63  1  0
 24 64  1  0
 26 65  1  0
 26 66  1  0
 27 67  1  0
 27 68  1  0
 28 69  1  0
 31 70  1  0
 31 71  1  0
 32 72  1  0
 32 73  1  0
 33 74  1  0
 33 75  1  0
 34 76  1  0
 34 77  1  0
 38 78  1  0
M  END
$$$$
