@<TRIPOS>MOLECULE
*****
 63 66 0 0 0
SMALL
GASTEIGER

@<TRIPOS>ATOM
      1 C          -9.3193   -1.2431   -0.2180 C.3     1  UNL1        0.0790
      2 O          -8.1590   -1.0145   -1.0101 O.3     1  UNL1       -0.4915
      3 C          -7.0228   -0.5015   -0.4044 C.ar    1  UNL1        0.1615
      4 C          -6.9694   -0.2012    0.9403 C.ar    1  UNL1       -0.0156
      5 C          -5.7875    0.3160    1.4931 C.ar    1  UNL1       -0.0459
      6 C          -4.6714    0.5334    0.7234 C.ar    1  UNL1        0.0404
      7 C          -3.4131    1.0680    1.2440 C.2     1  UNL1        0.2445
      8 O          -2.4171    1.2411    0.4854 O.2     1  UNL1       -0.2702
      9 N          -3.2220    1.4219    2.6019 N.am    1  UNL1       -0.3072
     10 C          -2.0207    1.9442    3.1720 C.3     1  UNL1        0.0372
     11 C          -0.9611    0.9392    3.4132 C.ar    1  UNL1       -0.0296
     12 C          -0.9555    0.2504    4.6240 C.ar    1  UNL1       -0.0570
     13 C           0.0106   -0.6981    4.9127 C.ar    1  UNL1       -0.0607
     14 C           0.9767   -0.9562    3.9792 C.ar    1  UNL1       -0.0496
     15 C           1.0101   -0.2966    2.7640 C.ar    1  UNL1        0.0373
     16 C           2.0809   -0.6497    1.8402 C.2     1  UNL1        0.2483
     17 O           2.9318   -1.5356    2.1226 O.2     1  UNL1       -0.2699
     18 N           2.1977    0.0004    0.5838 N.am    1  UNL1       -0.2815
     19 C           3.2697   -0.3956   -0.2726 C.ar    1  UNL1        0.0340
     20 C           3.1262   -1.4057   -1.2039 C.ar    1  UNL1       -0.0402
     21 C           4.1643   -1.8031   -2.0457 C.ar    1  UNL1       -0.0565
     22 C           5.3734   -1.1519   -1.9302 C.ar    1  UNL1       -0.0416
     23 C           5.5549   -0.1385   -1.0119 C.ar    1  UNL1       -0.0284
     24 C           4.5018    0.2223   -0.1997 C.ar    1  UNL1       -0.0358
     25 C           6.8940    0.5018   -0.9591 C.3     1  UNL1        0.0241
     26 N           7.3025    0.8381   -2.2834 N.3     1  UNL1       -0.3008
     27 C           6.7520    2.1337   -2.6290 C.3     1  UNL1       -0.0124
     28 C           7.0721   -0.1450   -3.2892 C.3     1  UNL1        0.0029
     29 C           6.5686   -1.4726   -2.7692 C.3     1  UNL1       -0.0146
     30 C           0.0424    0.6271    2.5222 C.ar    1  UNL1       -0.0449
     31 C          -4.7378    0.2248   -0.6405 C.ar    1  UNL1       -0.0042
     32 C          -5.9047   -0.2847   -1.1809 C.ar    1  UNL1        0.1622
     33 O          -5.9708   -0.5910   -2.5341 O.3     1  UNL1       -0.4914
     34 C          -4.8585   -0.3854   -3.3524 C.3     1  UNL1        0.0790
     35 H          -9.5514   -0.3717    0.4033 H       1  UNL1        0.0660
     36 H          -9.1603   -2.1318    0.4498 H       1  UNL1        0.0660
     37 H         -10.1681   -1.5151   -0.8874 H       1  UNL1        0.0660
     38 H          -7.8485   -0.3686    1.5647 H       1  UNL1        0.0655
     39 H          -5.7604    0.5480    2.5565 H       1  UNL1        0.0626
     40 H          -4.0372    1.2869    3.2482 H       1  UNL1        0.1493
     41 H          -2.2688    2.4900    4.1257 H       1  UNL1        0.0512
     42 H          -1.6126    2.7736    2.5164 H       1  UNL1        0.0512
     43 H          -1.7053    0.4450    5.3588 H       1  UNL1        0.0621
     44 H           0.0216   -1.2444    5.8637 H       1  UNL1        0.0618
     45 H           1.7289   -1.7067    4.2252 H       1  UNL1        0.0625
     46 H           1.5319    0.7426    0.2831 H       1  UNL1        0.1551
     47 H           2.1754   -1.9016   -1.2786 H       1  UNL1        0.0636
     48 H           4.0579   -2.5926   -2.7763 H       1  UNL1        0.0621
     49 H           4.6390    1.0186    0.5245 H       1  UNL1        0.0639
     50 H           7.5666   -0.2440   -0.4679 H       1  UNL1        0.0476
     51 H           6.7997    1.4325   -0.3655 H       1  UNL1        0.0476
     52 H           5.8200    1.9746   -3.2125 H       1  UNL1        0.0391
     53 H           6.4424    2.6853   -1.7061 H       1  UNL1        0.0391
     54 H           7.4932    2.7578   -3.1677 H       1  UNL1        0.0391
     55 H           7.9295   -0.3060   -3.9501 H       1  UNL1        0.0430
     56 H           6.2459    0.2388   -3.9594 H       1  UNL1        0.0430
     57 H           7.3525   -1.8804   -2.0959 H       1  UNL1        0.0326
     58 H           6.3322   -2.1036   -3.6271 H       1  UNL1        0.0326
     59 H           0.0578    1.1458    1.5949 H       1  UNL1        0.0628
     60 H          -3.8537    0.4002   -1.2383 H       1  UNL1        0.0663
     61 H          -4.0072   -1.0637   -3.1341 H       1  UNL1        0.0660
     62 H          -5.1612   -0.5588   -4.4249 H       1  UNL1        0.0660
     63 H          -4.4988    0.6571   -3.3097 H       1  UNL1        0.0660
@<TRIPOS>BOND
     1     1     2    1
     2     2     3    1
     3     3     4   ar
     4     4     5   ar
     5     5     6   ar
     6     6     7    1
     7     7     8    2
     8     7     9   am
     9     9    10    1
    10    10    11    1
    11    11    12   ar
    12    12    13   ar
    13    13    14   ar
    14    14    15   ar
    15    15    16    1
    16    16    17    2
    17    16    18   am
    18    18    19    1
    19    19    20   ar
    20    20    21   ar
    21    21    22   ar
    22    22    23   ar
    23    23    24   ar
    24    23    25    1
    25    25    26    1
    26    26    27    1
    27    26    28    1
    28    28    29    1
    29    15    30   ar
    30     6    31   ar
    31    31    32   ar
    32    32    33    1
    33    33    34    1
    34    32     3   ar
    35    30    11   ar
    36    24    19   ar
    37    29    22    1
    38     1    35    1
    39     1    36    1
    40     1    37    1
    41     4    38    1
    42     5    39    1
    43     9    40    1
    44    10    41    1
    45    10    42    1
    46    12    43    1
    47    13    44    1
    48    14    45    1
    49    18    46    1
    50    20    47    1
    51    21    48    1
    52    24    49    1
    53    25    50    1
    54    25    51    1
    55    27    52    1
    56    27    53    1
    57    27    54    1
    58    28    55    1
    59    28    56    1
    60    29    57    1
    61    29    58    1
    62    30    59    1
    63    31    60    1
    64    34    61    1
    65    34    62    1
    66    34    63    1
