@<TRIPOS>MOLECULE
*****
 43 47 0 0 0
SMALL
GASTEIGER

@<TRIPOS>ATOM
      1 C           5.2690   -2.3789   -1.5834 C.3     1  UNL1        0.0790
      2 O           5.9817   -1.3670   -0.8963 O.3     1  UNL1       -0.4914
      3 C           5.2739   -0.4279   -0.1691 C.ar    1  UNL1        0.1618
      4 C           3.8995   -0.4095   -0.0659 C.ar    1  UNL1       -0.0086
      5 C           3.2100    0.5422    0.6694 C.ar    1  UNL1       -0.0141
      6 C           1.7577    0.5356    0.7598 C.ar    1  UNL1       -0.0157
      7 C           0.9960    0.0797   -0.3024 C.ar    1  UNL1       -0.0533
      8 C          -0.3789    0.0789   -0.2028 C.ar    1  UNL1       -0.0498
      9 C          -0.9973    0.5375    0.9681 C.ar    1  UNL1        0.0304
     10 C          -2.3138    0.6534    1.3496 C.ar    1  UNL1        0.1352
     11 C          -3.4504    0.2742    0.5023 C.ar    1  UNL1        0.1600
     12 N          -3.4121   -0.2296   -0.7355 N.ar    1  UNL1       -0.2261
     13 C          -4.6620   -0.4498   -1.1841 C.ar    1  UNL1        0.0895
     14 C          -5.1595   -0.9523   -2.3793 C.ar    1  UNL1       -0.0342
     15 C          -6.5091   -1.0840   -2.6039 C.ar    1  UNL1       -0.0596
     16 C          -7.3720   -0.6914   -1.5787 C.ar    1  UNL1       -0.0597
     17 C          -6.8785   -0.1924   -0.3915 C.ar    1  UNL1       -0.0362
     18 C          -5.5212   -0.0636   -0.1748 C.ar    1  UNL1        0.0665
     19 N          -4.7473    0.3743    0.8421 N.ar    1  UNL1       -0.3366
     20 N          -2.3309    1.1572    2.5867 N.ar    1  UNL1       -0.1696
     21 N          -1.0850    1.3484    2.9638 N.ar    1  UNL1       -0.2763
     22 C          -0.2292    0.9845    2.0079 C.ar    1  UNL1        0.0670
     23 C           1.1475    0.9854    1.9084 C.ar    1  UNL1       -0.0286
     24 C           3.9690    1.5049    1.3179 C.ar    1  UNL1       -0.0503
     25 C           5.3451    1.4938    1.2197 C.ar    1  UNL1       -0.0159
     26 C           6.0235    0.5420    0.4852 C.ar    1  UNL1        0.1585
     27 O           7.4095    0.5440    0.3959 O.3     1  UNL1       -0.5033
     28 H           4.8340   -3.0723   -0.8586 H       1  UNL1        0.0660
     29 H           4.4477   -1.8810   -2.1688 H       1  UNL1        0.0660
     30 H           5.9109   -2.9192   -2.3077 H       1  UNL1        0.0660
     31 H           3.3526   -1.1777   -0.5872 H       1  UNL1        0.0661
     32 H           1.4762   -0.2753   -1.2090 H       1  UNL1        0.0624
     33 H          -1.0330   -0.2591   -0.9838 H       1  UNL1        0.0625
     34 H          -4.4968   -1.2600   -3.1818 H       1  UNL1        0.0639
     35 H          -6.9058   -1.4723   -3.5270 H       1  UNL1        0.0618
     36 H          -8.4393   -0.7976   -1.7610 H       1  UNL1        0.0618
     37 H          -7.5562    0.1146    0.4098 H       1  UNL1        0.0639
     38 H          -5.1492    0.7279    1.7380 H       1  UNL1        0.1674
     39 H          -0.7518    1.7379    3.8948 H       1  UNL1        0.1889
     40 H           1.7277    1.3399    2.7353 H       1  UNL1        0.0645
     41 H           3.4842    2.2814    1.9126 H       1  UNL1        0.0625
     42 H           5.9524    2.2464    1.7257 H       1  UNL1        0.0655
     43 H           7.9110    1.2767    0.8438 H       1  UNL1        0.2923
@<TRIPOS>BOND
     1     1     2    1
     2     2     3    1
     3     3     4   ar
     4     4     5   ar
     5     5     6    1
     6     6     7   ar
     7     7     8   ar
     8     8     9   ar
     9     9    10   ar
    10    10    11    1
    11    11    12   ar
    12    12    13   ar
    13    13    14   ar
    14    14    15   ar
    15    15    16   ar
    16    16    17   ar
    17    17    18   ar
    18    18    19   ar
    19    10    20   ar
    20    20    21   ar
    21    21    22   ar
    22    22    23   ar
    23     5    24   ar
    24    24    25   ar
    25    25    26   ar
    26    26    27    1
    27    26     3   ar
    28    23     6   ar
    29    22     9   ar
    30    19    11   ar
    31    18    13   ar
    32     1    28    1
    33     1    29    1
    34     1    30    1
    35     4    31    1
    36     7    32    1
    37     8    33    1
    38    14    34    1
    39    15    35    1
    40    16    36    1
    41    17    37    1
    42    19    38    1
    43    21    39    1
    44    23    40    1
    45    24    41    1
    46    25    42    1
    47    27    43    1
