
     RDKit          3D

 40 42  0  0  0  0  0  0  0  0999 V2000
   -7.4290   -0.2973   -0.9323 N   0  0  0  0  0  0  0  0  0  0  0  0
   -6.4587   -0.2845    0.5074 S   0  0  0  0  0  0  0  0  0  0  0  0
   -7.0388    0.7679    1.4376 O   0  0  0  0  0  0  0  0  0  0  0  0
   -6.5464   -1.6044    1.2164 O   0  0  0  0  0  0  0  0  0  0  0  0
   -4.8033    0.0753    0.1541 C   0  0  0  0  0  0  0  0  0  0  0  0
   -3.7497   -0.7498    0.4275 C   0  0  0  0  0  0  0  0  0  0  0  0
   -2.4413   -0.4960    0.1651 C   0  0  0  0  0  0  0  0  0  0  0  0
   -2.1489    0.7050   -0.4325 C   0  0  0  0  0  0  0  0  0  0  0  0
   -3.2092    1.5723   -0.7249 C   0  0  0  0  0  0  0  0  0  0  0  0
   -4.5151    1.2864   -0.4476 C   0  0  0  0  0  0  0  0  0  0  0  0
   -5.7855    2.4161   -0.8407 Cl  0  0  0  0  0  0  0  0  0  0  0  0
   -0.8739    1.1461   -0.7912 N   0  0  0  0  0  0  0  0  0  0  0  0
    0.2427    0.5439   -0.6446 C   0  0  0  0  0  0  0  0  0  0  0  0
    1.4673    1.2396   -1.1115 C   0  0  0  0  0  0  0  0  0  0  0  0
    2.3218    1.9276    0.3151 S   0  0  0  0  0  0  0  0  0  0  0  0
    3.0760    0.6333    1.3083 C   0  0  0  0  0  0  0  0  0  0  0  0
    4.2174    0.0595    0.5299 C   0  0  0  0  0  0  0  0  0  0  0  0
    4.2779   -0.9919   -0.3436 C   0  0  0  0  0  0  0  0  0  0  0  0
    5.4704   -1.3269   -0.9475 C   0  0  0  0  0  0  0  0  0  0  0  0
    6.6555   -0.6618   -0.7351 C   0  0  0  0  0  0  0  0  0  0  0  0
    6.6303    0.4035    0.1397 C   0  0  0  0  0  0  0  0  0  0  0  0
    5.4401    0.7229    0.7307 C   0  0  0  0  0  0  0  0  0  0  0  0
    0.3047   -0.7416   -0.0648 N   0  0  0  0  0  0  0  0  0  0  0  0
   -1.1086   -1.5648    0.5420 S   0  0  0  0  0  0  0  0  0  0  0  0
   -0.9021   -1.7331    2.0176 O   0  0  0  0  0  0  0  0  0  0  0  0
   -1.2699   -2.9036   -0.1171 O   0  0  0  0  0  0  0  0  0  0  0  0
   -7.6008   -1.3036   -1.2296 H   0  0  0  0  0  0  0  0  0  0  0  0
   -6.8439    0.1511   -1.6993 H   0  0  0  0  0  0  0  0  0  0  0  0
   -3.9789   -1.7113    0.9048 H   0  0  0  0  0  0  0  0  0  0  0  0
   -3.0179    2.5468   -1.2041 H   0  0  0  0  0  0  0  0  0  0  0  0
    1.1465    2.0383   -1.8306 H   0  0  0  0  0  0  0  0  0  0  0  0
    2.1426    0.5291   -1.6578 H   0  0  0  0  0  0  0  0  0  0  0  0
    2.3331   -0.1158    1.6176 H   0  0  0  0  0  0  0  0  0  0  0  0
    3.4860    1.1621    2.2281 H   0  0  0  0  0  0  0  0  0  0  0  0
    3.3598   -1.4959   -0.4983 H   0  0  0  0  0  0  0  0  0  0  0  0
    5.4156   -2.1845   -1.6309 H   0  0  0  0  0  0  0  0  0  0  0  0
    7.5721   -0.9439   -1.2199 H   0  0  0  0  0  0  0  0  0  0  0  0
    7.5412    0.9352    0.3192 H   0  0  0  0  0  0  0  0  0  0  0  0
    5.5133    1.5858    1.4133 H   0  0  0  0  0  0  0  0  0  0  0  0
    1.1076   -1.3372    0.0661 H   0  0  0  0  0  0  0  0  0  0  0  0
  1  2  1  0
  2  3  2  0
  2  4  2  0
  2  5  1  0
  5  6  2  0
  6  7  1  0
  7  8  2  0
  8  9  1  0
  9 10  2  0
 10 11  1  0
  8 12  1  0
 12 13  2  0
 13 14  1  0
 14 15  1  0
 15 16  1  0
 16 17  1  0
 17 18  2  0
 18 19  1  0
 19 20  2  0
 20 21  1  0
 21 22  2  0
 13 23  1  0
 23 24  1  0
 24 25  2  0
 24 26  2  0
 10  5  1  0
 22 17  1  0
 24  7  1  0
  1 27  1  0
  1 28  1  0
  6 29  1  0
  9 30  1  0
 14 31  1  0
 14 32  1  0
 16 33  1  0
 16 34  1  0
 18 35  1  0
 19 36  1  0
 20 37  1  0
 21 38  1  0
 22 39  1  0
 23 40  1  0
M  END
$$$$
