@<TRIPOS>MOLECULE
*****
 32 33 0 0 0
SMALL
GASTEIGER

@<TRIPOS>ATOM
      1 C           0.4041   -1.1440   -0.4258 C.3     1  UNL1        0.1561
      2 N           1.2803   -0.0926   -0.9423 N.3     1  UNL1       -0.1829
      3 O           2.5431   -0.4699   -0.5537 O.3     1  UNL1       -0.2978
      4 C           3.3108    0.6837   -0.3519 C.3     1  UNL1        0.0779
      5 C           4.7080    0.2721    0.0782 C.3     1  UNL1        0.0161
      6 S           5.6949    1.7734    0.3372 S.3     1  UNL1       -0.1759
      7 C           0.5322   -1.2102    1.0636 C.2     1  UNL1        0.3287
      8 O          -0.2559   -2.1799    1.6995 O.3     1  UNL1       -0.4792
      9 O           1.2079   -0.5784    1.9403 O.2     1  UNL1       -0.2488
     10 C          -0.9932   -0.9504   -0.8691 C.ar    1  UNL1        0.0074
     11 C          -1.6949   -1.5870   -1.8770 C.ar    1  UNL1        0.0080
     12 N          -2.9582   -1.1315   -1.9777 N.ar    1  UNL1       -0.3603
     13 C          -3.1070   -0.1851   -1.0342 C.ar    1  UNL1        0.0468
     14 C          -1.9016   -0.0563   -0.3353 C.ar    1  UNL1        0.0049
     15 C          -1.8405    0.8688    0.6830 C.ar    1  UNL1       -0.0523
     16 C          -2.8960    1.6861    1.0661 C.ar    1  UNL1       -0.0611
     17 C          -4.0716    1.5154    0.3363 C.ar    1  UNL1       -0.0598
     18 C          -4.2036    0.6128   -0.6910 C.ar    1  UNL1       -0.0378
     19 H           0.8022   -2.0949   -0.8365 H       1  UNL1        0.0650
     20 H           1.2700   -0.2145   -1.9973 H       1  UNL1        0.1551
     21 H           2.8020    1.2613    0.4405 H       1  UNL1        0.0588
     22 H           3.3183    1.2641   -1.2773 H       1  UNL1        0.0588
     23 H           5.1697   -0.2947   -0.7559 H       1  UNL1        0.0397
     24 H           4.6725   -0.2897    1.0146 H       1  UNL1        0.0397
     25 H           4.8980    2.9136    0.1921 H       1  UNL1        0.1017
     26 H           0.0516   -2.6839    2.5294 H       1  UNL1        0.2951
     27 H          -1.2600   -2.3544   -2.4956 H       1  UNL1        0.0810
     28 H          -3.6930   -1.4379   -2.6476 H       1  UNL1        0.1653
     29 H          -0.9325    1.0043    1.2506 H       1  UNL1        0.0624
     30 H          -2.7946    2.3893    1.8657 H       1  UNL1        0.0618
     31 H          -4.9061    2.1537    0.6307 H       1  UNL1        0.0618
     32 H          -5.1568    0.5568   -1.1946 H       1  UNL1        0.0638
@<TRIPOS>BOND
     1     1     2    1
     2     2     3    1
     3     3     4    1
     4     4     5    1
     5     5     6    1
     6     1     7    1
     7     7     8    1
     8     7     9    2
     9     1    10    1
    10    10    11   ar
    11    11    12   ar
    12    12    13   ar
    13    13    14   ar
    14    14    15   ar
    15    15    16   ar
    16    16    17   ar
    17    17    18   ar
    18    14    10   ar
    19    18    13   ar
    20     1    19    1
    21     2    20    1
    22     4    21    1
    23     4    22    1
    24     5    23    1
    25     5    24    1
    26     6    25    1
    27     8    26    1
    28    11    27    1
    29    12    28    1
    30    15    29    1
    31    16    30    1
    32    17    31    1
    33    18    32    1
