@<TRIPOS>MOLECULE
*****
 80 85 0 0 0
SMALL
GASTEIGER

@<TRIPOS>ATOM
      1 O           4.0048    0.1595   -0.9299 O.2     1  UNL1       -0.2724
      2 C           2.9430   -0.2565   -0.3536 C.2     1  UNL1        0.2474
      3 N           1.7331   -0.0795   -1.0550 N.am    1  UNL1       -0.2976
      4 C           1.6027    0.5623   -2.3835 C.3     1  UNL1        0.0163
      5 C           0.6027   -0.2867   -3.1276 C.3     1  UNL1       -0.0202
      6 C          -0.1647   -0.9484   -2.0284 C.3     1  UNL1        0.0250
      7 N          -1.5328   -1.1033   -2.2190 N.3     1  UNL1       -0.3090
      8 C          -2.3802   -0.0746   -2.6390 C.3     1  UNL1        0.0081
      9 C          -3.7889   -0.7013   -2.7395 C.3     1  UNL1       -0.0346
     10 C          -4.7110    0.2956   -3.3505 C.3     1  UNL1       -0.0170
     11 C          -4.8633    1.4379   -2.4063 C.3     1  UNL1        0.1077
     12 O          -5.6685    2.3971   -3.0489 O.3     1  UNL1       -0.3824
     13 C          -5.6788    0.9682   -1.2377 C.ar    1  UNL1        0.0727
     14 C          -7.0594    1.0713   -1.2398 C.ar    1  UNL1       -0.0369
     15 C          -7.8372    0.6466   -0.1788 C.ar    1  UNL1       -0.0478
     16 C          -7.2287    0.0973    0.9310 C.ar    1  UNL1        0.0372
     17 C          -8.0146   -0.3735    2.0868 C.ar    1  UNL1        0.1611
     18 N          -7.3423   -0.9015    3.1244 N.ar    1  UNL1       -0.2356
     19 C          -7.9418   -1.3669    4.2324 C.ar    1  UNL1        0.0314
     20 C          -9.3111   -1.2988    4.3066 C.ar    1  UNL1       -0.0254
     21 C          -9.9806   -0.7559    3.2367 C.ar    1  UNL1        0.0314
     22 N          -9.3361   -0.2948    2.1306 N.ar    1  UNL1       -0.2356
     23 C          -5.8542    0.0048    0.9113 C.ar    1  UNL1        0.0387
     24 N          -5.1188    0.4278   -0.1391 N.ar    1  UNL1       -0.2563
     25 C          -3.6010    2.0136   -1.8898 C.3     1  UNL1       -0.0170
     26 C          -2.4511    1.0802   -1.6986 C.3     1  UNL1       -0.0346
     27 C           0.3580   -0.4366   -0.7331 C.3     1  UNL1        0.0302
     28 C           3.1336   -0.8623    0.9646 C.3     1  UNL1        0.1444
     29 O           1.9608   -1.2495    1.6036 O.3     1  UNL1       -0.3792
     30 C           3.9826   -2.1136    0.8534 C.3     1  UNL1        0.0005
     31 C           5.3701   -1.8536    0.3819 C.3     1  UNL1        0.0166
     32 N           5.9841   -0.7336    1.0510 N.pl3   1  UNL1       -0.3150
     33 C           7.4140   -0.7550    1.1864 C.ar    1  UNL1        0.1217
     34 C           8.1101    0.3071    1.7092 C.ar    1  UNL1       -0.0101
     35 C           9.4985    0.2801    1.8447 C.ar    1  UNL1        0.0595
     36 C          10.2581    1.4209    2.4094 C.3     1  UNL1        0.4176
     37 F          10.8342    2.1897    1.4001 F       1  UNL1       -0.1659
     38 F          11.1924    1.0287    3.3329 F       1  UNL1       -0.1659
     39 F           9.3732    2.2731    3.0683 F       1  UNL1       -0.1659
     40 C          10.1585   -0.8349    1.4430 C.ar    1  UNL1       -0.0318
     41 C           9.4614   -1.9251    0.9080 C.ar    1  UNL1        0.0302
     42 N           8.1252   -1.8269    0.8082 N.ar    1  UNL1       -0.2403
     43 C           5.2465    0.3783    1.5806 C.3     1  UNL1        0.0166
     44 C           3.8210    0.0988    1.9136 C.3     1  UNL1        0.0005
     45 H           1.2362    1.5860   -2.1769 H       1  UNL1        0.0465
     46 H           2.5679    0.6529   -2.8849 H       1  UNL1        0.0465
     47 H          -0.0281    0.3065   -3.8159 H       1  UNL1        0.0296
     48 H           1.1705   -0.9853   -3.7710 H       1  UNL1        0.0296
     49 H           0.2490   -2.0416   -2.0569 H       1  UNL1        0.0476
     50 H          -1.9300   -2.0573   -2.1880 H       1  UNL1        0.1225
     51 H          -2.1468    0.3563   -3.6418 H       1  UNL1        0.0460
     52 H          -4.0552   -1.0034   -1.7080 H       1  UNL1        0.0281
     53 H          -3.6545   -1.6234   -3.3628 H       1  UNL1        0.0281
     54 H          -4.2724    0.5969   -4.3317 H       1  UNL1        0.0297
     55 H          -5.6835   -0.2086   -3.5294 H       1  UNL1        0.0297
     56 H          -5.0485    2.8636   -3.6895 H       1  UNL1        0.2107
     57 H          -7.5211    1.5039   -2.1167 H       1  UNL1        0.0637
     58 H          -8.9189    0.7233   -0.1727 H       1  UNL1        0.0626
     59 H          -7.3783   -1.7906    5.0624 H       1  UNL1        0.0831
     60 H          -9.8288   -1.6609    5.1758 H       1  UNL1        0.0648
     61 H         -11.0509   -0.6860    3.2603 H       1  UNL1        0.0831
     62 H          -5.3555   -0.4234    1.7740 H       1  UNL1        0.0837
     63 H          -3.7757    2.6213   -0.9517 H       1  UNL1        0.0297
     64 H          -3.2758    2.7973   -2.6374 H       1  UNL1        0.0297
     65 H          -2.5062    0.7349   -0.6352 H       1  UNL1        0.0281
     66 H          -1.5212    1.7207   -1.7528 H       1  UNL1        0.0281
     67 H           0.3351   -1.2590    0.0521 H       1  UNL1        0.0480
     68 H          -0.1747    0.4452   -0.3843 H       1  UNL1        0.0480
     69 H           1.6000   -0.5213    2.1846 H       1  UNL1        0.2108
     70 H           3.4811   -2.8025    0.1413 H       1  UNL1        0.0313
     71 H           3.9553   -2.6423    1.8438 H       1  UNL1        0.0313
     72 H           5.9689   -2.7743    0.5675 H       1  UNL1        0.0465
     73 H           5.3539   -1.7175   -0.7215 H       1  UNL1        0.0465
     74 H           7.6043    1.2029    2.0314 H       1  UNL1        0.0657
     75 H          11.2148   -0.9378    1.5110 H       1  UNL1        0.0638
     76 H           9.9594   -2.8259    0.5793 H       1  UNL1        0.0830
     77 H           5.7091    0.7775    2.5341 H       1  UNL1        0.0465
     78 H           5.3481    1.2323    0.8574 H       1  UNL1        0.0465
     79 H           3.7963   -0.3925    2.9295 H       1  UNL1        0.0313
     80 H           3.2725    1.0398    2.0037 H       1  UNL1        0.0313
@<TRIPOS>BOND
     1     1     2    2
     2     2     3   am
     3     3     4    1
     4     4     5    1
     5     5     6    1
     6     6     7    1
     7     7     8    1
     8     8     9    1
     9     9    10    1
    10    10    11    1
    11    11    12    1
    12    11    13    1
    13    13    14   ar
    14    14    15   ar
    15    15    16   ar
    16    16    17    1
    17    17    18   ar
    18    18    19   ar
    19    19    20   ar
    20    20    21   ar
    21    21    22   ar
    22    16    23   ar
    23    23    24   ar
    24    11    25    1
    25    25    26    1
    26     6    27    1
    27     2    28    1
    28    28    29    1
    29    28    30    1
    30    30    31    1
    31    31    32    1
    32    32    33    1
    33    33    34   ar
    34    34    35   ar
    35    35    36    1
    36    36    37    1
    37    36    38    1
    38    36    39    1
    39    35    40   ar
    40    40    41   ar
    41    41    42   ar
    42    32    43    1
    43    43    44    1
    44    27     3    1
    45    44    28    1
    46    26     8    1
    47    42    33   ar
    48    24    13   ar
    49    22    17   ar
    50     4    45    1
    51     4    46    1
    52     5    47    1
    53     5    48    1
    54     6    49    1
    55     7    50    1
    56     8    51    1
    57     9    52    1
    58     9    53    1
    59    10    54    1
    60    10    55    1
    61    12    56    1
    62    14    57    1
    63    15    58    1
    64    19    59    1
    65    20    60    1
    66    21    61    1
    67    23    62    1
    68    25    63    1
    69    25    64    1
    70    26    65    1
    71    26    66    1
    72    27    67    1
    73    27    68    1
    74    29    69    1
    75    30    70    1
    76    30    71    1
    77    31    72    1
    78    31    73    1
    79    34    74    1
    80    40    75    1
    81    41    76    1
    82    43    77    1
    83    43    78    1
    84    44    79    1
    85    44    80    1
