@<TRIPOS>MOLECULE
*****
 57 61 0 0 0
SMALL
GASTEIGER

@<TRIPOS>ATOM
      1 C           0.0187    0.3992    1.1193 C.3     1  UNL1       -0.0351
      2 C          -0.5988    1.3143    0.0430 C.3     1  UNL1        0.0935
      3 C           0.4870    1.6907   -0.9120 C.ar    1  UNL1        0.0158
      4 C           1.7476    1.1891   -0.7928 C.ar    1  UNL1       -0.0463
      5 C           2.8187    1.4954   -1.6122 C.ar    1  UNL1       -0.0217
      6 C           4.1332    0.9676   -1.4248 C.2     1  UNL1       -0.0171
      7 C           4.4500   -0.2762   -1.1115 C.2     1  UNL1        0.1506
      8 F           3.3267   -1.0954   -0.9609 F       1  UNL1       -0.2032
      9 C           5.7263   -0.8732   -0.9152 C.ar    1  UNL1        0.1170
     10 C           6.9316   -0.1932   -1.0530 C.ar    1  UNL1        0.0572
     11 N           8.1241   -0.7160   -0.8528 N.ar    1  UNL1       -0.2409
     12 C           8.1913   -2.0250   -0.4826 C.ar    1  UNL1        0.1581
     13 C           9.4119   -2.6679   -0.2140 C.1     1  UNL1        0.1206
     14 N          10.4636   -3.2088    0.0210 N.1     1  UNL1       -0.1892
     15 C           7.0304   -2.7297   -0.3398 C.ar    1  UNL1        0.0642
     16 N           5.8239   -2.1920   -0.5427 N.ar    1  UNL1       -0.2483
     17 C           2.5790    2.3955   -2.6473 C.ar    1  UNL1       -0.0518
     18 C           1.3204    2.9020   -2.7760 C.ar    1  UNL1       -0.0255
     19 C           0.2868    2.5969   -1.9694 C.ar    1  UNL1        0.1289
     20 F          -0.9543    3.0941   -2.0918 F       1  UNL1       -0.2051
     21 N          -0.9991    2.5563    0.6375 N.2     1  UNL1       -0.2521
     22 C          -2.0288    2.6836    1.3654 C.2     1  UNL1        0.1485
     23 N          -2.4563    3.8854    1.9681 N.pl3   1  UNL1       -0.3380
     24 S          -3.0239    1.2273    1.6390 S.3     1  UNL1       -0.0746
     25 C          -2.9121    0.2854    0.0667 C.3     1  UNL1        0.1054
     26 C          -3.7214   -0.9290    0.0148 C.2     1  UNL1        0.2326
     27 O          -4.1394   -1.2793   -1.1764 O.2     1  UNL1       -0.2741
     28 N          -4.0959   -1.7291    1.0593 N.am    1  UNL1       -0.2960
     29 C          -3.7465   -1.6129    2.4753 C.3     1  UNL1        0.0382
     30 C          -5.0481   -1.1506    3.1121 C.3     1  UNL1        0.0635
     31 O          -5.9473   -2.1745    2.9917 O.3     1  UNL1       -0.3767
     32 C          -6.2461   -2.6207    1.7413 C.3     1  UNL1        0.0635
     33 C          -5.0415   -2.8526    0.8420 C.3     1  UNL1        0.0382
     34 C          -2.8675    1.0967   -1.2094 C.3     1  UNL1       -0.0220
     35 C          -1.6552    0.5093   -0.6334 C.3     1  UNL1        0.0134
     36 H           0.3257   -0.5399    0.6361 H       1  UNL1        0.0256
     37 H          -0.7825    0.0877    1.8502 H       1  UNL1        0.0256
     38 H           0.8757    0.8428    1.6240 H       1  UNL1        0.0256
     39 H           1.9595    0.4535    0.0287 H       1  UNL1        0.0628
     40 H           5.0097    1.6350   -1.5369 H       1  UNL1        0.0653
     41 H           6.8972    0.8619   -1.3431 H       1  UNL1        0.0852
     42 H           7.0555   -3.7748   -0.0475 H       1  UNL1        0.0859
     43 H           3.4193    2.6099   -3.2872 H       1  UNL1        0.0624
     44 H           1.1441    3.6184   -3.6011 H       1  UNL1        0.0646
     45 H          -1.7812    4.4773    2.4781 H       1  UNL1        0.1442
     46 H          -3.4468    4.1651    1.8959 H       1  UNL1        0.1442
     47 H          -3.5825   -2.6406    2.8735 H       1  UNL1        0.0487
     48 H          -2.8804   -1.0074    2.6910 H       1  UNL1        0.0487
     49 H          -4.9503   -0.8286    4.1418 H       1  UNL1        0.0575
     50 H          -5.4872   -0.2844    2.5341 H       1  UNL1        0.0575
     51 H          -6.8395   -3.5299    1.8044 H       1  UNL1        0.0575
     52 H          -6.8249   -1.7943    1.2284 H       1  UNL1        0.0575
     53 H          -5.2726   -2.9942   -0.2014 H       1  UNL1        0.0487
     54 H          -4.5300   -3.7485    1.2298 H       1  UNL1        0.0487
     55 H          -3.1819    2.1475   -1.1278 H       1  UNL1        0.0287
     56 H          -3.3216    0.6109   -2.1119 H       1  UNL1        0.0287
     57 H          -1.1940   -0.3299   -1.2498 H       1  UNL1        0.0346
@<TRIPOS>BOND
     1     2     1    1
     2     2     3    1
     3     3     4   ar
     4     4     5   ar
     5     5     6    1
     6     6     7    2
     7     7     8    1
     8     7     9    1
     9     9    10   ar
    10    10    11   ar
    11    11    12   ar
    12    12    13    1
    13    13    14    3
    14    12    15   ar
    15    15    16   ar
    16     5    17   ar
    17    17    18   ar
    18    18    19   ar
    19    19    20    1
    20     2    21    1
    21    21    22    2
    22    22    23    1
    23    22    24    1
    24    24    25    1
    25    25    26    1
    26    26    27    2
    27    26    28   am
    28    28    29    1
    29    29    30    1
    30    30    31    1
    31    31    32    1
    32    32    33    1
    33    25    34    1
    34    34    35    1
    35    35     2    1
    36    19     3   ar
    37    35    25    1
    38    16     9   ar
    39    33    28    1
    40     1    36    1
    41     1    37    1
    42     1    38    1
    43     4    39    1
    44     6    40    1
    45    10    41    1
    46    15    42    1
    47    17    43    1
    48    18    44    1
    49    23    45    1
    50    23    46    1
    51    29    47    1
    52    29    48    1
    53    30    49    1
    54    30    50    1
    55    32    51    1
    56    32    52    1
    57    33    53    1
    58    33    54    1
    59    34    55    1
    60    34    56    1
    61    35    57    1
