
     RDKit          3D

 57 61  0  0  0  0  0  0  0  0999 V2000
    0.0187    0.3992    1.1193 C   0  0  0  0  0  0  0  0  0  0  0  0
   -0.5988    1.3143    0.0430 C   0  0  2  0  0  0  0  0  0  0  0  0
    0.4870    1.6907   -0.9120 C   0  0  0  0  0  0  0  0  0  0  0  0
    1.7476    1.1891   -0.7928 C   0  0  0  0  0  0  0  0  0  0  0  0
    2.8187    1.4954   -1.6122 C   0  0  0  0  0  0  0  0  0  0  0  0
    4.1332    0.9676   -1.4248 C   0  0  0  0  0  0  0  0  0  0  0  0
    4.4500   -0.2762   -1.1115 C   0  0  0  0  0  0  0  0  0  0  0  0
    3.3267   -1.0954   -0.9609 F   0  0  0  0  0  0  0  0  0  0  0  0
    5.7263   -0.8732   -0.9152 C   0  0  0  0  0  0  0  0  0  0  0  0
    6.9316   -0.1932   -1.0530 C   0  0  0  0  0  0  0  0  0  0  0  0
    8.1241   -0.7160   -0.8528 N   0  0  0  0  0  0  0  0  0  0  0  0
    8.1913   -2.0250   -0.4826 C   0  0  0  0  0  0  0  0  0  0  0  0
    9.4119   -2.6679   -0.2140 C   0  0  0  0  0  0  0  0  0  0  0  0
   10.4636   -3.2088    0.0210 N   0  0  0  0  0  0  0  0  0  0  0  0
    7.0304   -2.7297   -0.3398 C   0  0  0  0  0  0  0  0  0  0  0  0
    5.8239   -2.1920   -0.5427 N   0  0  0  0  0  0  0  0  0  0  0  0
    2.5790    2.3955   -2.6473 C   0  0  0  0  0  0  0  0  0  0  0  0
    1.3204    2.9020   -2.7760 C   0  0  0  0  0  0  0  0  0  0  0  0
    0.2868    2.5969   -1.9694 C   0  0  0  0  0  0  0  0  0  0  0  0
   -0.9543    3.0941   -2.0918 F   0  0  0  0  0  0  0  0  0  0  0  0
   -0.9991    2.5563    0.6375 N   0  0  0  0  0  0  0  0  0  0  0  0
   -2.0288    2.6836    1.3654 C   0  0  0  0  0  0  0  0  0  0  0  0
   -2.4563    3.8854    1.9681 N   0  0  0  0  0  0  0  0  0  0  0  0
   -3.0239    1.2273    1.6390 S   0  0  0  0  0  0  0  0  0  0  0  0
   -2.9121    0.2854    0.0667 C   0  0  1  0  0  0  0  0  0  0  0  0
   -3.7214   -0.9290    0.0148 C   0  0  0  0  0  0  0  0  0  0  0  0
   -4.1394   -1.2793   -1.1764 O   0  0  0  0  0  0  0  0  0  0  0  0
   -4.0959   -1.7291    1.0593 N   0  0  0  0  0  0  0  0  0  0  0  0
   -3.7465   -1.6129    2.4753 C   0  0  0  0  0  0  0  0  0  0  0  0
   -5.0481   -1.1506    3.1121 C   0  0  0  0  0  0  0  0  0  0  0  0
   -5.9473   -2.1745    2.9917 O   0  0  0  0  0  0  0  0  0  0  0  0
   -6.2461   -2.6207    1.7413 C   0  0  0  0  0  0  0  0  0  0  0  0
   -5.0415   -2.8526    0.8420 C   0  0  0  0  0  0  0  0  0  0  0  0
   -2.8675    1.0967   -1.2094 C   0  0  0  0  0  0  0  0  0  0  0  0
   -1.6552    0.5093   -0.6334 C   0  0  1  0  0  0  0  0  0  0  0  0
    0.3257   -0.5399    0.6361 H   0  0  0  0  0  0  0  0  0  0  0  0
   -0.7825    0.0877    1.8502 H   0  0  0  0  0  0  0  0  0  0  0  0
    0.8757    0.8428    1.6240 H   0  0  0  0  0  0  0  0  0  0  0  0
    1.9595    0.4535    0.0287 H   0  0  0  0  0  0  0  0  0  0  0  0
    5.0097    1.6350   -1.5369 H   0  0  0  0  0  0  0  0  0  0  0  0
    6.8972    0.8619   -1.3431 H   0  0  0  0  0  0  0  0  0  0  0  0
    7.0555   -3.7748   -0.0475 H   0  0  0  0  0  0  0  0  0  0  0  0
    3.4193    2.6099   -3.2872 H   0  0  0  0  0  0  0  0  0  0  0  0
    1.1441    3.6184   -3.6011 H   0  0  0  0  0  0  0  0  0  0  0  0
   -1.7812    4.4773    2.4781 H   0  0  0  0  0  0  0  0  0  0  0  0
   -3.4468    4.1651    1.8959 H   0  0  0  0  0  0  0  0  0  0  0  0
   -3.5825   -2.6406    2.8735 H   0  0  0  0  0  0  0  0  0  0  0  0
   -2.8804   -1.0074    2.6910 H   0  0  0  0  0  0  0  0  0  0  0  0
   -4.9503   -0.8286    4.1418 H   0  0  0  0  0  0  0  0  0  0  0  0
   -5.4872   -0.2844    2.5341 H   0  0  0  0  0  0  0  0  0  0  0  0
   -6.8395   -3.5299    1.8044 H   0  0  0  0  0  0  0  0  0  0  0  0
   -6.8249   -1.7943    1.2284 H   0  0  0  0  0  0  0  0  0  0  0  0
   -5.2726   -2.9942   -0.2014 H   0  0  0  0  0  0  0  0  0  0  0  0
   -4.5300   -3.7485    1.2298 H   0  0  0  0  0  0  0  0  0  0  0  0
   -3.1819    2.1475   -1.1278 H   0  0  0  0  0  0  0  0  0  0  0  0
   -3.3216    0.6109   -2.1119 H   0  0  0  0  0  0  0  0  0  0  0  0
   -1.1940   -0.3299   -1.2498 H   0  0  0  0  0  0  0  0  0  0  0  0
  2  1  1  1
  2  3  1  0
  3  4  2  0
  4  5  1  0
  5  6  1  0
  6  7  2  0
  7  8  1  0
  7  9  1  0
  9 10  2  0
 10 11  1  0
 11 12  2  0
 12 13  1  0
 13 14  3  0
 12 15  1  0
 15 16  2  0
  5 17  2  0
 17 18  1  0
 18 19  2  0
 19 20  1  0
  2 21  1  0
 21 22  2  0
 22 23  1  0
 22 24  1  0
 24 25  1  0
 25 26  1  6
 26 27  2  0
 26 28  1  0
 28 29  1  0
 29 30  1  0
 30 31  1  0
 31 32  1  0
 32 33  1  0
 25 34  1  0
 34 35  1  0
 35  2  1  0
 19  3  1  0
 35 25  1  0
 16  9  1  0
 33 28  1  0
  1 36  1  0
  1 37  1  0
  1 38  1  0
  4 39  1  0
  6 40  1  0
 10 41  1  0
 15 42  1  0
 17 43  1  0
 18 44  1  0
 23 45  1  0
 23 46  1  0
 29 47  1  0
 29 48  1  0
 30 49  1  0
 30 50  1  0
 32 51  1  0
 32 52  1  0
 33 53  1  0
 33 54  1  0
 34 55  1  0
 34 56  1  0
 35 57  1  6
M  END
$$$$
