@<TRIPOS>MOLECULE
*****
 27 26 0 0 0
SMALL
GASTEIGER

@<TRIPOS>ATOM
      1 C           3.9291    0.7642    0.0033 C.3     1  UNL1       -0.0410
      2 C           2.5672    0.1553   -0.2784 C.3     1  UNL1        0.0553
      3 O           1.5820    1.0822   -0.5074 O.3     1  UNL1       -0.2965
      4 P           0.1050    0.3902   -0.9708 P.3     1  UNL1        0.4081
      5 O           0.4062   -1.0523   -1.8447 O.3     1  UNL1       -0.3121
      6 O          -0.5160    1.3516   -1.9484 O.2     1  UNL1       -0.2398
      7 N          -0.8070    0.0246    0.4043 N.3     1  UNL1       -0.2093
      8 C          -2.0262    0.6903    0.6523 C.3     1  UNL1        0.0065
      9 C          -2.1839    2.0807    0.1574 C.3     1  UNL1       -0.0518
     10 C          -0.7165   -1.3155    0.8967 C.3     1  UNL1        0.0065
     11 C          -1.6256   -2.2803    0.1721 C.3     1  UNL1       -0.0518
     12 H           4.6506   -0.0722    0.0783 H       1  UNL1        0.0252
     13 H           4.2342    1.5261   -0.7348 H       1  UNL1        0.0252
     14 H           3.9350    1.2514    0.9999 H       1  UNL1        0.0252
     15 H           2.6279   -0.6645   -1.0313 H       1  UNL1        0.0562
     16 H           2.2808   -0.3577    0.6863 H       1  UNL1        0.0562
     17 H          -0.2400   -1.1154   -2.6038 H       1  UNL1        0.2210
     18 H          -2.2137    0.7011    1.7571 H       1  UNL1        0.0429
     19 H          -2.8646    0.0832    0.2411 H       1  UNL1        0.0429
     20 H          -2.4882    2.1737   -0.9093 H       1  UNL1        0.0242
     21 H          -1.3253    2.7458    0.4010 H       1  UNL1        0.0242
     22 H          -3.0566    2.5321    0.7185 H       1  UNL1        0.0242
     23 H          -1.0400   -1.3176    1.9546 H       1  UNL1        0.0429
     24 H           0.3161   -1.7079    0.8421 H       1  UNL1        0.0429
     25 H          -2.6360   -2.2390    0.6343 H       1  UNL1        0.0242
     26 H          -1.6544   -2.1254   -0.9204 H       1  UNL1        0.0242
     27 H          -1.2402   -3.3046    0.3531 H       1  UNL1        0.0242
@<TRIPOS>BOND
     1     1     2    1
     2     2     3    1
     3     4     3    1
     4     4     5    1
     5     4     6    2
     6     4     7    1
     7     7     8    1
     8     8     9    1
     9     7    10    1
    10    10    11    1
    11     1    12    1
    12     1    13    1
    13     1    14    1
    14     2    15    1
    15     2    16    1
    16     5    17    1
    17     8    18    1
    18     8    19    1
    19     9    20    1
    20     9    21    1
    21     9    22    1
    22    10    23    1
    23    10    24    1
    24    11    25    1
    25    11    26    1
    26    11    27    1
