
     RDKit          3D

 27 26  0  0  0  0  0  0  0  0999 V2000
    3.9291    0.7642    0.0033 C   0  0  0  0  0  0  0  0  0  0  0  0
    2.5672    0.1553   -0.2784 C   0  0  0  0  0  0  0  0  0  0  0  0
    1.5820    1.0822   -0.5074 O   0  0  0  0  0  0  0  0  0  0  0  0
    0.1050    0.3902   -0.9708 P   0  0  2  0  0  5  0  0  0  0  0  0
    0.4062   -1.0523   -1.8447 O   0  0  0  0  0  0  0  0  0  0  0  0
   -0.5160    1.3516   -1.9484 O   0  0  0  0  0  0  0  0  0  0  0  0
   -0.8070    0.0246    0.4043 N   0  0  0  0  0  0  0  0  0  0  0  0
   -2.0262    0.6903    0.6523 C   0  0  0  0  0  0  0  0  0  0  0  0
   -2.1839    2.0807    0.1574 C   0  0  0  0  0  0  0  0  0  0  0  0
   -0.7165   -1.3155    0.8967 C   0  0  0  0  0  0  0  0  0  0  0  0
   -1.6256   -2.2803    0.1721 C   0  0  0  0  0  0  0  0  0  0  0  0
    4.6506   -0.0722    0.0783 H   0  0  0  0  0  0  0  0  0  0  0  0
    4.2342    1.5261   -0.7348 H   0  0  0  0  0  0  0  0  0  0  0  0
    3.9350    1.2514    0.9999 H   0  0  0  0  0  0  0  0  0  0  0  0
    2.6279   -0.6645   -1.0313 H   0  0  0  0  0  0  0  0  0  0  0  0
    2.2808   -0.3577    0.6863 H   0  0  0  0  0  0  0  0  0  0  0  0
   -0.2400   -1.1154   -2.6038 H   0  0  0  0  0  0  0  0  0  0  0  0
   -2.2137    0.7011    1.7571 H   0  0  0  0  0  0  0  0  0  0  0  0
   -2.8646    0.0832    0.2411 H   0  0  0  0  0  0  0  0  0  0  0  0
   -2.4882    2.1737   -0.9093 H   0  0  0  0  0  0  0  0  0  0  0  0
   -1.3253    2.7458    0.4010 H   0  0  0  0  0  0  0  0  0  0  0  0
   -3.0566    2.5321    0.7185 H   0  0  0  0  0  0  0  0  0  0  0  0
   -1.0400   -1.3176    1.9546 H   0  0  0  0  0  0  0  0  0  0  0  0
    0.3161   -1.7079    0.8421 H   0  0  0  0  0  0  0  0  0  0  0  0
   -2.6360   -2.2390    0.6343 H   0  0  0  0  0  0  0  0  0  0  0  0
   -1.6544   -2.1254   -0.9204 H   0  0  0  0  0  0  0  0  0  0  0  0
   -1.2402   -3.3046    0.3531 H   0  0  0  0  0  0  0  0  0  0  0  0
  1  2  1  0
  2  3  1  0
  4  3  1  1
  4  5  1  0
  4  6  2  0
  4  7  1  0
  7  8  1  0
  8  9  1  0
  7 10  1  0
 10 11  1  0
  1 12  1  0
  1 13  1  0
  1 14  1  0
  2 15  1  0
  2 16  1  0
  5 17  1  0
  8 18  1  0
  8 19  1  0
  9 20  1  0
  9 21  1  0
  9 22  1  0
 10 23  1  0
 10 24  1  0
 11 25  1  0
 11 26  1  0
 11 27  1  0
M  END
$$$$
