
     RDKit          3D

 71 76  0  0  0  0  0  0  0  0999 V2000
    6.7496   -6.1181    2.2767 C   0  0  0  0  0  0  0  0  0  0  0  0
    6.0772   -5.2583    3.1689 O   0  0  0  0  0  0  0  0  0  0  0  0
    5.3326   -4.1696    2.7551 C   0  0  0  0  0  0  0  0  0  0  0  0
    4.6925   -3.3495    3.5914 N   0  0  0  0  0  0  0  0  0  0  0  0
    3.9642   -2.2851    3.1860 C   0  0  0  0  0  0  0  0  0  0  0  0
    3.8785   -2.0326    1.8229 C   0  0  0  0  0  0  0  0  0  0  0  0
    3.0922   -0.8853    1.3651 C   0  0  0  0  0  0  0  0  0  0  0  0
    2.2360   -1.0955    0.2865 C   0  0  0  0  0  0  0  0  0  0  0  0
    1.4997   -0.0107   -0.1355 C   0  0  0  0  0  0  0  0  0  0  0  0
    1.5660    1.2385    0.4405 C   0  0  0  0  0  0  0  0  0  0  0  0
    0.7947    2.3104   -0.0253 C   0  0  0  0  0  0  0  0  0  0  0  0
   -0.0579    2.0827   -1.1228 N   0  0  0  0  0  0  0  0  0  0  0  0
   -1.3541    1.5106   -0.9224 C   0  0  0  0  0  0  0  0  0  0  0  0
   -2.1983    1.2816   -1.9903 C   0  0  0  0  0  0  0  0  0  0  0  0
   -3.4597    0.7192   -1.7891 C   0  0  0  0  0  0  0  0  0  0  0  0
   -4.3351    0.4742   -2.8386 O   0  0  0  0  0  0  0  0  0  0  0  0
   -4.3355   -0.7453   -3.5205 C   0  0  0  0  0  0  0  0  0  0  0  0
   -3.4777   -1.7776   -3.2046 C   0  0  0  0  0  0  0  0  0  0  0  0
   -3.4985   -2.9730   -3.8944 C   0  0  0  0  0  0  0  0  0  0  0  0
   -2.6582   -3.9871   -3.5871 F   0  0  0  0  0  0  0  0  0  0  0  0
   -4.3904   -3.1697   -4.9326 C   0  0  0  0  0  0  0  0  0  0  0  0
   -5.2518   -2.1536   -5.2613 C   0  0  0  0  0  0  0  0  0  0  0  0
   -6.1157   -2.3639   -6.2781 F   0  0  0  0  0  0  0  0  0  0  0  0
   -5.2186   -0.9554   -4.5572 C   0  0  0  0  0  0  0  0  0  0  0  0
   -3.8648    0.3913   -0.5218 C   0  0  0  0  0  0  0  0  0  0  0  0
   -3.0349    0.6158    0.5340 C   0  0  0  0  0  0  0  0  0  0  0  0
   -3.4256    0.2840    1.8905 C   0  0  0  0  0  0  0  0  0  0  0  0
   -4.5415   -0.2172    2.1043 O   0  0  0  0  0  0  0  0  0  0  0  0
   -2.5796    0.5145    2.9540 O   0  0  0  0  0  0  0  0  0  0  0  0
   -1.7729    1.1771    0.3443 C   0  0  0  0  0  0  0  0  0  0  0  0
    0.8568    3.5574    0.5465 C   0  0  0  0  0  0  0  0  0  0  0  0
   -0.0725    4.9300    0.0119 S   0  0  0  0  0  6  0  0  0  0  0  0
    0.2579    5.2938   -1.4186 O   0  0  0  0  0  0  0  0  0  0  0  0
    0.3012    6.1626    0.8228 O   0  0  0  0  0  0  0  0  0  0  0  0
   -1.7543    4.7338    0.1172 N   0  0  0  0  0  0  0  0  0  0  0  0
   -2.2604    4.5173    1.4366 C   0  0  0  0  0  0  0  0  0  0  0  0
   -3.5136    3.7664    1.6919 C   0  0  0  0  0  0  0  0  0  0  0  0
   -3.5435    5.2374    1.7874 C   0  0  0  0  0  0  0  0  0  0  0  0
    1.7436    3.6804    1.6254 C   0  0  0  0  0  0  0  0  0  0  0  0
    2.4778    2.6421    2.0620 N   0  0  0  0  0  0  0  0  0  0  0  0
    2.4184    1.4219    1.5039 C   0  0  0  0  0  0  0  0  0  0  0  0
    3.1845    0.3515    1.9663 C   0  0  0  0  0  0  0  0  0  0  0  0
    4.5316   -2.8685    0.9625 C   0  0  0  0  0  0  0  0  0  0  0  0
    4.4598   -2.6360   -0.3941 O   0  0  0  0  0  0  0  0  0  0  0  0
    5.1191   -3.4758   -1.3091 C   0  0  0  0  0  0  0  0  0  0  0  0
    5.2325   -3.8998    1.4243 N   0  0  0  0  0  0  0  0  0  0  0  0
    6.1109   -6.9919    2.0176 H   0  0  0  0  0  0  0  0  0  0  0  0
    7.6519   -6.5185    2.8128 H   0  0  0  0  0  0  0  0  0  0  0  0
    7.0708   -5.5875    1.3549 H   0  0  0  0  0  0  0  0  0  0  0  0
    3.4585   -1.6416    3.8914 H   0  0  0  0  0  0  0  0  0  0  0  0
    2.1761   -2.0737   -0.1733 H   0  0  0  0  0  0  0  0  0  0  0  0
    0.8295   -0.1465   -0.9684 H   0  0  0  0  0  0  0  0  0  0  0  0
    0.2469    2.3273   -2.0798 H   0  0  0  0  0  0  0  0  0  0  0  0
   -1.8751    1.5402   -2.9753 H   0  0  0  0  0  0  0  0  0  0  0  0
   -2.7674   -1.6288   -2.3827 H   0  0  0  0  0  0  0  0  0  0  0  0
   -4.3901   -4.1139   -5.4599 H   0  0  0  0  0  0  0  0  0  0  0  0
   -5.9055   -0.1721   -4.8355 H   0  0  0  0  0  0  0  0  0  0  0  0
   -4.8344   -0.0402   -0.3762 H   0  0  0  0  0  0  0  0  0  0  0  0
   -2.8530    0.4054    3.9224 H   0  0  0  0  0  0  0  0  0  0  0  0
   -1.1121    1.3596    1.1559 H   0  0  0  0  0  0  0  0  0  0  0  0
   -2.2117    4.2395   -0.6453 H   0  0  0  0  0  0  0  0  0  0  0  0
   -1.5206    4.4928    2.2789 H   0  0  0  0  0  0  0  0  0  0  0  0
   -3.5883    3.1650    2.6249 H   0  0  0  0  0  0  0  0  0  0  0  0
   -4.0812    3.3003    0.8485 H   0  0  0  0  0  0  0  0  0  0  0  0
   -4.0584    5.8332    1.0108 H   0  0  0  0  0  0  0  0  0  0  0  0
   -3.6262    5.7008    2.7945 H   0  0  0  0  0  0  0  0  0  0  0  0
    1.8402    4.6466    2.1246 H   0  0  0  0  0  0  0  0  0  0  0  0
    3.8485    0.5196    2.8048 H   0  0  0  0  0  0  0  0  0  0  0  0
    4.4047   -3.6836   -2.1336 H   0  0  0  0  0  0  0  0  0  0  0  0
    5.4005   -4.4487   -0.8808 H   0  0  0  0  0  0  0  0  0  0  0  0
    6.0343   -2.9504   -1.7071 H   0  0  0  0  0  0  0  0  0  0  0  0
  1  2  1  0
  2  3  1  0
  3  4  2  0
  4  5  1  0
  5  6  2  0
  6  7  1  0
  7  8  2  0
  8  9  1  0
  9 10  2  0
 10 11  1  0
 11 12  1  0
 12 13  1  0
 13 14  2  0
 14 15  1  0
 15 16  1  0
 16 17  1  0
 17 18  2  0
 18 19  1  0
 19 20  1  0
 19 21  2  0
 21 22  1  0
 22 23  1  0
 22 24  2  0
 15 25  2  0
 25 26  1  0
 26 27  1  0
 27 28  2  0
 27 29  1  0
 26 30  2  0
 11 31  2  0
 31 32  1  0
 32 33  2  0
 32 34  2  0
 32 35  1  0
 35 36  1  0
 36 37  1  0
 37 38  1  0
 31 39  1  0
 39 40  2  0
 40 41  1  0
 41 42  2  0
  6 43  1  0
 43 44  1  0
 44 45  1  0
 43 46  2  0
 46  3  1  0
 42  7  1  0
 41 10  1  0
 30 13  1  0
 38 36  1  0
 24 17  1  0
  1 47  1  0
  1 48  1  0
  1 49  1  0
  5 50  1  0
  8 51  1  0
  9 52  1  0
 12 53  1  0
 14 54  1  0
 18 55  1  0
 21 56  1  0
 24 57  1  0
 25 58  1  0
 29 59  1  0
 30 60  1  0
 35 61  1  0
 36 62  1  0
 37 63  1  0
 37 64  1  0
 38 65  1  0
 38 66  1  0
 39 67  1  0
 42 68  1  0
 45 69  1  0
 45 70  1  0
 45 71  1  0
M  END
$$$$
