@<TRIPOS>MOLECULE
*****
 71 76 0 0 0
SMALL
GASTEIGER

@<TRIPOS>ATOM
      1 C           6.7496   -6.1181    2.2767 C.3     1  UNL1        0.0819
      2 O           6.0772   -5.2583    3.1689 O.3     1  UNL1       -0.4657
      3 C           5.3326   -4.1696    2.7551 C.ar    1  UNL1        0.3208
      4 N           4.6925   -3.3495    3.5914 N.ar    1  UNL1       -0.2025
      5 C           3.9642   -2.2851    3.1860 C.ar    1  UNL1        0.0457
      6 C           3.8785   -2.0326    1.8229 C.ar    1  UNL1        0.0620
      7 C           3.0922   -0.8853    1.3651 C.ar    1  UNL1       -0.0093
      8 C           2.2360   -1.0955    0.2865 C.ar    1  UNL1       -0.0531
      9 C           1.4997   -0.0107   -0.1355 C.ar    1  UNL1       -0.0501
     10 C           1.5660    1.2385    0.4405 C.ar    1  UNL1        0.0235
     11 C           0.7947    2.3104   -0.0253 C.ar    1  UNL1        0.0688
     12 N          -0.0579    2.0827   -1.1228 N.pl3   1  UNL1       -0.3123
     13 C          -1.3541    1.5106   -0.9224 C.ar    1  UNL1        0.0356
     14 C          -2.1983    1.2816   -1.9903 C.ar    1  UNL1        0.0019
     15 C          -3.4597    0.7192   -1.7891 C.ar    1  UNL1        0.1310
     16 O          -4.3351    0.4742   -2.8386 O.3     1  UNL1       -0.4558
     17 C          -4.3355   -0.7453   -3.5205 C.ar    1  UNL1        0.1339
     18 C          -3.4777   -1.7776   -3.2046 C.ar    1  UNL1        0.0161
     19 C          -3.4985   -2.9730   -3.8944 C.ar    1  UNL1        0.1296
     20 F          -2.6582   -3.9871   -3.5871 F       1  UNL1       -0.2053
     21 C          -4.3904   -3.1697   -4.9326 C.ar    1  UNL1        0.0090
     22 C          -5.2518   -2.1536   -5.2613 C.ar    1  UNL1        0.1296
     23 F          -6.1157   -2.3639   -6.2781 F       1  UNL1       -0.2053
     24 C          -5.2186   -0.9554   -4.5572 C.ar    1  UNL1        0.0161
     25 C          -3.8648    0.3913   -0.5218 C.ar    1  UNL1       -0.0052
     26 C          -3.0349    0.6158    0.5340 C.ar    1  UNL1        0.0640
     27 C          -3.4256    0.2840    1.8905 C.2     1  UNL1        0.3370
     28 O          -4.5415   -0.2172    2.1043 O.2     1  UNL1       -0.2451
     29 O          -2.5796    0.5145    2.9540 O.3     1  UNL1       -0.4771
     30 C          -1.7729    1.1771    0.3443 C.ar    1  UNL1       -0.0263
     31 C           0.8568    3.5574    0.5465 C.ar    1  UNL1        0.1449
     32 S          -0.0725    4.9300    0.0119 S.O2    1  UNL1        0.0619
     33 O           0.2579    5.2938   -1.4186 O.2     1  UNL1       -0.1529
     34 O           0.3012    6.1626    0.8228 O.2     1  UNL1       -0.1529
     35 N          -1.7543    4.7338    0.1172 N.3     1  UNL1       -0.1868
     36 C          -2.2604    4.5173    1.4366 C.3     1  UNL1        0.0289
     37 C          -3.5136    3.7664    1.6919 C.3     1  UNL1       -0.0345
     38 C          -3.5435    5.2374    1.7874 C.3     1  UNL1       -0.0345
     39 C           1.7436    3.6804    1.6254 C.ar    1  UNL1        0.0564
     40 N           2.4778    2.6421    2.0620 N.ar    1  UNL1       -0.2529
     41 C           2.4184    1.4219    1.5039 C.ar    1  UNL1        0.0734
     42 C           3.1845    0.3515    1.9663 C.ar    1  UNL1       -0.0277
     43 C           4.5316   -2.8685    0.9625 C.ar    1  UNL1        0.2283
     44 O           4.4598   -2.6360   -0.3941 O.3     1  UNL1       -0.4791
     45 C           5.1191   -3.4758   -1.3091 C.3     1  UNL1        0.0804
     46 N           5.2325   -3.8998    1.4243 N.ar    1  UNL1       -0.1591
     47 H           6.1109   -6.9919    2.0176 H       1  UNL1        0.0661
     48 H           7.6519   -6.5185    2.8128 H       1  UNL1        0.0661
     49 H           7.0708   -5.5875    1.3549 H       1  UNL1        0.0661
     50 H           3.4585   -1.6416    3.8914 H       1  UNL1        0.0839
     51 H           2.1761   -2.0737   -0.1733 H       1  UNL1        0.0624
     52 H           0.8295   -0.1465   -0.9684 H       1  UNL1        0.0625
     53 H           0.2469    2.3273   -2.0798 H       1  UNL1        0.1522
     54 H          -1.8751    1.5402   -2.9753 H       1  UNL1        0.0673
     55 H          -2.7674   -1.6288   -2.3827 H       1  UNL1        0.0683
     56 H          -4.3901   -4.1139   -5.4599 H       1  UNL1        0.0675
     57 H          -5.9055   -0.1721   -4.8355 H       1  UNL1        0.0683
     58 H          -4.8344   -0.0402   -0.3762 H       1  UNL1        0.0662
     59 H          -2.8530    0.4054    3.9224 H       1  UNL1        0.2954
     60 H          -1.1121    1.3596    1.1559 H       1  UNL1        0.0644
     61 H          -2.2117    4.2395   -0.6453 H       1  UNL1        0.1483
     62 H          -1.5206    4.4928    2.2789 H       1  UNL1        0.0477
     63 H          -3.5883    3.1650    2.6249 H       1  UNL1        0.0281
     64 H          -4.0812    3.3003    0.8485 H       1  UNL1        0.0281
     65 H          -4.0584    5.8332    1.0108 H       1  UNL1        0.0281
     66 H          -3.6262    5.7008    2.7945 H       1  UNL1        0.0281
     67 H           1.8402    4.6466    2.1246 H       1  UNL1        0.0850
     68 H           3.8485    0.5196    2.8048 H       1  UNL1        0.0645
     69 H           4.4047   -3.6836   -2.1336 H       1  UNL1        0.0660
     70 H           5.4005   -4.4487   -0.8808 H       1  UNL1        0.0660
     71 H           6.0343   -2.9504   -1.7071 H       1  UNL1        0.0660
@<TRIPOS>BOND
     1     1     2    1
     2     2     3    1
     3     3     4   ar
     4     4     5   ar
     5     5     6   ar
     6     6     7    1
     7     7     8   ar
     8     8     9   ar
     9     9    10   ar
    10    10    11   ar
    11    11    12    1
    12    12    13    1
    13    13    14   ar
    14    14    15   ar
    15    15    16    1
    16    16    17    1
    17    17    18   ar
    18    18    19   ar
    19    19    20    1
    20    19    21   ar
    21    21    22   ar
    22    22    23    1
    23    22    24   ar
    24    15    25   ar
    25    25    26   ar
    26    26    27    1
    27    27    28    2
    28    27    29    1
    29    26    30   ar
    30    11    31   ar
    31    31    32    1
    32    32    33    2
    33    32    34    2
    34    32    35    1
    35    35    36    1
    36    36    37    1
    37    37    38    1
    38    31    39   ar
    39    39    40   ar
    40    40    41   ar
    41    41    42   ar
    42     6    43   ar
    43    43    44    1
    44    44    45    1
    45    43    46   ar
    46    46     3   ar
    47    42     7   ar
    48    41    10   ar
    49    30    13   ar
    50    38    36    1
    51    24    17   ar
    52     1    47    1
    53     1    48    1
    54     1    49    1
    55     5    50    1
    56     8    51    1
    57     9    52    1
    58    12    53    1
    59    14    54    1
    60    18    55    1
    61    21    56    1
    62    24    57    1
    63    25    58    1
    64    29    59    1
    65    30    60    1
    66    35    61    1
    67    36    62    1
    68    37    63    1
    69    37    64    1
    70    38    65    1
    71    38    66    1
    72    39    67    1
    73    42    68    1
    74    45    69    1
    75    45    70    1
    76    45    71    1
