
     RDKit          3D

 61 63  0  0  0  0  0  0  0  0999 V2000
   -6.4964    1.2879   -1.6288 C   0  0  0  0  0  0  0  0  0  0  0  0
   -5.2486    1.4489   -0.7372 C   0  0  0  0  0  0  0  0  0  0  0  0
   -5.4880    0.7919    0.5915 C   0  0  0  0  0  0  0  0  0  0  0  0
   -4.1860    0.9316    1.7350 S   0  0  0  0  0  6  0  0  0  0  0  0
   -3.9282    2.3835    2.1177 O   0  0  0  0  0  0  0  0  0  0  0  0
   -4.5906    0.2404    3.0394 O   0  0  0  0  0  0  0  0  0  0  0  0
   -2.6842    0.2677    1.2873 N   0  0  0  0  0  0  0  0  0  0  0  0
   -2.1390    0.8935    0.1382 C   0  0  0  0  0  0  0  0  0  0  0  0
   -0.6551    1.1222    0.1994 C   0  0  0  0  0  0  0  0  0  0  0  0
    0.1065    0.0373    0.9125 C   0  0  0  0  0  0  0  0  0  0  0  0
    1.5013    0.5459    1.2932 C   0  0  0  0  0  0  0  0  0  0  0  0
    2.2540    0.9361    0.1371 N   0  0  0  0  0  0  0  0  0  0  0  0
    3.5754    1.4384    0.2556 C   0  0  0  0  0  0  0  0  0  0  0  0
    4.1430    1.5620    1.3926 O   0  0  0  0  0  0  0  0  0  0  0  0
    4.3643    1.8428   -0.9027 C   0  0  0  0  0  0  0  0  0  0  0  0
    4.6809    0.8784   -1.8361 C   0  0  0  0  0  0  0  0  0  0  0  0
    5.4270    1.1770   -2.9660 C   0  0  0  0  0  0  0  0  0  0  0  0
    5.8582    2.4789   -3.1490 C   0  0  0  0  0  0  0  0  0  0  0  0
    6.5977    2.7858   -4.2643 F   0  0  0  0  0  0  0  0  0  0  0  0
    5.5441    3.4498   -2.2170 C   0  0  0  0  0  0  0  0  0  0  0  0
    4.7954    3.1370   -1.0889 C   0  0  0  0  0  0  0  0  0  0  0  0
    4.3774    4.3332    0.1120 Cl  0  0  0  0  0  0  0  0  0  0  0  0
    0.3290   -1.0703   -0.0561 C   0  0  0  0  0  0  0  0  0  0  0  0
   -0.0932   -0.8343   -1.2489 O   0  0  0  0  0  0  0  0  0  0  0  0
    0.9365   -2.3113    0.1942 N   0  0  0  0  0  0  0  0  0  0  0  0
    1.4598   -2.8065    1.4346 C   0  0  0  0  0  0  0  0  0  0  0  0
    0.8552   -4.2154    1.6177 C   0  0  0  0  0  0  0  0  0  0  0  0
    1.4373   -4.9927    0.6424 O   0  0  0  0  0  0  0  0  0  0  0  0
    1.0508   -4.6534   -0.6365 C   0  0  0  0  0  0  0  0  0  0  0  0
    1.0687   -3.2134   -0.9501 C   0  0  0  0  0  0  0  0  0  0  0  0
   -0.5898   -0.4354    2.1364 C   0  0  0  0  0  0  0  0  0  0  0  0
   -1.7732    0.4655    2.4068 C   0  0  0  0  0  0  0  0  0  0  0  0
   -7.4038    1.5281   -1.0392 H   0  0  0  0  0  0  0  0  0  0  0  0
   -6.5843    0.2202   -1.9201 H   0  0  0  0  0  0  0  0  0  0  0  0
   -6.3608    1.9647   -2.4956 H   0  0  0  0  0  0  0  0  0  0  0  0
   -4.4431    0.9348   -1.3133 H   0  0  0  0  0  0  0  0  0  0  0  0
   -5.0147    2.5147   -0.6586 H   0  0  0  0  0  0  0  0  0  0  0  0
   -6.4324    1.2784    0.9908 H   0  0  0  0  0  0  0  0  0  0  0  0
   -5.8011   -0.2595    0.3964 H   0  0  0  0  0  0  0  0  0  0  0  0
   -2.6996    1.8289   -0.0514 H   0  0  0  0  0  0  0  0  0  0  0  0
   -2.3150    0.2338   -0.7362 H   0  0  0  0  0  0  0  0  0  0  0  0
   -0.4767    2.0727    0.7273 H   0  0  0  0  0  0  0  0  0  0  0  0
   -0.2541    1.2498   -0.8276 H   0  0  0  0  0  0  0  0  0  0  0  0
    1.3860    1.4303    1.9884 H   0  0  0  0  0  0  0  0  0  0  0  0
    2.0966   -0.1853    1.8565 H   0  0  0  0  0  0  0  0  0  0  0  0
    1.8600    0.8650   -0.8231 H   0  0  0  0  0  0  0  0  0  0  0  0
    4.3422   -0.1576   -1.6981 H   0  0  0  0  0  0  0  0  0  0  0  0
    5.6638    0.4038   -3.6851 H   0  0  0  0  0  0  0  0  0  0  0  0
    5.8883    4.4688   -2.3721 H   0  0  0  0  0  0  0  0  0  0  0  0
    1.1913   -2.2790    2.3386 H   0  0  0  0  0  0  0  0  0  0  0  0
    2.5571   -3.0062    1.3586 H   0  0  0  0  0  0  0  0  0  0  0  0
   -0.2276   -4.1072    1.5281 H   0  0  0  0  0  0  0  0  0  0  0  0
    1.1177   -4.6234    2.6012 H   0  0  0  0  0  0  0  0  0  0  0  0
    1.7772   -5.1671   -1.3343 H   0  0  0  0  0  0  0  0  0  0  0  0
    0.0559   -5.1011   -0.9116 H   0  0  0  0  0  0  0  0  0  0  0  0
    2.0282   -2.9105   -1.4498 H   0  0  0  0  0  0  0  0  0  0  0  0
    0.2792   -3.0057   -1.7089 H   0  0  0  0  0  0  0  0  0  0  0  0
   -1.0176   -1.4684    1.9865 H   0  0  0  0  0  0  0  0  0  0  0  0
    0.0298   -0.3755    3.0567 H   0  0  0  0  0  0  0  0  0  0  0  0
   -2.2615    0.2199    3.3770 H   0  0  0  0  0  0  0  0  0  0  0  0
   -1.4717    1.5298    2.3801 H   0  0  0  0  0  0  0  0  0  0  0  0
  1  2  1  0
  2  3  1  0
  3  4  1  0
  4  5  2  0
  4  6  2  0
  4  7  1  0
  7  8  1  0
  8  9  1  0
  9 10  1  0
 10 11  1  0
 11 12  1  0
 12 13  1  0
 13 14  2  0
 13 15  1  0
 15 16  2  0
 16 17  1  0
 17 18  2  0
 18 19  1  0
 18 20  1  0
 20 21  2  0
 21 22  1  0
 10 23  1  0
 23 24  2  0
 23 25  1  0
 25 26  1  0
 26 27  1  0
 27 28  1  0
 28 29  1  0
 29 30  1  0
 10 31  1  0
 31 32  1  0
 32  7  1  0
 21 15  1  0
 30 25  1  0
  1 33  1  0
  1 34  1  0
  1 35  1  0
  2 36  1  0
  2 37  1  0
  3 38  1  0
  3 39  1  0
  8 40  1  0
  8 41  1  0
  9 42  1  0
  9 43  1  0
 11 44  1  0
 11 45  1  0
 12 46  1  0
 16 47  1  0
 17 48  1  0
 20 49  1  0
 26 50  1  0
 26 51  1  0
 27 52  1  0
 27 53  1  0
 29 54  1  0
 29 55  1  0
 30 56  1  0
 30 57  1  0
 31 58  1  0
 31 59  1  0
 32 60  1  0
 32 61  1  0
M  END
$$$$
