@<TRIPOS>MOLECULE
*****
 61 63 0 0 0
SMALL
GASTEIGER

@<TRIPOS>ATOM
      1 C          -6.4964    1.2879   -1.6288 C.3     1  UNL1       -0.0638
      2 C          -5.2486    1.4489   -0.7372 C.3     1  UNL1       -0.0350
      3 C          -5.4880    0.7919    0.5915 C.3     1  UNL1        0.0817
      4 S          -4.1860    0.9316    1.7350 S.O2    1  UNL1        0.0318
      5 O          -3.9282    2.3835    2.1177 O.2     1  UNL1       -0.1580
      6 O          -4.5906    0.2404    3.0394 O.2     1  UNL1       -0.1580
      7 N          -2.6842    0.2677    1.2873 N.3     1  UNL1       -0.1811
      8 C          -2.1390    0.8935    0.1382 C.3     1  UNL1        0.0211
      9 C          -0.6551    1.1222    0.1994 C.3     1  UNL1       -0.0231
     10 C           0.1065    0.0373    0.9125 C.3     1  UNL1        0.0650
     11 C           1.5013    0.5459    1.2932 C.3     1  UNL1        0.0259
     12 N           2.2540    0.9361    0.1371 N.am    1  UNL1       -0.3103
     13 C           3.5754    1.4384    0.2556 C.2     1  UNL1        0.2455
     14 O           4.1430    1.5620    1.3926 O.2     1  UNL1       -0.2702
     15 C           4.3643    1.8428   -0.9027 C.ar    1  UNL1        0.0551
     16 C           4.6809    0.8784   -1.8361 C.ar    1  UNL1       -0.0455
     17 C           5.4270    1.1770   -2.9660 C.ar    1  UNL1       -0.0256
     18 C           5.8582    2.4789   -3.1490 C.ar    1  UNL1        0.1248
     19 F           6.5977    2.7858   -4.2643 F       1  UNL1       -0.2054
     20 C           5.5441    3.4498   -2.2170 C.ar    1  UNL1       -0.0074
     21 C           4.7954    3.1370   -1.0889 C.ar    1  UNL1        0.0558
     22 CL          4.3774    4.3332    0.1120 Cl      1  UNL1       -0.0827
     23 C           0.3290   -1.0703   -0.0561 C.2     1  UNL1        0.2235
     24 O          -0.0932   -0.8343   -1.2489 O.2     1  UNL1       -0.2749
     25 N           0.9365   -2.3113    0.1942 N.am    1  UNL1       -0.2966
     26 C           1.4598   -2.8065    1.4346 C.3     1  UNL1        0.0382
     27 C           0.8552   -4.2154    1.6177 C.3     1  UNL1        0.0635
     28 O           1.4373   -4.9927    0.6424 O.3     1  UNL1       -0.3767
     29 C           1.0508   -4.6534   -0.6365 C.3     1  UNL1        0.0635
     30 C           1.0687   -3.2134   -0.9501 C.3     1  UNL1        0.0382
     31 C          -0.5898   -0.4354    2.1364 C.3     1  UNL1       -0.0231
     32 C          -1.7732    0.4655    2.4068 C.3     1  UNL1        0.0211
     33 H          -7.4038    1.5281   -1.0392 H       1  UNL1        0.0230
     34 H          -6.5843    0.2202   -1.9201 H       1  UNL1        0.0230
     35 H          -6.3608    1.9647   -2.4956 H       1  UNL1        0.0230
     36 H          -4.4431    0.9348   -1.3133 H       1  UNL1        0.0279
     37 H          -5.0147    2.5147   -0.6586 H       1  UNL1        0.0279
     38 H          -6.4324    1.2784    0.9908 H       1  UNL1        0.0515
     39 H          -5.8011   -0.2595    0.3964 H       1  UNL1        0.0515
     40 H          -2.6996    1.8289   -0.0514 H       1  UNL1        0.0444
     41 H          -2.3150    0.2338   -0.7362 H       1  UNL1        0.0444
     42 H          -0.4767    2.0727    0.7273 H       1  UNL1        0.0289
     43 H          -0.2541    1.2498   -0.8276 H       1  UNL1        0.0289
     44 H           1.3860    1.4303    1.9884 H       1  UNL1        0.0472
     45 H           2.0966   -0.1853    1.8565 H       1  UNL1        0.0472
     46 H           1.8600    0.8650   -0.8231 H       1  UNL1        0.1490
     47 H           4.3422   -0.1576   -1.6981 H       1  UNL1        0.0626
     48 H           5.6638    0.4038   -3.6851 H       1  UNL1        0.0646
     49 H           5.8883    4.4688   -2.3721 H       1  UNL1        0.0661
     50 H           1.1913   -2.2790    2.3386 H       1  UNL1        0.0487
     51 H           2.5571   -3.0062    1.3586 H       1  UNL1        0.0487
     52 H          -0.2276   -4.1072    1.5281 H       1  UNL1        0.0575
     53 H           1.1177   -4.6234    2.6012 H       1  UNL1        0.0575
     54 H           1.7772   -5.1671   -1.3343 H       1  UNL1        0.0575
     55 H           0.0559   -5.1011   -0.9116 H       1  UNL1        0.0575
     56 H           2.0282   -2.9105   -1.4498 H       1  UNL1        0.0487
     57 H           0.2792   -3.0057   -1.7089 H       1  UNL1        0.0487
     58 H          -1.0176   -1.4684    1.9865 H       1  UNL1        0.0289
     59 H           0.0298   -0.3755    3.0567 H       1  UNL1        0.0289
     60 H          -2.2615    0.2199    3.3770 H       1  UNL1        0.0444
     61 H          -1.4717    1.5298    2.3801 H       1  UNL1        0.0444
@<TRIPOS>BOND
     1     1     2    1
     2     2     3    1
     3     3     4    1
     4     4     5    2
     5     4     6    2
     6     4     7    1
     7     7     8    1
     8     8     9    1
     9     9    10    1
    10    10    11    1
    11    11    12    1
    12    12    13   am
    13    13    14    2
    14    13    15    1
    15    15    16   ar
    16    16    17   ar
    17    17    18   ar
    18    18    19    1
    19    18    20   ar
    20    20    21   ar
    21    21    22    1
    22    10    23    1
    23    23    24    2
    24    23    25   am
    25    25    26    1
    26    26    27    1
    27    27    28    1
    28    28    29    1
    29    29    30    1
    30    10    31    1
    31    31    32    1
    32    32     7    1
    33    21    15   ar
    34    30    25    1
    35     1    33    1
    36     1    34    1
    37     1    35    1
    38     2    36    1
    39     2    37    1
    40     3    38    1
    41     3    39    1
    42     8    40    1
    43     8    41    1
    44     9    42    1
    45     9    43    1
    46    11    44    1
    47    11    45    1
    48    12    46    1
    49    16    47    1
    50    17    48    1
    51    20    49    1
    52    26    50    1
    53    26    51    1
    54    27    52    1
    55    27    53    1
    56    29    54    1
    57    29    55    1
    58    30    56    1
    59    30    57    1
    60    31    58    1
    61    31    59    1
    62    32    60    1
    63    32    61    1
