@<TRIPOS>MOLECULE
*****
 37 40 0 0 0
SMALL
GASTEIGER

@<TRIPOS>ATOM
      1 O          -2.1508   -0.6812    1.5896 O.2     1  UNL1       -0.2697
      2 C          -1.8404   -0.2296    0.4698 C.2     1  UNL1        0.2530
      3 N          -2.8306    0.3651   -0.3201 N.am    1  UNL1       -0.2663
      4 C          -4.1932    0.5477   -0.0417 C.ar    1  UNL1        0.1253
      5 C          -4.8217    0.1634    1.1040 C.ar    1  UNL1       -0.0188
      6 C          -6.1956    0.3735    1.3265 C.ar    1  UNL1       -0.0217
      7 C          -6.9375    0.9890    0.3552 C.ar    1  UNL1        0.1415
      8 F          -8.2811    1.2221    0.5120 F       1  UNL1       -0.2039
      9 C          -6.2892    1.3724   -0.7980 C.ar    1  UNL1        0.0649
     10 N          -4.9798    1.1603   -0.9843 N.ar    1  UNL1       -0.2373
     11 C          -0.4347   -0.3434    0.0257 C.ar    1  UNL1        0.0847
     12 C           0.5792    0.2625    0.7331 C.ar    1  UNL1       -0.0021
     13 C           1.9014    0.1542    0.3098 C.ar    1  UNL1        0.1476
     14 O           2.9244    0.7591    1.0130 O.3     1  UNL1       -0.4500
     15 C           4.2696    0.6608    0.7012 C.ar    1  UNL1        0.1843
     16 C           5.0245    1.7818    0.3763 C.ar    1  UNL1        0.0729
     17 N           6.3276    1.6742    0.0764 N.ar    1  UNL1       -0.2566
     18 C           6.9619    0.4722    0.0771 C.ar    1  UNL1        0.0658
     19 C           6.2658   -0.6704    0.3906 C.ar    1  UNL1        0.1800
     20 F           6.8964   -1.8862    0.3943 F       1  UNL1       -0.2008
     21 C           4.9267   -0.5573    0.6988 C.ar    1  UNL1        0.2033
     22 F           4.2339   -1.6813    1.0172 F       1  UNL1       -0.1985
     23 C           2.1278   -0.5737   -0.8258 C.ar    1  UNL1        0.0737
     24 N           1.1560   -1.1754   -1.5349 N.ar    1  UNL1       -0.2161
     25 N           1.1764   -1.9122   -2.6421 N.ar    1  UNL1       -0.1534
     26 C          -0.1007   -2.2458   -2.8887 C.ar    1  UNL1        0.1390
     27 N          -0.9049   -1.7241   -1.9484 N.ar    1  UNL1       -0.2141
     28 C          -0.1037   -1.0533   -1.1028 C.ar    1  UNL1        0.1680
     29 H          -2.4846    0.7272   -1.2674 H       1  UNL1        0.1566
     30 H          -4.2553   -0.3224    1.8807 H       1  UNL1        0.0653
     31 H          -6.6293    0.0445    2.2556 H       1  UNL1        0.0648
     32 H          -6.9084    1.8613   -1.5544 H       1  UNL1        0.0859
     33 H           0.4001    0.8311    1.6203 H       1  UNL1        0.0663
     34 H           4.5009    2.7345    0.3811 H       1  UNL1        0.0868
     35 H           8.0088    0.4390   -0.1710 H       1  UNL1        0.0860
     36 H           3.1288   -0.6859   -1.2012 H       1  UNL1        0.0868
     37 H          -0.4686   -2.8538   -3.7261 H       1  UNL1        0.1066
@<TRIPOS>BOND
     1     1     2    2
     2     2     3   am
     3     3     4    1
     4     4     5   ar
     5     5     6   ar
     6     6     7   ar
     7     7     8    1
     8     7     9   ar
     9     9    10   ar
    10     2    11    1
    11    11    12   ar
    12    12    13   ar
    13    13    14    1
    14    14    15    1
    15    15    16   ar
    16    16    17   ar
    17    17    18   ar
    18    18    19   ar
    19    19    20    1
    20    19    21   ar
    21    21    22    1
    22    13    23   ar
    23    23    24   ar
    24    24    25   ar
    25    25    26   ar
    26    26    27   ar
    27    27    28   ar
    28    10     4   ar
    29    28    11   ar
    30    21    15   ar
    31    28    24   ar
    32     3    29    1
    33     5    30    1
    34     6    31    1
    35     9    32    1
    36    12    33    1
    37    16    34    1
    38    18    35    1
    39    23    36    1
    40    26    37    1
