
     RDKit          3D

 37 40  0  0  0  0  0  0  0  0999 V2000
   -2.1508   -0.6812    1.5896 O   0  0  0  0  0  0  0  0  0  0  0  0
   -1.8404   -0.2296    0.4698 C   0  0  0  0  0  0  0  0  0  0  0  0
   -2.8306    0.3651   -0.3201 N   0  0  0  0  0  0  0  0  0  0  0  0
   -4.1932    0.5477   -0.0417 C   0  0  0  0  0  0  0  0  0  0  0  0
   -4.8217    0.1634    1.1040 C   0  0  0  0  0  0  0  0  0  0  0  0
   -6.1956    0.3735    1.3265 C   0  0  0  0  0  0  0  0  0  0  0  0
   -6.9375    0.9890    0.3552 C   0  0  0  0  0  0  0  0  0  0  0  0
   -8.2811    1.2221    0.5120 F   0  0  0  0  0  0  0  0  0  0  0  0
   -6.2892    1.3724   -0.7980 C   0  0  0  0  0  0  0  0  0  0  0  0
   -4.9798    1.1603   -0.9843 N   0  0  0  0  0  0  0  0  0  0  0  0
   -0.4347   -0.3434    0.0257 C   0  0  0  0  0  0  0  0  0  0  0  0
    0.5792    0.2625    0.7331 C   0  0  0  0  0  0  0  0  0  0  0  0
    1.9014    0.1542    0.3098 C   0  0  0  0  0  0  0  0  0  0  0  0
    2.9244    0.7591    1.0130 O   0  0  0  0  0  0  0  0  0  0  0  0
    4.2696    0.6608    0.7012 C   0  0  0  0  0  0  0  0  0  0  0  0
    5.0245    1.7818    0.3763 C   0  0  0  0  0  0  0  0  0  0  0  0
    6.3276    1.6742    0.0764 N   0  0  0  0  0  0  0  0  0  0  0  0
    6.9619    0.4722    0.0771 C   0  0  0  0  0  0  0  0  0  0  0  0
    6.2658   -0.6704    0.3906 C   0  0  0  0  0  0  0  0  0  0  0  0
    6.8964   -1.8862    0.3943 F   0  0  0  0  0  0  0  0  0  0  0  0
    4.9267   -0.5573    0.6988 C   0  0  0  0  0  0  0  0  0  0  0  0
    4.2339   -1.6813    1.0172 F   0  0  0  0  0  0  0  0  0  0  0  0
    2.1278   -0.5737   -0.8258 C   0  0  0  0  0  0  0  0  0  0  0  0
    1.1560   -1.1754   -1.5349 N   0  0  0  0  0  0  0  0  0  0  0  0
    1.1764   -1.9122   -2.6421 N   0  0  0  0  0  0  0  0  0  0  0  0
   -0.1007   -2.2458   -2.8887 C   0  0  0  0  0  0  0  0  0  0  0  0
   -0.9049   -1.7241   -1.9484 N   0  0  0  0  0  0  0  0  0  0  0  0
   -0.1037   -1.0533   -1.1028 C   0  0  0  0  0  0  0  0  0  0  0  0
   -2.4846    0.7272   -1.2674 H   0  0  0  0  0  0  0  0  0  0  0  0
   -4.2553   -0.3224    1.8807 H   0  0  0  0  0  0  0  0  0  0  0  0
   -6.6293    0.0445    2.2556 H   0  0  0  0  0  0  0  0  0  0  0  0
   -6.9084    1.8613   -1.5544 H   0  0  0  0  0  0  0  0  0  0  0  0
    0.4001    0.8311    1.6203 H   0  0  0  0  0  0  0  0  0  0  0  0
    4.5009    2.7345    0.3811 H   0  0  0  0  0  0  0  0  0  0  0  0
    8.0088    0.4390   -0.1710 H   0  0  0  0  0  0  0  0  0  0  0  0
    3.1288   -0.6859   -1.2012 H   0  0  0  0  0  0  0  0  0  0  0  0
   -0.4686   -2.8538   -3.7261 H   0  0  0  0  0  0  0  0  0  0  0  0
  1  2  2  0
  2  3  1  0
  3  4  1  0
  4  5  2  0
  5  6  1  0
  6  7  2  0
  7  8  1  0
  7  9  1  0
  9 10  2  0
  2 11  1  0
 11 12  2  0
 12 13  1  0
 13 14  1  0
 14 15  1  0
 15 16  2  0
 16 17  1  0
 17 18  2  0
 18 19  1  0
 19 20  1  0
 19 21  2  0
 21 22  1  0
 13 23  2  0
 23 24  1  0
 24 25  1  0
 25 26  2  0
 26 27  1  0
 27 28  2  0
 10  4  1  0
 28 11  1  0
 21 15  1  0
 28 24  1  0
  3 29  1  0
  5 30  1  0
  6 31  1  0
  9 32  1  0
 12 33  1  0
 16 34  1  0
 18 35  1  0
 23 36  1  0
 26 37  1  0
M  END
$$$$
