
     RDKit          3D

 36 38  0  0  0  0  0  0  0  0999 V2000
    0.6014    2.8869   -2.0784 C   0  0  0  0  0  0  0  0  0  0  0  0
    1.1358    1.6756   -1.6054 O   0  0  0  0  0  0  0  0  0  0  0  0
    0.4462    0.8393   -0.7471 C   0  0  0  0  0  0  0  0  0  0  0  0
   -0.8202    1.1570   -0.3055 C   0  0  0  0  0  0  0  0  0  0  0  0
   -1.5104    0.3081    0.5609 C   0  0  0  0  0  0  0  0  0  0  0  0
   -0.9417   -0.8560    0.9878 C   0  0  0  0  0  0  0  0  0  0  0  0
    0.3459   -1.1782    0.5383 C   0  0  0  0  0  0  0  0  0  0  0  0
    1.0250   -0.3361   -0.3183 C   0  0  0  0  0  0  0  0  0  0  0  0
    2.3698   -0.6965   -0.7731 C   0  0  0  0  0  0  0  0  0  0  0  0
    3.3075   -1.1759    0.1278 C   0  0  0  0  0  0  0  0  0  0  0  0
    4.5820   -1.5198   -0.2905 C   0  0  0  0  0  0  0  0  0  0  0  0
    4.9385   -1.3916   -1.6063 C   0  0  0  0  0  0  0  0  0  0  0  0
    4.0215   -0.9256   -2.4723 N   0  0  0  0  0  0  0  0  0  0  0  0
    2.7751   -0.5855   -2.0835 C   0  0  0  0  0  0  0  0  0  0  0  0
   -1.6099   -1.8007    1.9028 C   0  0  0  0  0  0  0  0  0  0  0  0
   -3.1076   -1.6177    1.8851 C   0  0  0  0  0  0  0  0  0  0  0  0
   -3.4980   -0.2010    1.8682 C   0  0  0  0  0  0  0  0  0  0  0  0
   -4.4308    0.2512    2.6170 O   0  0  0  0  0  0  0  0  0  0  0  0
   -2.8077    0.6700    0.9897 N   0  0  0  0  0  0  0  0  0  0  0  0
   -3.4351    1.9243    0.5375 C   0  0  0  0  0  0  0  0  0  0  0  0
    0.6710    3.6859   -1.2848 H   0  0  0  0  0  0  0  0  0  0  0  0
    1.1887    3.2140   -2.9590 H   0  0  0  0  0  0  0  0  0  0  0  0
   -0.4773    2.7888   -2.3064 H   0  0  0  0  0  0  0  0  0  0  0  0
   -1.3301    2.0549   -0.5990 H   0  0  0  0  0  0  0  0  0  0  0  0
    0.7924   -2.1108    0.8849 H   0  0  0  0  0  0  0  0  0  0  0  0
    3.0290   -1.2805    1.1795 H   0  0  0  0  0  0  0  0  0  0  0  0
    5.2895   -1.8933    0.4522 H   0  0  0  0  0  0  0  0  0  0  0  0
    5.9427   -1.6677   -1.9088 H   0  0  0  0  0  0  0  0  0  0  0  0
    2.0612   -0.2136   -2.8062 H   0  0  0  0  0  0  0  0  0  0  0  0
   -1.3410   -2.8457    1.6695 H   0  0  0  0  0  0  0  0  0  0  0  0
   -1.2836   -1.5734    2.9561 H   0  0  0  0  0  0  0  0  0  0  0  0
   -3.5093   -2.0983    0.9613 H   0  0  0  0  0  0  0  0  0  0  0  0
   -3.6063   -2.1272    2.7305 H   0  0  0  0  0  0  0  0  0  0  0  0
   -2.7796    2.7893    0.7854 H   0  0  0  0  0  0  0  0  0  0  0  0
   -4.3945    2.0149    1.0574 H   0  0  0  0  0  0  0  0  0  0  0  0
   -3.6402    1.8351   -0.5469 H   0  0  0  0  0  0  0  0  0  0  0  0
  1  2  1  0
  2  3  1  0
  3  4  2  0
  4  5  1  0
  5  6  2  0
  6  7  1  0
  7  8  2  0
  8  9  1  0
  9 10  2  0
 10 11  1  0
 11 12  2  0
 12 13  1  0
 13 14  2  0
  6 15  1  0
 15 16  1  0
 16 17  1  0
 17 18  2  0
 17 19  1  0
 19 20  1  0
  8  3  1  0
 14  9  1  0
 19  5  1  0
  1 21  1  0
  1 22  1  0
  1 23  1  0
  4 24  1  0
  7 25  1  0
 10 26  1  0
 11 27  1  0
 12 28  1  0
 14 29  1  0
 15 30  1  0
 15 31  1  0
 16 32  1  0
 16 33  1  0
 20 34  1  0
 20 35  1  0
 20 36  1  0
M  END
$$$$
