@<TRIPOS>MOLECULE
*****
 36 38 0 0 0
SMALL
GASTEIGER

@<TRIPOS>ATOM
      1 C           0.6014    2.8869   -2.0784 C.3     1  UNL1        0.0788
      2 O           1.1358    1.6756   -1.6054 O.3     1  UNL1       -0.4944
      3 C           0.4462    0.8393   -0.7471 C.ar    1  UNL1        0.1296
      4 C          -0.8202    1.1570   -0.3055 C.ar    1  UNL1        0.0023
      5 C          -1.5104    0.3081    0.5609 C.ar    1  UNL1        0.0426
      6 C          -0.9417   -0.8560    0.9878 C.ar    1  UNL1       -0.0247
      7 C           0.3459   -1.1782    0.5383 C.ar    1  UNL1       -0.0455
      8 C           1.0250   -0.3361   -0.3183 C.ar    1  UNL1        0.0256
      9 C           2.3698   -0.6965   -0.7731 C.ar    1  UNL1        0.0037
     10 C           3.3075   -1.1759    0.1278 C.ar    1  UNL1       -0.0510
     11 C           4.5820   -1.5198   -0.2905 C.ar    1  UNL1       -0.0430
     12 C           4.9385   -1.3916   -1.6063 C.ar    1  UNL1        0.0276
     13 N           4.0215   -0.9256   -2.4723 N.ar    1  UNL1       -0.2627
     14 C           2.7751   -0.5855   -2.0835 C.ar    1  UNL1        0.0354
     15 C          -1.6099   -1.8007    1.9028 C.3     1  UNL1       -0.0176
     16 C          -3.1076   -1.6177    1.8851 C.3     1  UNL1        0.0285
     17 C          -3.4980   -0.2010    1.8682 C.2     1  UNL1        0.2199
     18 O          -4.4308    0.2512    2.6170 O.2     1  UNL1       -0.2753
     19 N          -2.8077    0.6700    0.9897 N.am    1  UNL1       -0.2741
     20 C          -3.4351    1.9243    0.5375 C.3     1  UNL1        0.0083
     21 H           0.6710    3.6859   -1.2848 H       1  UNL1        0.0660
     22 H           1.1887    3.2140   -2.9590 H       1  UNL1        0.0660
     23 H          -0.4773    2.7888   -2.3064 H       1  UNL1        0.0660
     24 H          -1.3301    2.0549   -0.5990 H       1  UNL1        0.0673
     25 H           0.7924   -2.1108    0.8849 H       1  UNL1        0.0628
     26 H           3.0290   -1.2805    1.1795 H       1  UNL1        0.0625
     27 H           5.2895   -1.8933    0.4522 H       1  UNL1        0.0633
     28 H           5.9427   -1.6677   -1.9088 H       1  UNL1        0.0829
     29 H           2.0612   -0.2136   -2.8062 H       1  UNL1        0.0836
     30 H          -1.3410   -2.8457    1.6695 H       1  UNL1        0.0318
     31 H          -1.2836   -1.5734    2.9561 H       1  UNL1        0.0318
     32 H          -3.5093   -2.0983    0.9613 H       1  UNL1        0.0362
     33 H          -3.6063   -2.1272    2.7305 H       1  UNL1        0.0362
     34 H          -2.7796    2.7893    0.7854 H       1  UNL1        0.0433
     35 H          -4.3945    2.0149    1.0574 H       1  UNL1        0.0433
     36 H          -3.6402    1.8351   -0.5469 H       1  UNL1        0.0433
@<TRIPOS>BOND
     1     1     2    1
     2     2     3    1
     3     3     4   ar
     4     4     5   ar
     5     5     6   ar
     6     6     7   ar
     7     7     8   ar
     8     8     9    1
     9     9    10   ar
    10    10    11   ar
    11    11    12   ar
    12    12    13   ar
    13    13    14   ar
    14     6    15    1
    15    15    16    1
    16    16    17    1
    17    17    18    2
    18    17    19   am
    19    19    20    1
    20     8     3   ar
    21    14     9   ar
    22    19     5    1
    23     1    21    1
    24     1    22    1
    25     1    23    1
    26     4    24    1
    27     7    25    1
    28    10    26    1
    29    11    27    1
    30    12    28    1
    31    14    29    1
    32    15    30    1
    33    15    31    1
    34    16    32    1
    35    16    33    1
    36    20    34    1
    37    20    35    1
    38    20    36    1
