
     RDKit          3D

 62 66  0  0  0  0  0  0  0  0999 V2000
   -3.8215   -1.6065    1.1723 N   0  0  0  0  0  0  0  0  0  0  0  0
   -2.4297   -1.5175    1.4336 C   0  0  0  0  0  0  0  0  0  0  0  0
   -1.8737   -2.0499    2.5328 N   0  0  0  0  0  0  0  0  0  0  0  0
   -0.5585   -1.9653    2.7806 C   0  0  0  0  0  0  0  0  0  0  0  0
    0.2188   -1.3261    1.8962 N   0  0  0  0  0  0  0  0  0  0  0  0
   -0.2580   -0.7538    0.7513 C   0  0  0  0  0  0  0  0  0  0  0  0
    0.6282   -0.1180   -0.1253 N   0  0  0  0  0  0  0  0  0  0  0  0
    2.0545   -0.2155    0.0027 C   0  0  0  0  0  0  0  0  0  0  0  0
    2.7222   -1.2375    0.6122 C   0  0  0  0  0  0  0  0  0  0  0  0
    4.1189   -1.2690    0.7099 C   0  0  0  0  0  0  0  0  0  0  0  0
    4.8727   -0.2493    0.1826 C   0  0  0  0  0  0  0  0  0  0  0  0
    6.2650   -0.2390    0.2553 O   0  0  0  0  0  0  0  0  0  0  0  0
    6.9922   -1.2786    0.8794 C   0  0  0  0  0  0  0  0  0  0  0  0
    8.4487   -0.9340    0.7570 C   0  0  0  0  0  0  0  0  0  0  0  0
    9.1764   -1.3839   -0.3512 C   0  0  0  0  0  0  0  0  0  0  0  0
   10.5139   -1.1051   -0.5270 C   0  0  0  0  0  0  0  0  0  0  0  0
   11.1546   -0.3515    0.4304 C   0  0  0  0  0  0  0  0  0  0  0  0
   10.4481    0.1088    1.5458 C   0  0  0  0  0  0  0  0  0  0  0  0
    9.1129   -0.1836    1.6986 C   0  0  0  0  0  0  0  0  0  0  0  0
    4.2159    0.7918   -0.4370 C   0  0  0  0  0  0  0  0  0  0  0  0
    5.1791    2.0935   -1.1096 Cl  0  0  0  0  0  0  0  0  0  0  0  0
    2.8440    0.8146   -0.5282 C   0  0  0  0  0  0  0  0  0  0  0  0
   -1.5875   -0.8504    0.5195 C   0  0  0  0  0  0  0  0  0  0  0  0
   -2.2116   -0.2976   -0.6690 C   0  0  0  0  0  0  0  0  0  0  0  0
   -1.7043    0.3804   -1.7058 N   0  0  0  0  0  0  0  0  0  0  0  0
   -2.6313    0.6994   -2.5816 N   0  0  0  0  0  0  0  0  0  0  0  0
   -3.7944    0.2047   -2.0901 C   0  0  0  0  0  0  0  0  0  0  0  0
   -5.1417    0.2828   -2.6783 C   0  0  0  0  0  0  0  0  0  0  0  0
   -5.9346    1.4940   -2.2557 C   0  0  0  0  0  0  0  0  0  0  0  0
   -6.1476    1.5422   -0.8283 N   0  0  0  0  0  0  0  0  0  0  0  0
   -7.0245    0.4863   -0.3695 C   0  0  0  0  0  0  0  0  0  0  0  0
   -8.4404    0.6630   -0.7988 C   0  0  0  0  0  0  0  0  0  0  0  0
   -8.9423    1.9255   -0.6016 O   0  0  0  0  0  0  0  0  0  0  0  0
   -8.0751    2.6477    0.2000 C   0  0  0  0  0  0  0  0  0  0  0  0
   -6.7284    2.8002   -0.4793 C   0  0  0  0  0  0  0  0  0  0  0  0
   -3.5130   -0.3709   -0.9721 O   0  0  0  0  0  0  0  0  0  0  0  0
   -4.2273   -2.5406    0.9643 H   0  0  0  0  0  0  0  0  0  0  0  0
   -4.4194   -0.7821    1.1863 H   0  0  0  0  0  0  0  0  0  0  0  0
   -0.1438   -2.3966    3.6622 H   0  0  0  0  0  0  0  0  0  0  0  0
    0.2973    0.4812   -0.9325 H   0  0  0  0  0  0  0  0  0  0  0  0
    2.1576   -2.0742    1.0309 H   0  0  0  0  0  0  0  0  0  0  0  0
    4.5818   -2.0980    1.2001 H   0  0  0  0  0  0  0  0  0  0  0  0
    6.7751   -2.2107    0.3044 H   0  0  0  0  0  0  0  0  0  0  0  0
    6.6893   -1.4655    1.9225 H   0  0  0  0  0  0  0  0  0  0  0  0
    8.6382   -1.9700   -1.0767 H   0  0  0  0  0  0  0  0  0  0  0  0
   11.0947   -1.4413   -1.3720 H   0  0  0  0  0  0  0  0  0  0  0  0
   12.2125   -0.1040    0.3343 H   0  0  0  0  0  0  0  0  0  0  0  0
   10.9996    0.7080    2.2864 H   0  0  0  0  0  0  0  0  0  0  0  0
    8.5666    0.1703    2.5541 H   0  0  0  0  0  0  0  0  0  0  0  0
    2.3240    1.6361   -1.0171 H   0  0  0  0  0  0  0  0  0  0  0  0
   -5.7513   -0.6300   -2.5476 H   0  0  0  0  0  0  0  0  0  0  0  0
   -5.0005    0.3843   -3.7946 H   0  0  0  0  0  0  0  0  0  0  0  0
   -5.3288    2.3969   -2.5259 H   0  0  0  0  0  0  0  0  0  0  0  0
   -6.8556    1.5178   -2.8527 H   0  0  0  0  0  0  0  0  0  0  0  0
   -6.6922   -0.5096   -0.7366 H   0  0  0  0  0  0  0  0  0  0  0  0
   -6.9458    0.4381    0.7332 H   0  0  0  0  0  0  0  0  0  0  0  0
   -9.1112   -0.0407   -0.2357 H   0  0  0  0  0  0  0  0  0  0  0  0
   -8.6014    0.3547   -1.8754 H   0  0  0  0  0  0  0  0  0  0  0  0
   -8.5491    3.6260    0.3995 H   0  0  0  0  0  0  0  0  0  0  0  0
   -7.9203    2.1631    1.1749 H   0  0  0  0  0  0  0  0  0  0  0  0
   -6.0384    3.3630    0.1678 H   0  0  0  0  0  0  0  0  0  0  0  0
   -6.8997    3.3920   -1.4001 H   0  0  0  0  0  0  0  0  0  0  0  0
  1  2  1  0
  2  3  2  0
  3  4  1  0
  4  5  2  0
  5  6  1  0
  6  7  1  0
  7  8  1  0
  8  9  2  0
  9 10  1  0
 10 11  2  0
 11 12  1  0
 12 13  1  0
 13 14  1  0
 14 15  2  0
 15 16  1  0
 16 17  2  0
 17 18  1  0
 18 19  2  0
 11 20  1  0
 20 21  1  0
 20 22  2  0
  6 23  2  0
 23 24  1  0
 24 25  2  0
 25 26  1  0
 26 27  2  0
 27 28  1  0
 28 29  1  0
 29 30  1  0
 30 31  1  0
 31 32  1  0
 32 33  1  0
 33 34  1  0
 34 35  1  0
 27 36  1  0
 23  2  1  0
 36 24  1  0
 22  8  1  0
 35 30  1  0
 19 14  1  0
  1 37  1  0
  1 38  1  0
  4 39  1  0
  7 40  1  0
  9 41  1  0
 10 42  1  0
 13 43  1  0
 13 44  1  0
 15 45  1  0
 16 46  1  0
 17 47  1  0
 18 48  1  0
 19 49  1  0
 22 50  1  0
 28 51  1  0
 28 52  1  0
 29 53  1  0
 29 54  1  0
 31 55  1  0
 31 56  1  0
 32 57  1  0
 32 58  1  0
 34 59  1  0
 34 60  1  0
 35 61  1  0
 35 62  1  0
M  END
$$$$
