@<TRIPOS>MOLECULE
*****
 62 66 0 0 0
SMALL
GASTEIGER

@<TRIPOS>ATOM
      1 N          -3.8215   -1.6065    1.1723 N.pl3   1  UNL1       -0.3424
      2 C          -2.4297   -1.5175    1.4336 C.ar    1  UNL1        0.1336
      3 N          -1.8737   -2.0499    2.5328 N.ar    1  UNL1       -0.2203
      4 C          -0.5585   -1.9653    2.7806 C.ar    1  UNL1        0.1202
      5 N           0.2188   -1.3261    1.8962 N.ar    1  UNL1       -0.2197
      6 C          -0.2580   -0.7538    0.7513 C.ar    1  UNL1        0.1404
      7 N           0.6282   -0.1180   -0.1253 N.pl3   1  UNL1       -0.2986
      8 C           2.0545   -0.2155    0.0027 C.ar    1  UNL1        0.0340
      9 C           2.7222   -1.2375    0.6122 C.ar    1  UNL1       -0.0370
     10 C           4.1189   -1.2690    0.7099 C.ar    1  UNL1       -0.0167
     11 C           4.8727   -0.2493    0.1826 C.ar    1  UNL1        0.1393
     12 O           6.2650   -0.2390    0.2553 O.3     1  UNL1       -0.4859
     13 C           6.9922   -1.2786    0.8794 C.3     1  UNL1        0.1147
     14 C           8.4487   -0.9340    0.7570 C.ar    1  UNL1       -0.0104
     15 C           9.1764   -1.3839   -0.3512 C.ar    1  UNL1       -0.0554
     16 C          10.5139   -1.1051   -0.5270 C.ar    1  UNL1       -0.0614
     17 C          11.1546   -0.3515    0.4304 C.ar    1  UNL1       -0.0617
     18 C          10.4481    0.1088    1.5458 C.ar    1  UNL1       -0.0614
     19 C           9.1129   -0.1836    1.6986 C.ar    1  UNL1       -0.0554
     20 C           4.2159    0.7918   -0.4370 C.ar    1  UNL1        0.0843
     21 CL          5.1791    2.0935   -1.1096 Cl      1  UNL1       -0.0797
     22 C           2.8440    0.8146   -0.5282 C.ar    1  UNL1       -0.0186
     23 C          -1.5875   -0.8504    0.5195 C.ar    1  UNL1        0.1178
     24 C          -2.2116   -0.2976   -0.6690 C.ar    1  UNL1        0.2549
     25 N          -1.7043    0.3804   -1.7058 N.ar    1  UNL1       -0.1070
     26 N          -2.6313    0.6994   -2.5816 N.ar    1  UNL1       -0.1120
     27 C          -3.7944    0.2047   -2.0901 C.ar    1  UNL1        0.2189
     28 C          -5.1417    0.2828   -2.6783 C.3     1  UNL1        0.0383
     29 C          -5.9346    1.4940   -2.2557 C.3     1  UNL1        0.0075
     30 N          -6.1476    1.5422   -0.8283 N.3     1  UNL1       -0.2975
     31 C          -7.0245    0.4863   -0.3695 C.3     1  UNL1        0.0224
     32 C          -8.4404    0.6630   -0.7988 C.3     1  UNL1        0.0604
     33 O          -8.9423    1.9255   -0.6016 O.3     1  UNL1       -0.3772
     34 C          -8.0751    2.6477    0.2000 C.3     1  UNL1        0.0604
     35 C          -6.7284    2.8002   -0.4793 C.3     1  UNL1        0.0224
     36 O          -3.5130   -0.3709   -0.9721 O.2     1  UNL1       -0.4199
     37 H          -4.2273   -2.5406    0.9643 H       1  UNL1        0.1437
     38 H          -4.4194   -0.7821    1.1863 H       1  UNL1        0.1437
     39 H          -0.1438   -2.3966    3.6622 H       1  UNL1        0.1048
     40 H           0.2973    0.4812   -0.9325 H       1  UNL1        0.1536
     41 H           2.1576   -2.0742    1.0309 H       1  UNL1        0.0637
     42 H           4.5818   -2.0980    1.2001 H       1  UNL1        0.0655
     43 H           6.7751   -2.2107    0.3044 H       1  UNL1        0.0748
     44 H           6.6893   -1.4655    1.9225 H       1  UNL1        0.0748
     45 H           8.6382   -1.9700   -1.0767 H       1  UNL1        0.0621
     46 H          11.0947   -1.4413   -1.3720 H       1  UNL1        0.0618
     47 H          12.2125   -0.1040    0.3343 H       1  UNL1        0.0618
     48 H          10.9996    0.7080    2.2864 H       1  UNL1        0.0618
     49 H           8.5666    0.1703    2.5541 H       1  UNL1        0.0621
     50 H           2.3240    1.6361   -1.0171 H       1  UNL1        0.0652
     51 H          -5.7513   -0.6300   -2.5476 H       1  UNL1        0.0373
     52 H          -5.0005    0.3843   -3.7946 H       1  UNL1        0.0373
     53 H          -5.3288    2.3969   -2.5259 H       1  UNL1        0.0431
     54 H          -6.8556    1.5178   -2.8527 H       1  UNL1        0.0431
     55 H          -6.6922   -0.5096   -0.7366 H       1  UNL1        0.0449
     56 H          -6.9458    0.4381    0.7332 H       1  UNL1        0.0449
     57 H          -9.1112   -0.0407   -0.2357 H       1  UNL1        0.0572
     58 H          -8.6014    0.3547   -1.8754 H       1  UNL1        0.0572
     59 H          -8.5491    3.6260    0.3995 H       1  UNL1        0.0572
     60 H          -7.9203    2.1631    1.1749 H       1  UNL1        0.0572
     61 H          -6.0384    3.3630    0.1678 H       1  UNL1        0.0449
     62 H          -6.8997    3.3920   -1.4001 H       1  UNL1        0.0449
@<TRIPOS>BOND
     1     1     2    1
     2     2     3   ar
     3     3     4   ar
     4     4     5   ar
     5     5     6   ar
     6     6     7    1
     7     7     8    1
     8     8     9   ar
     9     9    10   ar
    10    10    11   ar
    11    11    12    1
    12    12    13    1
    13    13    14    1
    14    14    15   ar
    15    15    16   ar
    16    16    17   ar
    17    17    18   ar
    18    18    19   ar
    19    11    20   ar
    20    20    21    1
    21    20    22   ar
    22     6    23   ar
    23    23    24    1
    24    24    25   ar
    25    25    26   ar
    26    26    27   ar
    27    27    28    1
    28    28    29    1
    29    29    30    1
    30    30    31    1
    31    31    32    1
    32    32    33    1
    33    33    34    1
    34    34    35    1
    35    27    36   ar
    36    23     2   ar
    37    36    24   ar
    38    22     8   ar
    39    35    30    1
    40    19    14   ar
    41     1    37    1
    42     1    38    1
    43     4    39    1
    44     7    40    1
    45     9    41    1
    46    10    42    1
    47    13    43    1
    48    13    44    1
    49    15    45    1
    50    16    46    1
    51    17    47    1
    52    18    48    1
    53    19    49    1
    54    22    50    1
    55    28    51    1
    56    28    52    1
    57    29    53    1
    58    29    54    1
    59    31    55    1
    60    31    56    1
    61    32    57    1
    62    32    58    1
    63    34    59    1
    64    34    60    1
    65    35    61    1
    66    35    62    1
