
     RDKit          3D

 52 56  0  0  0  0  0  0  0  0999 V2000
    3.1963   -0.6226    2.1899 C   0  0  0  0  0  0  0  0  0  0  0  0
    3.6767   -0.3928    0.8523 N   0  0  0  0  0  0  0  0  0  0  0  0
    4.9773   -0.3665    0.4451 C   0  0  0  0  0  0  0  0  0  0  0  0
    6.1364   -0.5291    1.1690 C   0  0  0  0  0  0  0  0  0  0  0  0
    7.3793   -0.4669    0.5644 C   0  0  0  0  0  0  0  0  0  0  0  0
    7.3954   -0.2413   -0.7553 N   0  0  0  0  0  0  0  0  0  0  0  0
    6.2809   -0.0776   -1.4941 C   0  0  0  0  0  0  0  0  0  0  0  0
    5.0343   -0.1401   -0.8878 C   0  0  0  0  0  0  0  0  0  0  0  0
    3.7328   -0.0219   -1.3236 C   0  0  0  0  0  0  0  0  0  0  0  0
    3.2430    0.1956   -2.5579 N   0  0  0  0  0  0  0  0  0  0  0  0
    1.9198    0.2622   -2.7443 C   0  0  0  0  0  0  0  0  0  0  0  0
    1.1125    0.1111   -1.6967 N   0  0  0  0  0  0  0  0  0  0  0  0
    1.5305   -0.1100   -0.4242 C   0  0  0  0  0  0  0  0  0  0  0  0
    0.6050   -0.2181    0.6008 N   0  0  0  0  0  0  0  0  0  0  0  0
    0.3710    0.8625    1.5373 C   0  0  0  0  0  0  0  0  0  0  0  0
   -1.1285    1.0571    1.7057 C   0  0  0  0  0  0  0  0  0  0  0  0
   -1.8932    0.3617    0.7057 N   0  0  0  0  0  0  0  0  0  0  0  0
   -2.1363    1.1611   -0.4371 C   0  0  0  0  0  0  0  0  0  0  0  0
   -3.0120    0.6518   -1.5049 C   0  0  0  0  0  0  0  0  0  0  0  0
   -4.4097    0.3719   -1.1026 C   0  0  0  0  0  0  0  0  0  0  0  0
   -5.3771    1.3828   -1.1405 C   0  0  0  0  0  0  0  0  0  0  0  0
   -6.6795    1.1395   -0.7807 C   0  0  0  0  0  0  0  0  0  0  0  0
   -7.0946   -0.1152   -0.3648 C   0  0  0  0  0  0  0  0  0  0  0  0
   -8.3832   -0.3590   -0.0079 F   0  0  0  0  0  0  0  0  0  0  0  0
   -6.1596   -1.1186   -0.3216 C   0  0  0  0  0  0  0  0  0  0  0  0
   -6.5437   -2.3682    0.0858 F   0  0  0  0  0  0  0  0  0  0  0  0
   -4.8325   -0.8689   -0.6888 C   0  0  0  0  0  0  0  0  0  0  0  0
   -1.6432   -1.0010    0.4924 C   0  0  0  0  0  0  0  0  0  0  0  0
   -0.2173   -1.3838    0.8036 C   0  0  0  0  0  0  0  0  0  0  0  0
    2.8840   -0.1824   -0.2158 C   0  0  0  0  0  0  0  0  0  0  0  0
    3.0971    0.3051    2.7861 H   0  0  0  0  0  0  0  0  0  0  0  0
    4.0026   -1.2171    2.7128 H   0  0  0  0  0  0  0  0  0  0  0  0
    2.3062   -1.2682    2.2183 H   0  0  0  0  0  0  0  0  0  0  0  0
    6.1236   -0.7114    2.2342 H   0  0  0  0  0  0  0  0  0  0  0  0
    8.2933   -0.5930    1.1233 H   0  0  0  0  0  0  0  0  0  0  0  0
    6.2984    0.1042   -2.5593 H   0  0  0  0  0  0  0  0  0  0  0  0
    1.5129    0.4404   -3.7575 H   0  0  0  0  0  0  0  0  0  0  0  0
    0.7239    0.5314    2.5319 H   0  0  0  0  0  0  0  0  0  0  0  0
    0.8407    1.8065    1.2775 H   0  0  0  0  0  0  0  0  0  0  0  0
   -1.3297    2.1400    1.5906 H   0  0  0  0  0  0  0  0  0  0  0  0
   -1.4610    0.7728    2.7219 H   0  0  0  0  0  0  0  0  0  0  0  0
   -2.5964    2.1276   -0.0690 H   0  0  0  0  0  0  0  0  0  0  0  0
   -1.1366    1.5021   -0.8324 H   0  0  0  0  0  0  0  0  0  0  0  0
   -3.0760    1.4707   -2.2885 H   0  0  0  0  0  0  0  0  0  0  0  0
   -2.6427   -0.2200   -2.0746 H   0  0  0  0  0  0  0  0  0  0  0  0
   -5.1160    2.3814   -1.4556 H   0  0  0  0  0  0  0  0  0  0  0  0
   -7.3833    1.9555   -0.8291 H   0  0  0  0  0  0  0  0  0  0  0  0
   -4.1890   -1.7194   -0.6253 H   0  0  0  0  0  0  0  0  0  0  0  0
   -1.8767   -1.3101   -0.5570 H   0  0  0  0  0  0  0  0  0  0  0  0
   -2.2816   -1.5925    1.2170 H   0  0  0  0  0  0  0  0  0  0  0  0
   -0.1333   -1.6572    1.8757 H   0  0  0  0  0  0  0  0  0  0  0  0
    0.0585   -2.2219    0.1338 H   0  0  0  0  0  0  0  0  0  0  0  0
  1  2  1  0
  2  3  1  0
  3  4  2  0
  4  5  1  0
  5  6  2  0
  6  7  1  0
  7  8  2  0
  8  9  1  0
  9 10  2  0
 10 11  1  0
 11 12  2  0
 12 13  1  0
 13 14  1  0
 14 15  1  0
 15 16  1  0
 16 17  1  0
 17 18  1  0
 18 19  1  0
 19 20  1  0
 20 21  2  0
 21 22  1  0
 22 23  2  0
 23 24  1  0
 23 25  1  0
 25 26  1  0
 25 27  2  0
 17 28  1  0
 28 29  1  0
 13 30  2  0
 30  2  1  0
  8  3  1  0
 30  9  1  0
 29 14  1  0
 27 20  1  0
  1 31  1  0
  1 32  1  0
  1 33  1  0
  4 34  1  0
  5 35  1  0
  7 36  1  0
 11 37  1  0
 15 38  1  0
 15 39  1  0
 16 40  1  0
 16 41  1  0
 18 42  1  0
 18 43  1  0
 19 44  1  0
 19 45  1  0
 21 46  1  0
 22 47  1  0
 27 48  1  0
 28 49  1  0
 28 50  1  0
 29 51  1  0
 29 52  1  0
M  END
$$$$
