@<TRIPOS>MOLECULE
*****
 52 56 0 0 0
SMALL
GASTEIGER

@<TRIPOS>ATOM
      1 C           3.1963   -0.6226    2.1899 C.3     1  UNL1        0.0126
      2 N           3.6767   -0.3928    0.8523 N.ar    1  UNL1       -0.3389
      3 C           4.9773   -0.3665    0.4451 C.ar    1  UNL1        0.0543
      4 C           6.1364   -0.5291    1.1690 C.ar    1  UNL1       -0.0194
      5 C           7.3793   -0.4669    0.5644 C.ar    1  UNL1        0.0295
      6 N           7.3954   -0.2413   -0.7553 N.ar    1  UNL1       -0.2625
      7 C           6.2809   -0.0776   -1.4941 C.ar    1  UNL1        0.0388
      8 C           5.0343   -0.1401   -0.8878 C.ar    1  UNL1        0.0441
      9 C           3.7328   -0.0219   -1.3236 C.ar    1  UNL1        0.1029
     10 N           3.2430    0.1956   -2.5579 N.ar    1  UNL1       -0.2331
     11 C           1.9198    0.2622   -2.7443 C.ar    1  UNL1        0.1189
     12 N           1.1125    0.1111   -1.6967 N.ar    1  UNL1       -0.2186
     13 C           1.5305   -0.1100   -0.4242 C.ar    1  UNL1        0.1489
     14 N           0.6050   -0.2181    0.6008 N.pl3   1  UNL1       -0.3110
     15 C           0.3710    0.8625    1.5373 C.3     1  UNL1        0.0264
     16 C          -1.1285    1.0571    1.7057 C.3     1  UNL1        0.0147
     17 N          -1.8932    0.3617    0.7057 N.3     1  UNL1       -0.2990
     18 C          -2.1363    1.1611   -0.4371 C.3     1  UNL1        0.0030
     19 C          -3.0120    0.6518   -1.5049 C.3     1  UNL1       -0.0148
     20 C          -4.4097    0.3719   -1.1026 C.ar    1  UNL1       -0.0433
     21 C          -5.3771    1.3828   -1.1405 C.ar    1  UNL1       -0.0556
     22 C          -6.6795    1.1395   -0.7807 C.ar    1  UNL1       -0.0233
     23 C          -7.0946   -0.1152   -0.3648 C.ar    1  UNL1        0.1584
     24 F          -8.3832   -0.3590   -0.0079 F       1  UNL1       -0.2025
     25 C          -6.1596   -1.1186   -0.3216 C.ar    1  UNL1        0.1587
     26 F          -6.5437   -2.3682    0.0858 F       1  UNL1       -0.2025
     27 C          -4.8325   -0.8689   -0.6888 C.ar    1  UNL1       -0.0204
     28 C          -1.6432   -1.0010    0.4924 C.3     1  UNL1        0.0147
     29 C          -0.2173   -1.3838    0.8036 C.3     1  UNL1        0.0264
     30 C           2.8840   -0.1824   -0.2158 C.ar    1  UNL1        0.1089
     31 H           3.0971    0.3051    2.7861 H       1  UNL1        0.0456
     32 H           4.0026   -1.2171    2.7128 H       1  UNL1        0.0456
     33 H           2.3062   -1.2682    2.2183 H       1  UNL1        0.0456
     34 H           6.1236   -0.7114    2.2342 H       1  UNL1        0.0653
     35 H           8.2933   -0.5930    1.1233 H       1  UNL1        0.0830
     36 H           6.2984    0.1042   -2.5593 H       1  UNL1        0.0837
     37 H           1.5129    0.4404   -3.7575 H       1  UNL1        0.1048
     38 H           0.7239    0.5314    2.5319 H       1  UNL1        0.0477
     39 H           0.8407    1.8065    1.2775 H       1  UNL1        0.0477
     40 H          -1.3297    2.1400    1.5906 H       1  UNL1        0.0442
     41 H          -1.4610    0.7728    2.7219 H       1  UNL1        0.0442
     42 H          -2.5964    2.1276   -0.0690 H       1  UNL1        0.0430
     43 H          -1.1366    1.5021   -0.8324 H       1  UNL1        0.0430
     44 H          -3.0760    1.4707   -2.2885 H       1  UNL1        0.0326
     45 H          -2.6427   -0.2200   -2.0746 H       1  UNL1        0.0326
     46 H          -5.1160    2.3814   -1.4556 H       1  UNL1        0.0621
     47 H          -7.3833    1.9555   -0.8291 H       1  UNL1        0.0647
     48 H          -4.1890   -1.7194   -0.6253 H       1  UNL1        0.0650
     49 H          -1.8767   -1.3101   -0.5570 H       1  UNL1        0.0442
     50 H          -2.2816   -1.5925    1.2170 H       1  UNL1        0.0442
     51 H          -0.1333   -1.6572    1.8757 H       1  UNL1        0.0477
     52 H           0.0585   -2.2219    0.1338 H       1  UNL1        0.0477
@<TRIPOS>BOND
     1     1     2    1
     2     2     3   ar
     3     3     4   ar
     4     4     5   ar
     5     5     6   ar
     6     6     7   ar
     7     7     8   ar
     8     8     9   ar
     9     9    10   ar
    10    10    11   ar
    11    11    12   ar
    12    12    13   ar
    13    13    14    1
    14    14    15    1
    15    15    16    1
    16    16    17    1
    17    17    18    1
    18    18    19    1
    19    19    20    1
    20    20    21   ar
    21    21    22   ar
    22    22    23   ar
    23    23    24    1
    24    23    25   ar
    25    25    26    1
    26    25    27   ar
    27    17    28    1
    28    28    29    1
    29    13    30   ar
    30    30     2   ar
    31     8     3   ar
    32    30     9   ar
    33    29    14    1
    34    27    20   ar
    35     1    31    1
    36     1    32    1
    37     1    33    1
    38     4    34    1
    39     5    35    1
    40     7    36    1
    41    11    37    1
    42    15    38    1
    43    15    39    1
    44    16    40    1
    45    16    41    1
    46    18    42    1
    47    18    43    1
    48    19    44    1
    49    19    45    1
    50    21    46    1
    51    22    47    1
    52    27    48    1
    53    28    49    1
    54    28    50    1
    55    29    51    1
    56    29    52    1
