@<TRIPOS>MOLECULE
*****
 91 93 0 0 0
SMALL
GASTEIGER

@<TRIPOS>ATOM
      1 C           0.8118    0.9018    0.6499 C.3     1  UNL1        0.1089
      2 C           1.4219    1.8374   -0.3131 C.3     1  UNL1       -0.0021
      3 C           0.6006    2.6145   -1.2106 C.ar    1  UNL1       -0.0446
      4 C           0.2199    3.9085   -0.8374 C.ar    1  UNL1       -0.0437
      5 C          -0.5469    4.6591   -1.7043 C.ar    1  UNL1        0.0650
      6 C          -0.9747    4.2172   -2.9366 C.ar    1  UNL1       -0.0469
      7 C          -0.5772    2.9209   -3.2766 C.ar    1  UNL1       -0.0607
      8 C           0.1970    2.1328   -2.4288 C.ar    1  UNL1       -0.0585
      9 C          -0.9578    6.0084   -1.3438 C.2     1  UNL1        0.3081
     10 N          -1.1986    7.0872   -2.2345 N.pl3   1  UNL1       -0.2466
     11 N          -1.2128    6.6098   -0.2172 N.2     1  UNL1       -0.0994
     12 N          -0.1009    1.4640    1.6010 N.3     1  UNL1       -0.1777
     13 S          -1.3582    0.4211    2.1562 S.O2    1  UNL1        0.0596
     14 O          -2.1302    1.2062    3.2219 O.2     1  UNL1       -0.1530
     15 O          -0.6019   -0.5648    2.9861 O.2     1  UNL1       -0.1530
     16 C          -2.4430   -0.1662    1.0233 C.ar    1  UNL1        0.1121
     17 C          -3.3623    0.7667    0.5678 C.ar    1  UNL1       -0.0179
     18 C          -4.3610    0.4265   -0.3586 C.ar    1  UNL1       -0.0530
     19 C          -4.4778   -0.8706   -0.8687 C.ar    1  UNL1       -0.0441
     20 C          -3.5326   -1.7550   -0.3743 C.ar    1  UNL1       -0.0530
     21 C          -2.5015   -1.4922    0.5568 C.ar    1  UNL1       -0.0179
     22 C          -1.6439   -2.5704    1.0456 C.3     1  UNL1       -0.0196
     23 C          -0.2620   -2.6768    0.5106 C.3     1  UNL1       -0.0586
     24 C          -1.8518   -2.9870    2.4809 C.3     1  UNL1       -0.0586
     25 C          -5.4939   -1.3190   -1.8498 C.3     1  UNL1       -0.0215
     26 C          -4.9208   -2.0307   -3.0311 C.3     1  UNL1       -0.0586
     27 C          -6.5196   -2.1959   -1.1240 C.3     1  UNL1       -0.0586
     28 C          -3.5366    2.1999    0.8561 C.3     1  UNL1       -0.0196
     29 C          -3.1238    2.9329   -0.4237 C.3     1  UNL1       -0.0586
     30 C          -4.9896    2.5967    1.0758 C.3     1  UNL1       -0.0586
     31 C           2.0607    0.4357    1.4819 C.2     1  UNL1        0.2346
     32 O           2.0417    0.6465    2.7228 O.2     1  UNL1       -0.2738
     33 N           3.2697   -0.2023    1.1365 N.am    1  UNL1       -0.2972
     34 C           4.0515   -0.3740    2.3365 C.3     1  UNL1        0.0306
     35 C           5.5053   -0.5629    1.8788 C.3     1  UNL1        0.0305
     36 N           5.5048   -1.8119    1.1433 N.am    1  UNL1       -0.2985
     37 C           4.6696   -1.8465   -0.0375 C.3     1  UNL1        0.0305
     38 C           3.7504   -0.6552   -0.1557 C.3     1  UNL1        0.0306
     39 C           6.2554   -2.9559    1.5166 C.2     1  UNL1        0.2169
     40 O           6.8520   -2.5882    2.5678 O.2     1  UNL1       -0.2756
     41 C           6.1980   -4.1785    0.7142 C.3     1  UNL1        0.0365
     42 C           7.0814   -5.2279    1.3721 C.3     1  UNL1        0.0014
     43 N           8.4402   -4.7490    1.4402 N.3     1  UNL1       -0.3295
     44 H           0.4673   -0.0635    0.3034 H       1  UNL1        0.0576
     45 H           2.1574    1.2710   -0.9750 H       1  UNL1        0.0334
     46 H           2.1058    2.5670    0.2128 H       1  UNL1        0.0334
     47 H           0.4845    4.3825    0.1008 H       1  UNL1        0.0629
     48 H          -1.5692    4.8071   -3.6016 H       1  UNL1        0.0626
     49 H          -0.9138    2.5635   -4.2554 H       1  UNL1        0.0618
     50 H           0.4860    1.1342   -2.7247 H       1  UNL1        0.0620
     51 H          -1.8968    7.3632   -2.9765 H       1  UNL1        0.2884
     52 H          -0.6440    7.9741   -2.3587 H       1  UNL1        0.2884
     53 H          -1.1073    6.0128    0.6509 H       1  UNL1        0.3633
     54 H           0.4618    1.8575    2.3722 H       1  UNL1        0.1489
     55 H          -5.1417    1.0721   -0.7925 H       1  UNL1        0.0624
     56 H          -3.6334   -2.7775   -0.7848 H       1  UNL1        0.0624
     57 H          -2.1102   -3.5030    0.5311 H       1  UNL1        0.0344
     58 H           0.5433   -2.3137    1.2146 H       1  UNL1        0.0235
     59 H           0.0939   -3.7357    0.3263 H       1  UNL1        0.0235
     60 H          -0.1383   -2.2356   -0.4987 H       1  UNL1        0.0235
     61 H          -2.5737   -2.3565    3.0407 H       1  UNL1        0.0235
     62 H          -2.3764   -4.0014    2.5777 H       1  UNL1        0.0235
     63 H          -0.9097   -3.2154    3.0282 H       1  UNL1        0.0235
     64 H          -6.0792   -0.4028   -2.1295 H       1  UNL1        0.0343
     65 H          -5.4311   -1.6419   -3.9483 H       1  UNL1        0.0235
     66 H          -3.8334   -1.8092   -3.1226 H       1  UNL1        0.0235
     67 H          -5.1373   -3.1182   -2.9384 H       1  UNL1        0.0235
     68 H          -7.1410   -2.7170   -1.8513 H       1  UNL1        0.0235
     69 H          -7.1409   -1.5290   -0.4923 H       1  UNL1        0.0235
     70 H          -5.9853   -2.8964   -0.4527 H       1  UNL1        0.0235
     71 H          -3.0165    2.5913    1.7251 H       1  UNL1        0.0344
     72 H          -2.9084    3.9961   -0.2102 H       1  UNL1        0.0235
     73 H          -2.2710    2.4552   -0.9347 H       1  UNL1        0.0235
     74 H          -3.9513    2.9307   -1.1625 H       1  UNL1        0.0235
     75 H          -5.5511    1.8121    1.6183 H       1  UNL1        0.0235
     76 H          -5.4809    2.8623    0.0946 H       1  UNL1        0.0235
     77 H          -5.0371    3.4977    1.7026 H       1  UNL1        0.0235
     78 H           3.8037   -1.3401    2.8645 H       1  UNL1        0.0480
     79 H           3.9652    0.4124    3.0819 H       1  UNL1        0.0480
     80 H           6.1923   -0.5555    2.7332 H       1  UNL1        0.0480
     81 H           5.8121    0.2729    1.1910 H       1  UNL1        0.0480
     82 H           4.0249   -2.7608    0.0670 H       1  UNL1        0.0480
     83 H           5.2724   -1.8882   -0.9687 H       1  UNL1        0.0480
     84 H           2.9152   -0.9852   -0.8131 H       1  UNL1        0.0480
     85 H           4.2708    0.1872   -0.6459 H       1  UNL1        0.0480
     86 H           5.1614   -4.5266    0.6446 H       1  UNL1        0.0371
     87 H           6.6031   -3.9616   -0.2976 H       1  UNL1        0.0371
     88 H           6.7337   -5.4556    2.3893 H       1  UNL1        0.0426
     89 H           7.0307   -6.1387    0.7385 H       1  UNL1        0.0426
     90 H           8.5766   -4.3125    2.3958 H       1  UNL1        0.1182
     91 H           8.5640   -3.9941    0.7194 H       1  UNL1        0.1182
@<TRIPOS>BOND
     1     1     2    1
     2     2     3    1
     3     3     4   ar
     4     4     5   ar
     5     5     6   ar
     6     6     7   ar
     7     7     8   ar
     8     5     9    1
     9     9    10    1
    10     9    11    2
    11     1    12    1
    12    12    13    1
    13    13    14    2
    14    13    15    2
    15    13    16    1
    16    16    17   ar
    17    17    18   ar
    18    18    19   ar
    19    19    20   ar
    20    20    21   ar
    21    21    22    1
    22    22    23    1
    23    22    24    1
    24    19    25    1
    25    25    26    1
    26    25    27    1
    27    17    28    1
    28    28    29    1
    29    28    30    1
    30     1    31    1
    31    31    32    2
    32    31    33   am
    33    33    34    1
    34    34    35    1
    35    35    36    1
    36    36    37    1
    37    37    38    1
    38    36    39   am
    39    39    40    2
    40    39    41    1
    41    41    42    1
    42    42    43    1
    43     8     3   ar
    44    21    16   ar
    45    38    33    1
    46     1    44    1
    47     2    45    1
    48     2    46    1
    49     4    47    1
    50     6    48    1
    51     7    49    1
    52     8    50    1
    53    10    51    1
    54    10    52    1
    55    11    53    1
    56    12    54    1
    57    18    55    1
    58    20    56    1
    59    22    57    1
    60    23    58    1
    61    23    59    1
    62    23    60    1
    63    24    61    1
    64    24    62    1
    65    24    63    1
    66    25    64    1
    67    26    65    1
    68    26    66    1
    69    26    67    1
    70    27    68    1
    71    27    69    1
    72    27    70    1
    73    28    71    1
    74    29    72    1
    75    29    73    1
    76    29    74    1
    77    30    75    1
    78    30    76    1
    79    30    77    1
    80    34    78    1
    81    34    79    1
    82    35    80    1
    83    35    81    1
    84    37    82    1
    85    37    83    1
    86    38    84    1
    87    38    85    1
    88    41    86    1
    89    41    87    1
    90    42    88    1
    91    42    89    1
    92    43    90    1
    93    43    91    1
