
     RDKit          3D

 58 61  0  0  0  0  0  0  0  0999 V2000
   -4.9531    4.7469   -0.2518 C   0  0  0  0  0  0  0  0  0  0  0  0
   -4.0390    3.6671    0.1960 C   0  0  0  0  0  0  0  0  0  0  0  0
   -3.1181    3.9417    1.0388 O   0  0  0  0  0  0  0  0  0  0  0  0
   -4.1767    2.3069   -0.3092 C   0  0  0  0  0  0  0  0  0  0  0  0
   -5.1787    2.0435   -1.2142 C   0  0  0  0  0  0  0  0  0  0  0  0
   -5.3239    0.7604   -1.7043 C   0  0  0  0  0  0  0  0  0  0  0  0
   -4.4610   -0.1859   -1.2634 C   0  0  0  0  0  0  0  0  0  0  0  0
   -4.7403   -1.7980   -1.9772 S   0  0  0  0  0  0  0  0  0  0  0  0
   -3.5250   -2.8805   -1.2633 C   0  0  0  0  0  0  0  0  0  0  0  0
   -2.6268   -2.3584   -0.3671 C   0  0  0  0  0  0  0  0  0  0  0  0
   -1.7675   -3.3326    0.0938 C   0  0  0  0  0  0  0  0  0  0  0  0
   -1.7734   -4.6621   -0.2702 C   0  0  0  0  0  0  0  0  0  0  0  0
   -2.7282   -5.0967   -1.1909 C   0  0  0  0  0  0  0  0  0  0  0  0
   -3.6131   -4.1686   -1.6850 C   0  0  0  0  0  0  0  0  0  0  0  0
   -2.5334   -1.0335    0.0897 N   0  0  0  0  0  0  0  0  0  0  0  0
   -1.4725   -0.7023    1.0095 C   0  0  0  0  0  0  0  0  0  0  0  0
   -0.1077   -0.6225    0.3544 C   0  0  0  0  0  0  0  0  0  0  0  0
    0.9654   -0.2818    1.3966 C   0  0  0  0  0  0  0  0  0  0  0  0
    2.2707   -0.2026    0.7920 N   0  0  0  0  0  0  0  0  0  0  0  0
    2.4657    0.8889   -0.1000 C   0  0  0  0  0  0  0  0  0  0  0  0
    3.5345    1.8245    0.3742 C   0  0  0  0  0  0  0  0  0  0  0  0
    4.7761    1.2042    0.7240 N   0  0  0  0  0  0  0  0  0  0  0  0
    5.6502    1.1566   -0.4017 C   0  0  0  0  0  0  0  0  0  0  0  0
    6.9879    0.5267   -0.1565 C   0  0  0  0  0  0  0  0  0  0  0  0
    7.6867    0.5793   -1.3762 O   0  0  0  0  0  0  0  0  0  0  0  0
    4.6497   -0.0156    1.4476 C   0  0  0  0  0  0  0  0  0  0  0  0
    3.2546   -0.3900    1.8024 C   0  0  0  0  0  0  0  0  0  0  0  0
   -3.4313   -0.0368   -0.3680 C   0  0  0  0  0  0  0  0  0  0  0  0
   -3.3575    1.2691    0.0694 C   0  0  0  0  0  0  0  0  0  0  0  0
   -4.8119    4.9702   -1.3420 H   0  0  0  0  0  0  0  0  0  0  0  0
   -6.0177    4.4127   -0.1625 H   0  0  0  0  0  0  0  0  0  0  0  0
   -4.7735    5.6622    0.3288 H   0  0  0  0  0  0  0  0  0  0  0  0
   -5.8414    2.8347   -1.5338 H   0  0  0  0  0  0  0  0  0  0  0  0
   -6.1223    0.5988   -2.4117 H   0  0  0  0  0  0  0  0  0  0  0  0
   -0.9840   -3.1694    0.8163 H   0  0  0  0  0  0  0  0  0  0  0  0
   -1.1046   -5.4328    0.0848 H   0  0  0  0  0  0  0  0  0  0  0  0
   -2.7654   -6.1291   -1.5011 H   0  0  0  0  0  0  0  0  0  0  0  0
   -4.3383   -4.5379   -2.3947 H   0  0  0  0  0  0  0  0  0  0  0  0
   -1.5883    0.2237    1.5636 H   0  0  0  0  0  0  0  0  0  0  0  0
   -1.4232   -1.5154    1.7937 H   0  0  0  0  0  0  0  0  0  0  0  0
   -0.1516    0.2961   -0.2918 H   0  0  0  0  0  0  0  0  0  0  0  0
    0.2278   -1.4969   -0.1791 H   0  0  0  0  0  0  0  0  0  0  0  0
    0.9881   -1.1752    2.0590 H   0  0  0  0  0  0  0  0  0  0  0  0
    0.7071    0.6153    1.9711 H   0  0  0  0  0  0  0  0  0  0  0  0
    1.5127    1.4964   -0.0940 H   0  0  0  0  0  0  0  0  0  0  0  0
    2.5774    0.5816   -1.1546 H   0  0  0  0  0  0  0  0  0  0  0  0
    3.7060    2.5362   -0.4863 H   0  0  0  0  0  0  0  0  0  0  0  0
    3.1044    2.4664    1.1709 H   0  0  0  0  0  0  0  0  0  0  0  0
    5.8581    2.2015   -0.7404 H   0  0  0  0  0  0  0  0  0  0  0  0
    5.1950    0.6446   -1.2876 H   0  0  0  0  0  0  0  0  0  0  0  0
    6.9466   -0.5531    0.0979 H   0  0  0  0  0  0  0  0  0  0  0  0
    7.5654    1.1321    0.5662 H   0  0  0  0  0  0  0  0  0  0  0  0
    8.2821    1.3624   -1.3910 H   0  0  0  0  0  0  0  0  0  0  0  0
    5.1872    0.1434    2.4270 H   0  0  0  0  0  0  0  0  0  0  0  0
    5.1453   -0.8994    0.9888 H   0  0  0  0  0  0  0  0  0  0  0  0
    3.2565   -1.4875    2.0722 H   0  0  0  0  0  0  0  0  0  0  0  0
    2.9589    0.1053    2.7643 H   0  0  0  0  0  0  0  0  0  0  0  0
   -2.6106    1.6014    0.7767 H   0  0  0  0  0  0  0  0  0  0  0  0
  1  2  1  0
  2  3  2  0
  2  4  1  0
  4  5  2  0
  5  6  1  0
  6  7  2  0
  7  8  1  0
  8  9  1  0
  9 10  2  0
 10 11  1  0
 11 12  2  0
 12 13  1  0
 13 14  2  0
 10 15  1  0
 15 16  1  0
 16 17  1  0
 17 18  1  0
 18 19  1  0
 19 20  1  0
 20 21  1  0
 21 22  1  0
 22 23  1  0
 23 24  1  0
 24 25  1  0
 22 26  1  0
 26 27  1  0
 15 28  1  0
 28 29  2  0
 29  4  1  0
 28  7  1  0
 14  9  1  0
 27 19  1  0
  1 30  1  0
  1 31  1  0
  1 32  1  0
  5 33  1  0
  6 34  1  0
 11 35  1  0
 12 36  1  0
 13 37  1  0
 14 38  1  0
 16 39  1  0
 16 40  1  0
 17 41  1  0
 17 42  1  0
 18 43  1  0
 18 44  1  0
 20 45  1  0
 20 46  1  0
 21 47  1  0
 21 48  1  0
 23 49  1  0
 23 50  1  0
 24 51  1  0
 24 52  1  0
 25 53  1  0
 26 54  1  0
 26 55  1  0
 27 56  1  0
 27 57  1  0
 29 58  1  0
M  END
$$$$
