@<TRIPOS>MOLECULE
*****
 58 61 0 0 0
SMALL
GASTEIGER

@<TRIPOS>ATOM
      1 C          -4.9531    4.7469   -0.2518 C.3     1  UNL1       -0.0014
      2 C          -4.0390    3.6671    0.1960 C.2     1  UNL1        0.1602
      3 O          -3.1181    3.9417    1.0388 O.2     1  UNL1       -0.2924
      4 C          -4.1767    2.3069   -0.3092 C.ar    1  UNL1        0.0189
      5 C          -5.1787    2.0435   -1.2142 C.ar    1  UNL1       -0.0501
      6 C          -5.3239    0.7604   -1.7043 C.ar    1  UNL1       -0.0455
      7 C          -4.4610   -0.1859   -1.2634 C.ar    1  UNL1        0.0341
      8 S          -4.7403   -1.7980   -1.9772 S.3     1  UNL1       -0.0857
      9 C          -3.5250   -2.8805   -1.2633 C.ar    1  UNL1        0.0341
     10 C          -2.6268   -2.3584   -0.3671 C.ar    1  UNL1        0.0479
     11 C          -1.7675   -3.3326    0.0938 C.ar    1  UNL1       -0.0393
     12 C          -1.7734   -4.6621   -0.2702 C.ar    1  UNL1       -0.0599
     13 C          -2.7282   -5.0967   -1.1909 C.ar    1  UNL1       -0.0606
     14 C          -3.6131   -4.1686   -1.6850 C.ar    1  UNL1       -0.0462
     15 N          -2.5334   -1.0335    0.0897 N.pl3   1  UNL1       -0.2983
     16 C          -1.4725   -0.7023    1.0095 C.3     1  UNL1        0.0185
     17 C          -0.1077   -0.6225    0.3544 C.3     1  UNL1       -0.0240
     18 C           0.9654   -0.2818    1.3966 C.3     1  UNL1        0.0004
     19 N           2.2707   -0.2026    0.7920 N.3     1  UNL1       -0.2999
     20 C           2.4657    0.8889   -0.1000 C.3     1  UNL1        0.0117
     21 C           3.5345    1.8245    0.3742 C.3     1  UNL1        0.0118
     22 N           4.7761    1.2042    0.7240 N.3     1  UNL1       -0.2977
     23 C           5.6502    1.1566   -0.4017 C.3     1  UNL1        0.0222
     24 C           6.9879    0.5267   -0.1565 C.3     1  UNL1        0.0569
     25 O           7.6867    0.5793   -1.3762 O.3     1  UNL1       -0.3937
     26 C           4.6497   -0.0156    1.4476 C.3     1  UNL1        0.0118
     27 C           3.2546   -0.3900    1.8024 C.3     1  UNL1        0.0117
     28 C          -3.4313   -0.0368   -0.3680 C.ar    1  UNL1        0.0485
     29 C          -3.3575    1.2691    0.0694 C.ar    1  UNL1       -0.0288
     30 H          -4.8119    4.9702   -1.3420 H       1  UNL1        0.0309
     31 H          -6.0177    4.4127   -0.1625 H       1  UNL1        0.0309
     32 H          -4.7735    5.6622    0.3288 H       1  UNL1        0.0309
     33 H          -5.8414    2.8347   -1.5338 H       1  UNL1        0.0625
     34 H          -6.1223    0.5988   -2.4117 H       1  UNL1        0.0629
     35 H          -0.9840   -3.1694    0.8163 H       1  UNL1        0.0636
     36 H          -1.1046   -5.4328    0.0848 H       1  UNL1        0.0618
     37 H          -2.7654   -6.1291   -1.5011 H       1  UNL1        0.0618
     38 H          -4.3383   -4.5379   -2.3947 H       1  UNL1        0.0629
     39 H          -1.5883    0.2237    1.5636 H       1  UNL1        0.0468
     40 H          -1.4232   -1.5154    1.7937 H       1  UNL1        0.0468
     41 H          -0.1516    0.2961   -0.2918 H       1  UNL1        0.0293
     42 H           0.2278   -1.4969   -0.1791 H       1  UNL1        0.0293
     43 H           0.9881   -1.1752    2.0590 H       1  UNL1        0.0427
     44 H           0.7071    0.6153    1.9711 H       1  UNL1        0.0427
     45 H           1.5127    1.4964   -0.0940 H       1  UNL1        0.0439
     46 H           2.5774    0.5816   -1.1546 H       1  UNL1        0.0439
     47 H           3.7060    2.5362   -0.4863 H       1  UNL1        0.0439
     48 H           3.1044    2.4664    1.1709 H       1  UNL1        0.0439
     49 H           5.8581    2.2015   -0.7404 H       1  UNL1        0.0449
     50 H           5.1950    0.6446   -1.2876 H       1  UNL1        0.0449
     51 H           6.9466   -0.5531    0.0979 H       1  UNL1        0.0570
     52 H           7.5654    1.1321    0.5662 H       1  UNL1        0.0570
     53 H           8.2821    1.3624   -1.3910 H       1  UNL1        0.2095
     54 H           5.1872    0.1434    2.4270 H       1  UNL1        0.0439
     55 H           5.1453   -0.8994    0.9888 H       1  UNL1        0.0439
     56 H           3.2565   -1.4875    2.0722 H       1  UNL1        0.0439
     57 H           2.9589    0.1053    2.7643 H       1  UNL1        0.0439
     58 H          -2.6106    1.6014    0.7767 H       1  UNL1        0.0643
@<TRIPOS>BOND
     1     1     2    1
     2     2     3    2
     3     2     4    1
     4     4     5   ar
     5     5     6   ar
     6     6     7   ar
     7     7     8    1
     8     8     9    1
     9     9    10   ar
    10    10    11   ar
    11    11    12   ar
    12    12    13   ar
    13    13    14   ar
    14    10    15    1
    15    15    16    1
    16    16    17    1
    17    17    18    1
    18    18    19    1
    19    19    20    1
    20    20    21    1
    21    21    22    1
    22    22    23    1
    23    23    24    1
    24    24    25    1
    25    22    26    1
    26    26    27    1
    27    15    28    1
    28    28    29   ar
    29    29     4   ar
    30    28     7   ar
    31    14     9   ar
    32    27    19    1
    33     1    30    1
    34     1    31    1
    35     1    32    1
    36     5    33    1
    37     6    34    1
    38    11    35    1
    39    12    36    1
    40    13    37    1
    41    14    38    1
    42    16    39    1
    43    16    40    1
    44    17    41    1
    45    17    42    1
    46    18    43    1
    47    18    44    1
    48    20    45    1
    49    20    46    1
    50    21    47    1
    51    21    48    1
    52    23    49    1
    53    23    50    1
    54    24    51    1
    55    24    52    1
    56    25    53    1
    57    26    54    1
    58    26    55    1
    59    27    56    1
    60    27    57    1
    61    29    58    1
