@<TRIPOS>MOLECULE
*****
 44 46 0 0 0
SMALL
GASTEIGER

@<TRIPOS>ATOM
      1 C          -3.2094    0.5997   -2.0454 C.3     1  UNL1       -0.0338
      2 C          -2.6485   -0.2773   -0.9433 C.3     1  UNL1        0.1120
      3 C          -1.2378   -0.6004   -1.3015 C.ar    1  UNL1        0.1058
      4 N          -0.1916   -0.2406   -0.5830 N.ar    1  UNL1       -0.2314
      5 C           1.1109   -0.5199   -0.8906 C.ar    1  UNL1        0.1257
      6 N           2.1058   -0.0491    0.0043 N.am    1  UNL1       -0.2650
      7 C           3.4764   -0.2377   -0.1511 C.2     1  UNL1        0.2691
      8 O           3.8923   -0.8990   -1.1674 O.2     1  UNL1       -0.2681
      9 C           4.5188    0.2615    0.7719 C.ar    1  UNL1        0.1440
     10 N           5.6972   -0.3851    0.7467 N.ar    1  UNL1       -0.2476
     11 C           6.7050    0.0083    1.5166 C.ar    1  UNL1        0.0459
     12 C           6.6165    1.0871    2.3800 C.ar    1  UNL1        0.0712
     13 C           7.7297    1.4896    3.2035 C.1     1  UNL1        0.1007
     14 N           8.6347    1.7971    3.8790 N.1     1  UNL1       -0.1908
     15 C           5.4112    1.7391    2.3967 C.ar    1  UNL1       -0.0223
     16 C           4.3551    1.3300    1.5914 C.ar    1  UNL1        0.0726
     17 CL          2.8720    2.2924    1.6619 Cl      1  UNL1       -0.0811
     18 C           1.3023   -1.2274   -2.0373 C.ar    1  UNL1       -0.0188
     19 C           0.2538   -1.6508   -2.8612 C.ar    1  UNL1       -0.0213
     20 C          -1.0197   -1.3158   -2.4580 C.ar    1  UNL1        0.1471
     21 F          -2.0415   -1.7381   -3.2689 F       1  UNL1       -0.2035
     22 C          -2.6501    0.4570    0.3880 C.3     1  UNL1        0.0238
     23 C          -3.9428    0.3922    1.1187 C.3     1  UNL1        0.1998
     24 C          -4.6496    1.7172    1.2418 C.3     1  UNL1        0.4266
     25 F          -5.8416    1.6042    1.9277 F       1  UNL1       -0.1669
     26 F          -4.9665    2.2551    0.0095 F       1  UNL1       -0.1669
     27 F          -3.8265    2.6464    1.8678 F       1  UNL1       -0.1669
     28 O          -4.8558   -0.5373    0.5588 O.2     1  UNL1       -0.4534
     29 C          -4.3806   -1.6701   -0.0931 C.2     1  UNL1        0.2765
     30 N          -4.9931   -2.9359   -0.0072 N.pl3   1  UNL1       -0.3134
     31 N          -3.3326   -1.5282   -0.8008 N.2     1  UNL1       -0.2241
     32 H          -4.2902    0.4686   -2.1802 H       1  UNL1        0.0257
     33 H          -2.9951    1.6537   -1.7227 H       1  UNL1        0.0257
     34 H          -2.6301    0.4416   -2.9601 H       1  UNL1        0.0257
     35 H           1.7484    0.4678    0.8819 H       1  UNL1        0.1566
     36 H           7.6679   -0.5207    1.4956 H       1  UNL1        0.0843
     37 H           5.2916    2.5943    3.0596 H       1  UNL1        0.0646
     38 H           2.2745   -1.5066   -2.3841 H       1  UNL1        0.0653
     39 H           0.4419   -2.2105   -3.7641 H       1  UNL1        0.0648
     40 H          -1.8306   -0.0050    0.9939 H       1  UNL1        0.0331
     41 H          -2.3667    1.5284    0.2598 H       1  UNL1        0.0331
     42 H          -3.7689    0.0312    2.1736 H       1  UNL1        0.0826
     43 H          -5.6817   -3.1323    0.7338 H       1  UNL1        0.1466
     44 H          -4.7549   -3.6745   -0.6883 H       1  UNL1        0.1466
@<TRIPOS>BOND
     1     2     1    1
     2     2     3    1
     3     3     4   ar
     4     4     5   ar
     5     5     6    1
     6     6     7   am
     7     7     8    2
     8     7     9    1
     9     9    10   ar
    10    10    11   ar
    11    11    12   ar
    12    12    13    1
    13    13    14    3
    14    12    15   ar
    15    15    16   ar
    16    16    17    1
    17     5    18   ar
    18    18    19   ar
    19    19    20   ar
    20    20    21    1
    21     2    22    1
    22    22    23    1
    23    23    24    1
    24    24    25    1
    25    24    26    1
    26    24    27    1
    27    23    28    1
    28    28    29    1
    29    29    30    1
    30    29    31    2
    31    31     2    1
    32    20     3   ar
    33    16     9   ar
    34     1    32    1
    35     1    33    1
    36     1    34    1
    37     6    35    1
    38    11    36    1
    39    15    37    1
    40    18    38    1
    41    19    39    1
    42    22    40    1
    43    22    41    1
    44    23    42    1
    45    30    43    1
    46    30    44    1
