@<TRIPOS>MOLECULE
*****
 50 52 0 0 0
SMALL
GASTEIGER

@<TRIPOS>ATOM
      1 C           0.8828   -1.3064    0.5611 C.3     1  UNL1       -0.0512
      2 C           0.8829   -0.1431   -0.3964 C.3     1  UNL1        0.0453
      3 C           1.0273    1.1259    0.4408 C.3     1  UNL1       -0.0512
      4 C           2.0288   -0.1760   -1.3536 C.3     1  UNL1       -0.0142
      5 C           3.3447   -0.1402   -0.6492 C.ar    1  UNL1       -0.0464
      6 C           3.9581    1.0518   -0.3653 C.ar    1  UNL1       -0.0580
      7 C           5.1783    1.1004    0.2873 C.ar    1  UNL1       -0.0499
      8 C           5.8188   -0.0520    0.6743 C.ar    1  UNL1        0.0548
      9 C           7.1364    0.0103    1.3786 C.3     1  UNL1        0.4174
     10 F           7.0976   -0.9442    2.3931 F       1  UNL1       -0.1659
     11 F           7.2582    1.2793    1.9139 F       1  UNL1       -0.1659
     12 F           8.1722   -0.2812    0.5185 F       1  UNL1       -0.1659
     13 C           5.2076   -1.2596    0.3921 C.ar    1  UNL1       -0.0499
     14 C           3.9957   -1.3016   -0.2563 C.ar    1  UNL1       -0.0580
     15 C          -0.3817   -0.1429   -1.1453 C.2     1  UNL1        0.2191
     16 O          -0.3932   -0.2432   -2.4062 O.2     1  UNL1       -0.2752
     17 N          -1.6147   -0.0258   -0.4122 N.am    1  UNL1       -0.3123
     18 C          -2.8160   -0.0304   -1.1839 C.3     1  UNL1        0.0418
     19 C          -4.0901    0.0760   -0.4320 C.3     1  UNL1        0.1305
     20 C          -4.3839   -1.0020    0.5404 C.3     1  UNL1       -0.0096
     21 C          -3.6339   -1.3280    1.7450 C.3     1  UNL1       -0.0474
     22 C          -5.0758   -0.7600    1.8117 C.3     1  UNL1       -0.0474
     23 N          -4.1324    1.4032    0.1654 N.am    1  UNL1       -0.2834
     24 C          -4.3622    2.3242   -0.8936 C.2     1  UNL1        0.3068
     25 O          -4.0554    3.5422   -0.9774 O.2     1  UNL1       -0.2524
     26 N          -5.0501    1.5678   -1.9140 N.am    1  UNL1       -0.2383
     27 C          -5.2069    0.2367   -1.4377 C.2     1  UNL1        0.2457
     28 O          -6.0661   -0.6185   -1.7651 O.2     1  UNL1       -0.2729
     29 H           0.5528   -2.2448    0.0840 H       1  UNL1        0.0240
     30 H           0.1809   -1.0351    1.3890 H       1  UNL1        0.0240
     31 H           1.8871   -1.3805    1.0341 H       1  UNL1        0.0240
     32 H           0.1561    1.1327    1.1354 H       1  UNL1        0.0240
     33 H           1.0552    2.0227   -0.2055 H       1  UNL1        0.0240
     34 H           1.9455    1.0067    1.0595 H       1  UNL1        0.0240
     35 H           1.9848    0.7500   -1.9657 H       1  UNL1        0.0323
     36 H           1.9992   -1.0445   -2.0432 H       1  UNL1        0.0323
     37 H           3.4683    1.9723   -0.6628 H       1  UNL1        0.0620
     38 H           5.6478    2.0641    0.5026 H       1  UNL1        0.0623
     39 H           5.7208   -2.1554    0.7012 H       1  UNL1        0.0623
     40 H           3.5450   -2.2626   -0.4616 H       1  UNL1        0.0620
     41 H          -1.5623    0.0606    0.6067 H       1  UNL1        0.1488
     42 H          -2.8123   -0.9942   -1.7704 H       1  UNL1        0.0488
     43 H          -2.7607    0.7847   -1.9726 H       1  UNL1        0.0488
     44 H          -4.7928   -1.9274   -0.0083 H       1  UNL1        0.0327
     45 H          -2.9184   -0.7141    2.2860 H       1  UNL1        0.0269
     46 H          -3.5803   -2.4153    2.0640 H       1  UNL1        0.0269
     47 H          -5.1750    0.2694    2.2226 H       1  UNL1        0.0269
     48 H          -5.8618   -1.4528    2.1735 H       1  UNL1        0.0269
     49 H          -4.0222    1.6831    1.1670 H       1  UNL1        0.1513
     50 H          -5.3849    1.9175   -2.8496 H       1  UNL1        0.1591
@<TRIPOS>BOND
     1     1     2    1
     2     2     3    1
     3     2     4    1
     4     4     5    1
     5     5     6   ar
     6     6     7   ar
     7     7     8   ar
     8     8     9    1
     9     9    10    1
    10     9    11    1
    11     9    12    1
    12     8    13   ar
    13    13    14   ar
    14     2    15    1
    15    15    16    2
    16    15    17   am
    17    17    18    1
    18    19    18    1
    19    19    20    1
    20    20    21    1
    21    21    22    1
    22    19    23    1
    23    23    24   am
    24    24    25    2
    25    24    26   am
    26    26    27   am
    27    27    28    2
    28    14     5   ar
    29    27    19    1
    30    22    20    1
    31     1    29    1
    32     1    30    1
    33     1    31    1
    34     3    32    1
    35     3    33    1
    36     3    34    1
    37     4    35    1
    38     4    36    1
    39     6    37    1
    40     7    38    1
    41    13    39    1
    42    14    40    1
    43    17    41    1
    44    18    42    1
    45    18    43    1
    46    20    44    1
    47    21    45    1
    48    21    46    1
    49    22    47    1
    50    22    48    1
    51    23    49    1
    52    26    50    1
