@<TRIPOS>MOLECULE
*****
 31 32 0 0 0
SMALL
GASTEIGER

@<TRIPOS>ATOM
      1 C           3.7533   -0.1301    0.9412 C.3     1  UNL1       -0.0130
      2 N           2.7656    0.7312    0.3554 N.3     1  UNL1       -0.3080
      3 C           3.2932    1.5648   -0.6976 C.3     1  UNL1       -0.0130
      4 C           1.5482    0.0655   -0.0076 C.3     1  UNL1        0.0024
      5 C           0.7381   -0.4218    1.1419 C.3     1  UNL1       -0.0129
      6 C          -0.4800   -1.0855    0.6041 C.ar    1  UNL1       -0.0210
      7 C          -0.7890   -2.4296    0.4940 C.ar    1  UNL1        0.0059
      8 N          -2.0085   -2.5487   -0.0580 N.ar    1  UNL1       -0.3604
      9 C          -2.4935   -1.3236   -0.3070 C.ar    1  UNL1        0.0470
     10 C          -1.5498   -0.3806    0.1007 C.ar    1  UNL1        0.0063
     11 C          -1.8197    0.9641   -0.0539 C.ar    1  UNL1       -0.0108
     12 C          -2.9956    1.4445   -0.6006 C.ar    1  UNL1        0.1176
     13 O          -3.1796    2.8134   -0.7165 O.3     1  UNL1       -0.5067
     14 C          -3.9356    0.5255   -1.0061 C.ar    1  UNL1       -0.0182
     15 C          -3.6734   -0.8196   -0.8556 C.ar    1  UNL1       -0.0343
     16 H           4.6925   -0.0217    0.3514 H       1  UNL1        0.0391
     17 H           3.4127   -1.1676    0.8173 H       1  UNL1        0.0391
     18 H           3.9981    0.1347    1.9953 H       1  UNL1        0.0391
     19 H           4.3547    1.2654   -0.8728 H       1  UNL1        0.0391
     20 H           2.7874    1.3418   -1.6741 H       1  UNL1        0.0391
     21 H           3.2493    2.6371   -0.5101 H       1  UNL1        0.0391
     22 H           0.9775    0.8020   -0.6383 H       1  UNL1        0.0429
     23 H           1.7988   -0.7696   -0.6888 H       1  UNL1        0.0429
     24 H           1.3020   -1.2434    1.6582 H       1  UNL1        0.0326
     25 H           0.4845    0.3432    1.8820 H       1  UNL1        0.0326
     26 H          -0.1080   -3.2111    0.8224 H       1  UNL1        0.0810
     27 H          -2.5172   -3.4350   -0.2690 H       1  UNL1        0.1653
     28 H          -1.0788    1.6878    0.2668 H       1  UNL1        0.0661
     29 H          -3.2890    3.3942    0.1207 H       1  UNL1        0.2921
     30 H          -4.8748    0.8618   -1.4431 H       1  UNL1        0.0655
     31 H          -4.3635   -1.5893   -1.1527 H       1  UNL1        0.0639
@<TRIPOS>BOND
     1     1     2    1
     2     2     3    1
     3     2     4    1
     4     4     5    1
     5     5     6    1
     6     6     7   ar
     7     7     8   ar
     8     8     9   ar
     9     9    10   ar
    10    10    11   ar
    11    11    12   ar
    12    12    13    1
    13    12    14   ar
    14    14    15   ar
    15    10     6   ar
    16    15     9   ar
    17     1    16    1
    18     1    17    1
    19     1    18    1
    20     3    19    1
    21     3    20    1
    22     3    21    1
    23     4    22    1
    24     4    23    1
    25     5    24    1
    26     5    25    1
    27     7    26    1
    28     8    27    1
    29    11    28    1
    30    13    29    1
    31    14    30    1
    32    15    31    1
