
     RDKit          3D

 31 32  0  0  0  0  0  0  0  0999 V2000
    3.7533   -0.1301    0.9412 C   0  0  0  0  0  0  0  0  0  0  0  0
    2.7656    0.7312    0.3554 N   0  0  0  0  0  0  0  0  0  0  0  0
    3.2932    1.5648   -0.6976 C   0  0  0  0  0  0  0  0  0  0  0  0
    1.5482    0.0655   -0.0076 C   0  0  0  0  0  0  0  0  0  0  0  0
    0.7381   -0.4218    1.1419 C   0  0  0  0  0  0  0  0  0  0  0  0
   -0.4800   -1.0855    0.6041 C   0  0  0  0  0  0  0  0  0  0  0  0
   -0.7890   -2.4296    0.4940 C   0  0  0  0  0  0  0  0  0  0  0  0
   -2.0085   -2.5487   -0.0580 N   0  0  0  0  0  0  0  0  0  0  0  0
   -2.4935   -1.3236   -0.3070 C   0  0  0  0  0  0  0  0  0  0  0  0
   -1.5498   -0.3806    0.1007 C   0  0  0  0  0  0  0  0  0  0  0  0
   -1.8197    0.9641   -0.0539 C   0  0  0  0  0  0  0  0  0  0  0  0
   -2.9956    1.4445   -0.6006 C   0  0  0  0  0  0  0  0  0  0  0  0
   -3.1796    2.8134   -0.7165 O   0  0  0  0  0  0  0  0  0  0  0  0
   -3.9356    0.5255   -1.0061 C   0  0  0  0  0  0  0  0  0  0  0  0
   -3.6734   -0.8196   -0.8556 C   0  0  0  0  0  0  0  0  0  0  0  0
    4.6925   -0.0217    0.3514 H   0  0  0  0  0  0  0  0  0  0  0  0
    3.4127   -1.1676    0.8173 H   0  0  0  0  0  0  0  0  0  0  0  0
    3.9981    0.1347    1.9953 H   0  0  0  0  0  0  0  0  0  0  0  0
    4.3547    1.2654   -0.8728 H   0  0  0  0  0  0  0  0  0  0  0  0
    2.7874    1.3418   -1.6741 H   0  0  0  0  0  0  0  0  0  0  0  0
    3.2493    2.6371   -0.5101 H   0  0  0  0  0  0  0  0  0  0  0  0
    0.9775    0.8020   -0.6383 H   0  0  0  0  0  0  0  0  0  0  0  0
    1.7988   -0.7696   -0.6888 H   0  0  0  0  0  0  0  0  0  0  0  0
    1.3020   -1.2434    1.6582 H   0  0  0  0  0  0  0  0  0  0  0  0
    0.4845    0.3432    1.8820 H   0  0  0  0  0  0  0  0  0  0  0  0
   -0.1080   -3.2111    0.8224 H   0  0  0  0  0  0  0  0  0  0  0  0
   -2.5172   -3.4350   -0.2690 H   0  0  0  0  0  0  0  0  0  0  0  0
   -1.0788    1.6878    0.2668 H   0  0  0  0  0  0  0  0  0  0  0  0
   -3.2890    3.3942    0.1207 H   0  0  0  0  0  0  0  0  0  0  0  0
   -4.8748    0.8618   -1.4431 H   0  0  0  0  0  0  0  0  0  0  0  0
   -4.3635   -1.5893   -1.1527 H   0  0  0  0  0  0  0  0  0  0  0  0
  1  2  1  0
  2  3  1  0
  2  4  1  0
  4  5  1  0
  5  6  1  0
  6  7  2  0
  7  8  1  0
  8  9  1  0
  9 10  2  0
 10 11  1  0
 11 12  2  0
 12 13  1  0
 12 14  1  0
 14 15  2  0
 10  6  1  0
 15  9  1  0
  1 16  1  0
  1 17  1  0
  1 18  1  0
  3 19  1  0
  3 20  1  0
  3 21  1  0
  4 22  1  0
  4 23  1  0
  5 24  1  0
  5 25  1  0
  7 26  1  0
  8 27  1  0
 11 28  1  0
 13 29  1  0
 14 30  1  0
 15 31  1  0
M  END
$$$$
