@<TRIPOS>MOLECULE
*****
 51 54 0 0 0
SMALL
GASTEIGER

@<TRIPOS>ATOM
      1 C          -5.3919   -0.1904   -1.6048 C.3     1  UNL1       -0.0543
      2 C          -4.4241   -0.2365   -0.4386 C.3     1  UNL1        0.0080
      3 C          -4.9390   -1.2212    0.5888 C.3     1  UNL1       -0.0543
      4 C          -3.0295   -0.5145   -0.8759 C.3     1  UNL1        0.0290
      5 N          -2.2290    0.2512    0.0600 N.am    1  UNL1       -0.2700
      6 C          -0.9135   -0.0519    0.4930 C.2     1  UNL1        0.2271
      7 O          -0.3216    0.6980    1.3150 O.2     1  UNL1       -0.2748
      8 C          -0.1750   -1.2457    0.0114 C.3     1  UNL1        0.0826
      9 C           1.1795   -1.3312    0.6179 C.ar    1  UNL1        0.1206
     10 N           2.2507   -0.7401    0.0111 N.ar    1  UNL1       -0.2186
     11 C           3.4767   -0.8094    0.5467 C.ar    1  UNL1        0.1285
     12 N           4.6123   -0.2109   -0.0503 N.pl3   1  UNL1       -0.3106
     13 C           4.4608    0.5220   -1.3114 C.3     1  UNL1        0.0370
     14 C           5.3510   -0.2064   -2.3135 C.3     1  UNL1        0.0634
     15 O           6.5849   -0.5217   -1.7976 O.3     1  UNL1       -0.3767
     16 C           6.8980    0.1267   -0.6209 C.3     1  UNL1        0.0634
     17 C           5.9353   -0.2720    0.5054 C.3     1  UNL1        0.0370
     18 C           3.6122   -1.4991    1.7308 C.ar    1  UNL1        0.0427
     19 C           2.5123   -2.1010    2.3457 C.ar    1  UNL1        0.2533
     20 O           2.6059   -2.7354    3.4242 O.2     1  UNL1       -0.2677
     21 N           1.3040   -2.0052    1.7725 N.ar    1  UNL1       -0.3104
     22 C          -3.0321    1.3669    0.4542 C.ar    1  UNL1        0.0400
     23 C          -2.7310    2.5917    1.0395 C.ar    1  UNL1       -0.0400
     24 C          -3.7109    3.5214    1.3208 C.ar    1  UNL1       -0.0600
     25 C          -5.0164    3.2246    1.0127 C.ar    1  UNL1       -0.0614
     26 C          -5.3587    2.0317    0.4361 C.ar    1  UNL1       -0.0562
     27 C          -4.3500    1.1148    0.1646 C.ar    1  UNL1       -0.0188
     28 H          -5.5758   -1.2178   -1.9906 H       1  UNL1        0.0239
     29 H          -6.3172    0.3062   -1.2868 H       1  UNL1        0.0239
     30 H          -4.9153    0.4321   -2.3978 H       1  UNL1        0.0239
     31 H          -6.0450   -1.2051    0.5347 H       1  UNL1        0.0239
     32 H          -4.5912   -0.9161    1.5904 H       1  UNL1        0.0239
     33 H          -4.6015   -2.2278    0.3105 H       1  UNL1        0.0239
     34 H          -2.8043   -1.5841   -0.7100 H       1  UNL1        0.0477
     35 H          -2.8895   -0.1844   -1.9195 H       1  UNL1        0.0477
     36 H          -0.0176   -1.1690   -1.0947 H       1  UNL1        0.0438
     37 H          -0.7556   -2.1832    0.1670 H       1  UNL1        0.0438
     38 H           4.8204    1.5602   -1.1494 H       1  UNL1        0.0487
     39 H           3.4389    0.4727   -1.6855 H       1  UNL1        0.0487
     40 H           4.8226   -1.1853   -2.5070 H       1  UNL1        0.0575
     41 H           5.3689    0.3733   -3.2409 H       1  UNL1        0.0575
     42 H           7.8936   -0.2459   -0.2959 H       1  UNL1        0.0575
     43 H           6.9455    1.2304   -0.7206 H       1  UNL1        0.0575
     44 H           6.1033    0.4876    1.3062 H       1  UNL1        0.0487
     45 H           6.2252   -1.2642    0.8609 H       1  UNL1        0.0487
     46 H           4.5692   -1.5846    2.2007 H       1  UNL1        0.0706
     47 H           0.4662   -2.4634    2.2403 H       1  UNL1        0.1700
     48 H          -1.6910    2.7811    1.2641 H       1  UNL1        0.0636
     49 H          -3.4107    4.4680    1.7822 H       1  UNL1        0.0618
     50 H          -5.8105    3.9390    1.2231 H       1  UNL1        0.0618
     51 H          -6.3893    1.8236    0.2046 H       1  UNL1        0.0621
@<TRIPOS>BOND
     1     1     2    1
     2     2     3    1
     3     2     4    1
     4     4     5    1
     5     5     6   am
     6     6     7    2
     7     6     8    1
     8     8     9    1
     9     9    10   ar
    10    10    11   ar
    11    11    12    1
    12    12    13    1
    13    13    14    1
    14    14    15    1
    15    15    16    1
    16    16    17    1
    17    11    18   ar
    18    18    19   ar
    19    19    20    2
    20    19    21   ar
    21     5    22    1
    22    22    23   ar
    23    23    24   ar
    24    24    25   ar
    25    25    26   ar
    26    26    27   ar
    27    27     2    1
    28    21     9   ar
    29    27    22   ar
    30    17    12    1
    31     1    28    1
    32     1    29    1
    33     1    30    1
    34     3    31    1
    35     3    32    1
    36     3    33    1
    37     4    34    1
    38     4    35    1
    39     8    36    1
    40     8    37    1
    41    13    38    1
    42    13    39    1
    43    14    40    1
    44    14    41    1
    45    16    42    1
    46    16    43    1
    47    17    44    1
    48    17    45    1
    49    18    46    1
    50    21    47    1
    51    23    48    1
    52    24    49    1
    53    25    50    1
    54    26    51    1
