
     RDKit          3D

 51 54  0  0  0  0  0  0  0  0999 V2000
   -5.3919   -0.1904   -1.6048 C   0  0  0  0  0  0  0  0  0  0  0  0
   -4.4241   -0.2365   -0.4386 C   0  0  0  0  0  0  0  0  0  0  0  0
   -4.9390   -1.2212    0.5888 C   0  0  0  0  0  0  0  0  0  0  0  0
   -3.0295   -0.5145   -0.8759 C   0  0  0  0  0  0  0  0  0  0  0  0
   -2.2290    0.2512    0.0600 N   0  0  0  0  0  0  0  0  0  0  0  0
   -0.9135   -0.0519    0.4930 C   0  0  0  0  0  0  0  0  0  0  0  0
   -0.3216    0.6980    1.3150 O   0  0  0  0  0  0  0  0  0  0  0  0
   -0.1750   -1.2457    0.0114 C   0  0  0  0  0  0  0  0  0  0  0  0
    1.1795   -1.3312    0.6179 C   0  0  0  0  0  0  0  0  0  0  0  0
    2.2507   -0.7401    0.0111 N   0  0  0  0  0  0  0  0  0  0  0  0
    3.4767   -0.8094    0.5467 C   0  0  0  0  0  0  0  0  0  0  0  0
    4.6123   -0.2109   -0.0503 N   0  0  0  0  0  0  0  0  0  0  0  0
    4.4608    0.5220   -1.3114 C   0  0  0  0  0  0  0  0  0  0  0  0
    5.3510   -0.2064   -2.3135 C   0  0  0  0  0  0  0  0  0  0  0  0
    6.5849   -0.5217   -1.7976 O   0  0  0  0  0  0  0  0  0  0  0  0
    6.8980    0.1267   -0.6209 C   0  0  0  0  0  0  0  0  0  0  0  0
    5.9353   -0.2720    0.5054 C   0  0  0  0  0  0  0  0  0  0  0  0
    3.6122   -1.4991    1.7308 C   0  0  0  0  0  0  0  0  0  0  0  0
    2.5123   -2.1010    2.3457 C   0  0  0  0  0  0  0  0  0  0  0  0
    2.6059   -2.7354    3.4242 O   0  0  0  0  0  0  0  0  0  0  0  0
    1.3040   -2.0052    1.7725 N   0  0  0  0  0  0  0  0  0  0  0  0
   -3.0321    1.3669    0.4542 C   0  0  0  0  0  0  0  0  0  0  0  0
   -2.7310    2.5917    1.0395 C   0  0  0  0  0  0  0  0  0  0  0  0
   -3.7109    3.5214    1.3208 C   0  0  0  0  0  0  0  0  0  0  0  0
   -5.0164    3.2246    1.0127 C   0  0  0  0  0  0  0  0  0  0  0  0
   -5.3587    2.0317    0.4361 C   0  0  0  0  0  0  0  0  0  0  0  0
   -4.3500    1.1148    0.1646 C   0  0  0  0  0  0  0  0  0  0  0  0
   -5.5758   -1.2178   -1.9906 H   0  0  0  0  0  0  0  0  0  0  0  0
   -6.3172    0.3062   -1.2868 H   0  0  0  0  0  0  0  0  0  0  0  0
   -4.9153    0.4321   -2.3978 H   0  0  0  0  0  0  0  0  0  0  0  0
   -6.0450   -1.2051    0.5347 H   0  0  0  0  0  0  0  0  0  0  0  0
   -4.5912   -0.9161    1.5904 H   0  0  0  0  0  0  0  0  0  0  0  0
   -4.6015   -2.2278    0.3105 H   0  0  0  0  0  0  0  0  0  0  0  0
   -2.8043   -1.5841   -0.7100 H   0  0  0  0  0  0  0  0  0  0  0  0
   -2.8895   -0.1844   -1.9195 H   0  0  0  0  0  0  0  0  0  0  0  0
   -0.0176   -1.1690   -1.0947 H   0  0  0  0  0  0  0  0  0  0  0  0
   -0.7556   -2.1832    0.1670 H   0  0  0  0  0  0  0  0  0  0  0  0
    4.8204    1.5602   -1.1494 H   0  0  0  0  0  0  0  0  0  0  0  0
    3.4389    0.4727   -1.6855 H   0  0  0  0  0  0  0  0  0  0  0  0
    4.8226   -1.1853   -2.5070 H   0  0  0  0  0  0  0  0  0  0  0  0
    5.3689    0.3733   -3.2409 H   0  0  0  0  0  0  0  0  0  0  0  0
    7.8936   -0.2459   -0.2959 H   0  0  0  0  0  0  0  0  0  0  0  0
    6.9455    1.2304   -0.7206 H   0  0  0  0  0  0  0  0  0  0  0  0
    6.1033    0.4876    1.3062 H   0  0  0  0  0  0  0  0  0  0  0  0
    6.2252   -1.2642    0.8609 H   0  0  0  0  0  0  0  0  0  0  0  0
    4.5692   -1.5846    2.2007 H   0  0  0  0  0  0  0  0  0  0  0  0
    0.4662   -2.4634    2.2403 H   0  0  0  0  0  0  0  0  0  0  0  0
   -1.6910    2.7811    1.2641 H   0  0  0  0  0  0  0  0  0  0  0  0
   -3.4107    4.4680    1.7822 H   0  0  0  0  0  0  0  0  0  0  0  0
   -5.8105    3.9390    1.2231 H   0  0  0  0  0  0  0  0  0  0  0  0
   -6.3893    1.8236    0.2046 H   0  0  0  0  0  0  0  0  0  0  0  0
  1  2  1  0
  2  3  1  0
  2  4  1  0
  4  5  1  0
  5  6  1  0
  6  7  2  0
  6  8  1  0
  8  9  1  0
  9 10  2  0
 10 11  1  0
 11 12  1  0
 12 13  1  0
 13 14  1  0
 14 15  1  0
 15 16  1  0
 16 17  1  0
 11 18  2  0
 18 19  1  0
 19 20  2  0
 19 21  1  0
  5 22  1  0
 22 23  2  0
 23 24  1  0
 24 25  2  0
 25 26  1  0
 26 27  2  0
 27  2  1  0
 21  9  1  0
 27 22  1  0
 17 12  1  0
  1 28  1  0
  1 29  1  0
  1 30  1  0
  3 31  1  0
  3 32  1  0
  3 33  1  0
  4 34  1  0
  4 35  1  0
  8 36  1  0
  8 37  1  0
 13 38  1  0
 13 39  1  0
 14 40  1  0
 14 41  1  0
 16 42  1  0
 16 43  1  0
 17 44  1  0
 17 45  1  0
 18 46  1  0
 21 47  1  0
 23 48  1  0
 24 49  1  0
 25 50  1  0
 26 51  1  0
M  END
$$$$
