
     RDKit          3D

 65 70  0  0  0  0  0  0  0  0999 V2000
    1.8133   -3.7188   -2.6128 C   0  0  0  0  0  0  0  0  0  0  0  0
    0.7763   -3.0630   -1.9287 O   0  0  0  0  0  0  0  0  0  0  0  0
    1.0837   -2.2499   -0.8558 C   0  0  0  0  0  0  0  0  0  0  0  0
    2.3813   -2.0785   -0.4483 C   0  0  0  0  0  0  0  0  0  0  0  0
    2.7326   -1.2647    0.6353 C   0  0  0  0  0  0  0  0  0  0  0  0
    4.1288   -1.1386    1.0373 C   0  0  0  0  0  0  0  0  0  0  0  0
    4.5563   -1.7881    2.0280 O   0  0  0  0  0  0  0  0  0  0  0  0
    5.0118   -0.2975    0.3233 N   0  0  0  0  0  0  0  0  0  0  0  0
    4.5203    0.4675   -0.7979 C   0  0  0  0  0  0  0  0  0  0  0  0
    4.8194    1.9190   -0.5887 C   0  0  0  0  0  0  0  0  0  0  0  0
    5.9070    2.1893    0.4204 C   0  0  0  0  0  0  0  0  0  0  0  0
    6.9835    1.1355    0.3602 C   0  0  1  0  0  0  0  0  0  0  0  0
    8.0498    1.5337    1.2838 N   0  0  0  0  0  0  0  0  0  0  0  0
    6.4224   -0.2073    0.6809 C   0  0  0  0  0  0  0  0  0  0  0  0
    1.6935   -0.6352    1.2786 C   0  0  0  0  0  0  0  0  0  0  0  0
    0.3791   -0.7887    0.8908 C   0  0  0  0  0  0  0  0  0  0  0  0
   -0.7899   -0.3012    1.3483 N   0  0  0  0  0  0  0  0  0  0  0  0
   -1.8211   -0.7797    0.6006 C   0  0  0  0  0  0  0  0  0  0  0  0
   -3.2342   -0.4341    0.8997 C   0  0  0  0  0  0  0  0  0  0  0  0
   -3.8226   -0.6870    2.1492 C   0  0  0  0  0  0  0  0  0  0  0  0
   -5.0979   -0.2606    2.1142 C   0  0  0  0  0  0  0  0  0  0  0  0
   -6.1078   -0.2733    3.0687 C   0  0  0  0  0  0  0  0  0  0  0  0
   -7.3413    0.2271    2.7731 C   0  0  0  0  0  0  0  0  0  0  0  0
   -7.5691    0.7446    1.5168 C   0  0  0  0  0  0  0  0  0  0  0  0
   -6.5705    0.7515    0.5947 C   0  0  0  0  0  0  0  0  0  0  0  0
   -5.3000    0.2495    0.8606 C   0  0  0  0  0  0  0  0  0  0  0  0
   -4.1576    0.1337    0.1445 N   0  0  0  0  0  0  0  0  0  0  0  0
   -4.0729    0.6171   -1.2190 C   0  0  0  0  0  0  0  0  0  0  0  0
   -3.5942    2.0256   -1.3550 C   0  0  0  0  0  0  0  0  0  0  0  0
   -4.2546    3.1967   -0.7646 C   0  0  0  0  0  0  0  0  0  0  0  0
   -4.5653    2.9267   -2.1858 C   0  0  0  0  0  0  0  0  0  0  0  0
   -1.2938   -1.5652   -0.3220 N   0  0  0  0  0  0  0  0  0  0  0  0
   -1.9356   -2.3344   -1.3548 C   0  0  0  0  0  0  0  0  0  0  0  0
    0.0650   -1.5995   -0.1819 C   0  0  0  0  0  0  0  0  0  0  0  0
    1.4310   -4.1442   -3.5825 H   0  0  0  0  0  0  0  0  0  0  0  0
    2.2739   -4.5444   -2.0455 H   0  0  0  0  0  0  0  0  0  0  0  0
    2.6084   -2.9709   -2.8233 H   0  0  0  0  0  0  0  0  0  0  0  0
    3.2325   -2.5661   -0.9405 H   0  0  0  0  0  0  0  0  0  0  0  0
    3.4109    0.2848   -0.9156 H   0  0  0  0  0  0  0  0  0  0  0  0
    5.0562    0.1162   -1.7082 H   0  0  0  0  0  0  0  0  0  0  0  0
    5.0695    2.3763   -1.5752 H   0  0  0  0  0  0  0  0  0  0  0  0
    3.8945    2.4216   -0.1839 H   0  0  0  0  0  0  0  0  0  0  0  0
    5.5176    2.1907    1.4648 H   0  0  0  0  0  0  0  0  0  0  0  0
    6.3662    3.1977    0.2215 H   0  0  0  0  0  0  0  0  0  0  0  0
    7.4583    1.1944   -0.6546 H   0  0  0  0  0  0  0  0  0  0  0  0
    8.8505    0.8727    1.1082 H   0  0  0  0  0  0  0  0  0  0  0  0
    7.7543    1.4255    2.2696 H   0  0  0  0  0  0  0  0  0  0  0  0
    6.6085   -0.5405    1.7113 H   0  0  0  0  0  0  0  0  0  0  0  0
    6.9571   -0.9547    0.0176 H   0  0  0  0  0  0  0  0  0  0  0  0
    1.9330   -0.0052    2.1175 H   0  0  0  0  0  0  0  0  0  0  0  0
   -3.2592   -1.1600    2.9744 H   0  0  0  0  0  0  0  0  0  0  0  0
   -5.8499   -0.6976    4.0446 H   0  0  0  0  0  0  0  0  0  0  0  0
   -8.1320    0.2212    3.5069 H   0  0  0  0  0  0  0  0  0  0  0  0
   -8.5526    1.1425    1.2742 H   0  0  0  0  0  0  0  0  0  0  0  0
   -6.7313    1.1529   -0.3919 H   0  0  0  0  0  0  0  0  0  0  0  0
   -5.0976    0.4891   -1.6869 H   0  0  0  0  0  0  0  0  0  0  0  0
   -3.4211   -0.0356   -1.8043 H   0  0  0  0  0  0  0  0  0  0  0  0
   -2.5169    2.1417   -1.6778 H   0  0  0  0  0  0  0  0  0  0  0  0
   -3.5939    4.1006   -0.6047 H   0  0  0  0  0  0  0  0  0  0  0  0
   -5.0615    3.1404   -0.0186 H   0  0  0  0  0  0  0  0  0  0  0  0
   -5.5661    2.5178   -2.4087 H   0  0  0  0  0  0  0  0  0  0  0  0
   -4.1022    3.4800   -3.0292 H   0  0  0  0  0  0  0  0  0  0  0  0
   -1.8023   -1.7298   -2.3027 H   0  0  0  0  0  0  0  0  0  0  0  0
   -3.0255   -2.4316   -1.2264 H   0  0  0  0  0  0  0  0  0  0  0  0
   -1.5062   -3.3378   -1.5235 H   0  0  0  0  0  0  0  0  0  0  0  0
  1  2  1  0
  2  3  1  0
  3  4  2  0
  4  5  1  0
  5  6  1  0
  6  7  2  0
  6  8  1  0
  8  9  1  0
  9 10  1  0
 10 11  1  0
 11 12  1  0
 12 13  1  0
 12 14  1  0
  5 15  2  0
 15 16  1  0
 16 17  1  0
 17 18  2  0
 18 19  1  0
 19 20  2  0
 20 21  1  0
 21 22  2  0
 22 23  1  0
 23 24  2  0
 24 25  1  0
 25 26  2  0
 26 27  1  0
 27 28  1  0
 28 29  1  0
 29 30  1  0
 30 31  1  0
 18 32  1  0
 32 33  1  0
 32 34  1  0
 34  3  1  0
 14  8  1  0
 34 16  2  0
 27 19  1  0
 31 29  1  0
 26 21  1  0
  1 35  1  0
  1 36  1  0
  1 37  1  0
  4 38  1  0
  9 39  1  0
  9 40  1  0
 10 41  1  0
 10 42  1  0
 11 43  1  0
 11 44  1  0
 12 45  1  6
 13 46  1  0
 13 47  1  0
 14 48  1  0
 14 49  1  0
 15 50  1  0
 20 51  1  0
 22 52  1  0
 23 53  1  0
 24 54  1  0
 25 55  1  0
 28 56  1  0
 28 57  1  0
 29 58  1  0
 30 59  1  0
 30 60  1  0
 31 61  1  0
 31 62  1  0
 33 63  1  0
 33 64  1  0
 33 65  1  0
M  END
$$$$
