@<TRIPOS>MOLECULE
*****
 65 70 0 0 0
SMALL
GASTEIGER

@<TRIPOS>ATOM
      1 C           1.8133   -3.7188   -2.6128 C.3     1  UNL1        0.0789
      2 O           0.7763   -3.0630   -1.9287 O.3     1  UNL1       -0.4930
      3 C           1.0837   -2.2499   -0.8558 C.ar    1  UNL1        0.1463
      4 C           2.3813   -2.0785   -0.4483 C.ar    1  UNL1       -0.0057
      5 C           2.7326   -1.2647    0.6353 C.ar    1  UNL1        0.0425
      6 C           4.1288   -1.1386    1.0373 C.2     1  UNL1        0.2468
      7 O           4.5563   -1.7881    2.0280 O.2     1  UNL1       -0.2700
      8 N           5.0118   -0.2975    0.3233 N.am    1  UNL1       -0.2960
      9 C           4.5203    0.4675   -0.7979 C.3     1  UNL1        0.0151
     10 C           4.8194    1.9190   -0.5887 C.3     1  UNL1       -0.0357
     11 C           5.9070    2.1893    0.4204 C.3     1  UNL1       -0.0349
     12 C           6.9835    1.1355    0.3602 C.3     1  UNL1        0.0208
     13 N           8.0498    1.5337    1.2838 N.3     1  UNL1       -0.3259
     14 C           6.4224   -0.2073    0.6809 C.3     1  UNL1        0.0302
     15 C           1.6935   -0.6352    1.2786 C.ar    1  UNL1       -0.0219
     16 C           0.3791   -0.7887    0.8908 C.ar    1  UNL1        0.0940
     17 N          -0.7899   -0.3012    1.3483 N.ar    1  UNL1       -0.2259
     18 C          -1.8211   -0.7797    0.6006 C.ar    1  UNL1        0.1583
     19 C          -3.2342   -0.4341    0.8997 C.ar    1  UNL1        0.0859
     20 C          -3.8226   -0.6870    2.1492 C.ar    1  UNL1       -0.0255
     21 C          -5.0979   -0.2606    2.1142 C.ar    1  UNL1        0.0006
     22 C          -6.1078   -0.2733    3.0687 C.ar    1  UNL1       -0.0526
     23 C          -7.3413    0.2271    2.7731 C.ar    1  UNL1       -0.0611
     24 C          -7.5691    0.7446    1.5168 C.ar    1  UNL1       -0.0598
     25 C          -6.5705    0.7515    0.5947 C.ar    1  UNL1       -0.0376
     26 C          -5.3000    0.2495    0.8606 C.ar    1  UNL1        0.0496
     27 N          -4.1576    0.1337    0.1445 N.ar    1  UNL1       -0.3372
     28 C          -4.0729    0.6171   -1.2190 C.3     1  UNL1        0.0268
     29 C          -3.5942    2.0256   -1.3550 C.3     1  UNL1       -0.0230
     30 C          -4.2546    3.1967   -0.7646 C.3     1  UNL1       -0.0483
     31 C          -4.5653    2.9267   -2.1858 C.3     1  UNL1       -0.0483
     32 N          -1.2938   -1.5652   -0.3220 N.ar    1  UNL1       -0.3227
     33 C          -1.9356   -2.3344   -1.3548 C.3     1  UNL1        0.0140
     34 C           0.0650   -1.5995   -0.1819 C.ar    1  UNL1        0.1111
     35 H           1.4310   -4.1442   -3.5825 H       1  UNL1        0.0660
     36 H           2.2739   -4.5444   -2.0455 H       1  UNL1        0.0660
     37 H           2.6084   -2.9709   -2.8233 H       1  UNL1        0.0660
     38 H           3.2325   -2.5661   -0.9405 H       1  UNL1        0.0662
     39 H           3.4109    0.2848   -0.9156 H       1  UNL1        0.0465
     40 H           5.0562    0.1162   -1.7082 H       1  UNL1        0.0465
     41 H           5.0695    2.3763   -1.5752 H       1  UNL1        0.0281
     42 H           3.8945    2.4216   -0.1839 H       1  UNL1        0.0281
     43 H           5.5176    2.1907    1.4648 H       1  UNL1        0.0281
     44 H           6.3662    3.1977    0.2215 H       1  UNL1        0.0281
     45 H           7.4583    1.1944   -0.6546 H       1  UNL1        0.0474
     46 H           8.8505    0.8727    1.1082 H       1  UNL1        0.1185
     47 H           7.7543    1.4255    2.2696 H       1  UNL1        0.1185
     48 H           6.6085   -0.5405    1.7113 H       1  UNL1        0.0480
     49 H           6.9571   -0.9547    0.0176 H       1  UNL1        0.0480
     50 H           1.9330   -0.0052    2.1175 H       1  UNL1        0.0647
     51 H          -3.2592   -1.1600    2.9744 H       1  UNL1        0.0646
     52 H          -5.8499   -0.6976    4.0446 H       1  UNL1        0.0624
     53 H          -8.1320    0.2212    3.5069 H       1  UNL1        0.0618
     54 H          -8.5526    1.1425    1.2742 H       1  UNL1        0.0618
     55 H          -6.7313    1.1529   -0.3919 H       1  UNL1        0.0638
     56 H          -5.0976    0.4891   -1.6869 H       1  UNL1        0.0495
     57 H          -3.4211   -0.0356   -1.8043 H       1  UNL1        0.0495
     58 H          -2.5169    2.1417   -1.6778 H       1  UNL1        0.0318
     59 H          -3.5939    4.1006   -0.6047 H       1  UNL1        0.0269
     60 H          -5.0615    3.1404   -0.0186 H       1  UNL1        0.0269
     61 H          -5.5661    2.5178   -2.4087 H       1  UNL1        0.0269
     62 H          -4.1022    3.4800   -3.0292 H       1  UNL1        0.0269
     63 H          -1.8023   -1.7298   -2.3027 H       1  UNL1        0.0456
     64 H          -3.0255   -2.4316   -1.2264 H       1  UNL1        0.0456
     65 H          -1.5062   -3.3378   -1.5235 H       1  UNL1        0.0456
@<TRIPOS>BOND
     1     1     2    1
     2     2     3    1
     3     3     4   ar
     4     4     5   ar
     5     5     6    1
     6     6     7    2
     7     6     8   am
     8     8     9    1
     9     9    10    1
    10    10    11    1
    11    11    12    1
    12    12    13    1
    13    12    14    1
    14     5    15   ar
    15    15    16   ar
    16    16    17   ar
    17    17    18   ar
    18    18    19    1
    19    19    20   ar
    20    20    21   ar
    21    21    22   ar
    22    22    23   ar
    23    23    24   ar
    24    24    25   ar
    25    25    26   ar
    26    26    27   ar
    27    27    28    1
    28    28    29    1
    29    29    30    1
    30    30    31    1
    31    18    32   ar
    32    32    33    1
    33    32    34   ar
    34    34     3   ar
    35    14     8    1
    36    34    16   ar
    37    27    19   ar
    38    31    29    1
    39    26    21   ar
    40     1    35    1
    41     1    36    1
    42     1    37    1
    43     4    38    1
    44     9    39    1
    45     9    40    1
    46    10    41    1
    47    10    42    1
    48    11    43    1
    49    11    44    1
    50    12    45    1
    51    13    46    1
    52    13    47    1
    53    14    48    1
    54    14    49    1
    55    15    50    1
    56    20    51    1
    57    22    52    1
    58    23    53    1
    59    24    54    1
    60    25    55    1
    61    28    56    1
    62    28    57    1
    63    29    58    1
    64    30    59    1
    65    30    60    1
    66    31    61    1
    67    31    62    1
    68    33    63    1
    69    33    64    1
    70    33    65    1
