
     RDKit          3D

 59 63  0  0  0  0  0  0  0  0999 V2000
    8.4246   -0.2877   -0.1571 C   0  0  0  0  0  0  0  0  0  0  0  0
    7.0906    0.0068    0.2850 O   0  0  0  0  0  0  0  0  0  0  0  0
    6.0196   -0.7961   -0.0817 C   0  0  0  0  0  0  0  0  0  0  0  0
    6.2858   -1.7787   -0.8114 O   0  0  0  0  0  0  0  0  0  0  0  0
    4.6836   -0.5422    0.3327 N   0  0  0  0  0  0  0  0  0  0  0  0
    4.4684    0.6139    1.1740 C   0  0  0  0  0  0  0  0  0  0  0  0
    3.0535    1.0642    1.2424 C   0  0  0  0  0  0  0  0  0  0  0  0
    2.3075    0.6005   -0.0108 C   0  0  0  0  0  0  0  0  0  0  0  0
    0.9979    1.2198    0.0216 N   0  0  0  0  0  0  0  0  0  0  0  0
    0.8609    2.5342    0.1139 N   0  0  0  0  0  0  0  0  0  0  0  0
   -0.4693    2.8064    0.1215 C   0  0  0  0  0  0  0  0  0  0  0  0
   -1.1571    1.6299    0.0317 C   0  0  0  0  0  0  0  0  0  0  0  0
   -2.4964    1.2944   -0.0053 C   0  0  0  0  0  0  0  0  0  0  0  0
   -3.4614    2.3302    0.0643 N   0  0  0  0  0  0  0  0  0  0  0  0
   -3.5223    3.1675    1.2368 C   0  0  0  0  0  0  0  0  0  0  0  0
   -3.9453    4.5766    0.9114 C   0  0  0  0  0  0  0  0  0  0  0  0
   -4.8353    4.6313   -0.1556 O   0  0  0  0  0  0  0  0  0  0  0  0
   -4.3763    4.0409   -1.3087 C   0  0  0  0  0  0  0  0  0  0  0  0
   -4.3765    2.5263   -1.0664 C   0  0  0  0  0  0  0  0  0  0  0  0
   -2.7945   -0.0139   -0.1026 N   0  0  0  0  0  0  0  0  0  0  0  0
   -1.8504   -0.9751   -0.1627 C   0  0  0  0  0  0  0  0  0  0  0  0
   -2.2736   -2.3846   -0.2683 C   0  0  0  0  0  0  0  0  0  0  0  0
   -1.3884   -3.4151   -0.3343 C   0  0  0  0  0  0  0  0  0  0  0  0
   -1.8446   -4.7237   -0.4329 C   0  0  0  0  0  0  0  0  0  0  0  0
   -3.2042   -5.0228   -0.4673 C   0  0  0  0  0  0  0  0  0  0  0  0
   -3.6844   -6.3458   -0.5672 N   0  0  0  0  0  0  0  0  0  0  0  0
   -4.0936   -3.9726   -0.4000 C   0  0  0  0  0  0  0  0  0  0  0  0
   -3.6165   -2.6967   -0.3035 C   0  0  0  0  0  0  0  0  0  0  0  0
   -0.5446   -0.6508   -0.1267 N   0  0  0  0  0  0  0  0  0  0  0  0
   -0.1952    0.6378   -0.0305 C   0  0  0  0  0  0  0  0  0  0  0  0
    2.2623   -0.8858    0.0271 C   0  0  0  0  0  0  0  0  0  0  0  0
    3.6485   -1.4313   -0.1004 C   0  0  0  0  0  0  0  0  0  0  0  0
    8.7116   -1.3251    0.1168 H   0  0  0  0  0  0  0  0  0  0  0  0
    9.0837    0.4414    0.3755 H   0  0  0  0  0  0  0  0  0  0  0  0
    8.5026   -0.0940   -1.2378 H   0  0  0  0  0  0  0  0  0  0  0  0
    5.0607    1.4493    0.6975 H   0  0  0  0  0  0  0  0  0  0  0  0
    4.9523    0.4618    2.1649 H   0  0  0  0  0  0  0  0  0  0  0  0
    2.9618    2.1487    1.3263 H   0  0  0  0  0  0  0  0  0  0  0  0
    2.5659    0.5509    2.1019 H   0  0  0  0  0  0  0  0  0  0  0  0
    2.8586    0.9222   -0.9182 H   0  0  0  0  0  0  0  0  0  0  0  0
   -0.8677    3.8000    0.1873 H   0  0  0  0  0  0  0  0  0  0  0  0
   -2.5523    3.1578    1.7535 H   0  0  0  0  0  0  0  0  0  0  0  0
   -4.2970    2.7159    1.9067 H   0  0  0  0  0  0  0  0  0  0  0  0
   -4.4497    5.0579    1.7737 H   0  0  0  0  0  0  0  0  0  0  0  0
   -3.0725    5.1957    0.6434 H   0  0  0  0  0  0  0  0  0  0  0  0
   -5.0725    4.2730   -2.1191 H   0  0  0  0  0  0  0  0  0  0  0  0
   -3.3296    4.3210   -1.5578 H   0  0  0  0  0  0  0  0  0  0  0  0
   -5.4181    2.2685   -0.7950 H   0  0  0  0  0  0  0  0  0  0  0  0
   -4.0148    2.0252   -1.9686 H   0  0  0  0  0  0  0  0  0  0  0  0
   -0.3322   -3.1938   -0.3084 H   0  0  0  0  0  0  0  0  0  0  0  0
   -1.1699   -5.5632   -0.4871 H   0  0  0  0  0  0  0  0  0  0  0  0
   -4.5313   -6.6242   -0.0503 H   0  0  0  0  0  0  0  0  0  0  0  0
   -3.1875   -7.0298   -1.1563 H   0  0  0  0  0  0  0  0  0  0  0  0
   -5.1680   -4.1621   -0.4237 H   0  0  0  0  0  0  0  0  0  0  0  0
   -4.3341   -1.8829   -0.2516 H   0  0  0  0  0  0  0  0  0  0  0  0
    1.8595   -1.2466    1.0179 H   0  0  0  0  0  0  0  0  0  0  0  0
    1.6397   -1.3347   -0.7782 H   0  0  0  0  0  0  0  0  0  0  0  0
    3.8853   -1.7164   -1.1618 H   0  0  0  0  0  0  0  0  0  0  0  0
    3.7423   -2.3742    0.4798 H   0  0  0  0  0  0  0  0  0  0  0  0
  1  2  1  0
  2  3  1  0
  3  4  2  0
  3  5  1  0
  5  6  1  0
  6  7  1  0
  7  8  1  0
  8  9  1  0
  9 10  1  0
 10 11  2  0
 11 12  1  0
 12 13  2  0
 13 14  1  0
 14 15  1  0
 15 16  1  0
 16 17  1  0
 17 18  1  0
 18 19  1  0
 13 20  1  0
 20 21  2  0
 21 22  1  0
 22 23  2  0
 23 24  1  0
 24 25  2  0
 25 26  1  0
 25 27  1  0
 27 28  2  0
 21 29  1  0
 29 30  2  0
  8 31  1  0
 31 32  1  0
 32  5  1  0
 30  9  1  0
 30 12  1  0
 19 14  1  0
 28 22  1  0
  1 33  1  0
  1 34  1  0
  1 35  1  0
  6 36  1  0
  6 37  1  0
  7 38  1  0
  7 39  1  0
  8 40  1  0
 11 41  1  0
 15 42  1  0
 15 43  1  0
 16 44  1  0
 16 45  1  0
 18 46  1  0
 18 47  1  0
 19 48  1  0
 19 49  1  0
 23 50  1  0
 24 51  1  0
 26 52  1  0
 26 53  1  0
 27 54  1  0
 28 55  1  0
 31 56  1  0
 31 57  1  0
 32 58  1  0
 32 59  1  0
M  END
$$$$
