@<TRIPOS>MOLECULE
*****
 59 63 0 0 0
SMALL
GASTEIGER

@<TRIPOS>ATOM
      1 C           8.4246   -0.2877   -0.1571 C.3     1  UNL1        0.0833
      2 O           7.0906    0.0068    0.2850 O.3     1  UNL1       -0.4536
      3 C           6.0196   -0.7961   -0.0817 C.2     1  UNL1        0.4026
      4 O           6.2858   -1.7787   -0.8114 O.2     1  UNL1       -0.2263
      5 N           4.6836   -0.5422    0.3327 N.am    1  UNL1       -0.2673
      6 C           4.4684    0.6139    1.1740 C.3     1  UNL1        0.0197
      7 C           3.0535    1.0642    1.2424 C.3     1  UNL1       -0.0144
      8 C           2.3075    0.6005   -0.0108 C.3     1  UNL1        0.0578
      9 N           0.9979    1.2198    0.0216 N.ar    1  UNL1       -0.2431
     10 N           0.8609    2.5342    0.1139 N.ar    1  UNL1       -0.1768
     11 C          -0.4693    2.8064    0.1215 C.ar    1  UNL1        0.0620
     12 C          -1.1571    1.6299    0.0317 C.ar    1  UNL1        0.0785
     13 C          -2.4964    1.2944   -0.0053 C.ar    1  UNL1        0.1361
     14 N          -3.4614    2.3302    0.0643 N.pl3   1  UNL1       -0.3101
     15 C          -3.5223    3.1675    1.2368 C.3     1  UNL1        0.0370
     16 C          -3.9453    4.5766    0.9114 C.3     1  UNL1        0.0634
     17 O          -4.8353    4.6313   -0.1556 O.3     1  UNL1       -0.3767
     18 C          -4.3763    4.0409   -1.3087 C.3     1  UNL1        0.0634
     19 C          -4.3765    2.5263   -1.0664 C.3     1  UNL1        0.0370
     20 N          -2.7945   -0.0139   -0.1026 N.ar    1  UNL1       -0.2118
     21 C          -1.8504   -0.9751   -0.1627 C.ar    1  UNL1        0.1641
     22 C          -2.2736   -2.3846   -0.2683 C.ar    1  UNL1        0.0194
     23 C          -1.3884   -3.4151   -0.3343 C.ar    1  UNL1       -0.0493
     24 C          -1.8446   -4.7237   -0.4329 C.ar    1  UNL1       -0.0404
     25 C          -3.2042   -5.0228   -0.4673 C.ar    1  UNL1        0.0246
     26 N          -3.6844   -6.3458   -0.5672 N.pl3   1  UNL1       -0.3580
     27 C          -4.0936   -3.9726   -0.4000 C.ar    1  UNL1       -0.0404
     28 C          -3.6165   -2.6967   -0.3035 C.ar    1  UNL1       -0.0493
     29 N          -0.5446   -0.6508   -0.1267 N.ar    1  UNL1       -0.2080
     30 C          -0.1952    0.6378   -0.0305 C.ar    1  UNL1        0.1642
     31 C           2.2623   -0.8858    0.0271 C.3     1  UNL1       -0.0144
     32 C           3.6485   -1.4313   -0.1004 C.3     1  UNL1        0.0197
     33 H           8.7116   -1.3251    0.1168 H       1  UNL1        0.0661
     34 H           9.0837    0.4414    0.3755 H       1  UNL1        0.0661
     35 H           8.5026   -0.0940   -1.2378 H       1  UNL1        0.0661
     36 H           5.0607    1.4493    0.6975 H       1  UNL1        0.0466
     37 H           4.9523    0.4618    2.1649 H       1  UNL1        0.0466
     38 H           2.9618    2.1487    1.3263 H       1  UNL1        0.0301
     39 H           2.5659    0.5509    2.1019 H       1  UNL1        0.0301
     40 H           2.8586    0.9222   -0.9182 H       1  UNL1        0.0546
     41 H          -0.8677    3.8000    0.1873 H       1  UNL1        0.0856
     42 H          -2.5523    3.1578    1.7535 H       1  UNL1        0.0487
     43 H          -4.2970    2.7159    1.9067 H       1  UNL1        0.0487
     44 H          -4.4497    5.0579    1.7737 H       1  UNL1        0.0575
     45 H          -3.0725    5.1957    0.6434 H       1  UNL1        0.0575
     46 H          -5.0725    4.2730   -2.1191 H       1  UNL1        0.0575
     47 H          -3.3296    4.3210   -1.5578 H       1  UNL1        0.0575
     48 H          -5.4181    2.2685   -0.7950 H       1  UNL1        0.0487
     49 H          -4.0148    2.0252   -1.9686 H       1  UNL1        0.0487
     50 H          -0.3322   -3.1938   -0.3084 H       1  UNL1        0.0625
     51 H          -1.1699   -5.5632   -0.4871 H       1  UNL1        0.0636
     52 H          -4.5313   -6.6242   -0.0503 H       1  UNL1        0.1423
     53 H          -3.1875   -7.0298   -1.1563 H       1  UNL1        0.1423
     54 H          -5.1680   -4.1621   -0.4237 H       1  UNL1        0.0636
     55 H          -4.3341   -1.8829   -0.2516 H       1  UNL1        0.0625
     56 H           1.8595   -1.2466    1.0179 H       1  UNL1        0.0301
     57 H           1.6397   -1.3347   -0.7782 H       1  UNL1        0.0301
     58 H           3.8853   -1.7164   -1.1618 H       1  UNL1        0.0466
     59 H           3.7423   -2.3742    0.4798 H       1  UNL1        0.0466
@<TRIPOS>BOND
     1     1     2    1
     2     2     3    1
     3     3     4    2
     4     3     5   am
     5     5     6    1
     6     6     7    1
     7     7     8    1
     8     8     9    1
     9     9    10   ar
    10    10    11   ar
    11    11    12   ar
    12    12    13   ar
    13    13    14    1
    14    14    15    1
    15    15    16    1
    16    16    17    1
    17    17    18    1
    18    18    19    1
    19    13    20   ar
    20    20    21   ar
    21    21    22    1
    22    22    23   ar
    23    23    24   ar
    24    24    25   ar
    25    25    26    1
    26    25    27   ar
    27    27    28   ar
    28    21    29   ar
    29    29    30   ar
    30     8    31    1
    31    31    32    1
    32    32     5    1
    33    30     9   ar
    34    30    12   ar
    35    19    14    1
    36    28    22   ar
    37     1    33    1
    38     1    34    1
    39     1    35    1
    40     6    36    1
    41     6    37    1
    42     7    38    1
    43     7    39    1
    44     8    40    1
    45    11    41    1
    46    15    42    1
    47    15    43    1
    48    16    44    1
    49    16    45    1
    50    18    46    1
    51    18    47    1
    52    19    48    1
    53    19    49    1
    54    23    50    1
    55    24    51    1
    56    26    52    1
    57    26    53    1
    58    27    54    1
    59    28    55    1
    60    31    56    1
    61    31    57    1
    62    32    58    1
    63    32    59    1
