@<TRIPOS>MOLECULE
*****
 68 72 0 0 0
SMALL
GASTEIGER

@<TRIPOS>ATOM
      1 C           1.5680    1.2885    2.4372 C.3     1  UNL1       -0.0394
      2 C           0.9000    1.9922    1.3570 C.ar    1  UNL1       -0.0469
      3 C           0.7130    3.3840    1.4380 C.ar    1  UNL1       -0.0586
      4 C           0.0675    4.0993    0.4532 C.ar    1  UNL1       -0.0615
      5 C          -0.3929    3.4054   -0.6219 C.ar    1  UNL1       -0.0615
      6 C          -0.2097    2.0473   -0.7007 C.ar    1  UNL1       -0.0580
      7 C           0.4449    1.2927    0.2884 C.ar    1  UNL1       -0.0386
      8 C           0.5836   -0.1153    0.0791 C.3     1  UNL1        0.0152
      9 C          -0.2674   -1.0979    0.7387 C.3     1  UNL1        0.0667
     10 O          -1.3592   -1.4799   -0.0855 O.3     1  UNL1       -0.3659
     11 C          -2.5474   -1.4338    0.6009 C.3     1  UNL1        0.1070
     12 C          -3.2369   -2.7999    0.4928 C.3     1  UNL1        0.0745
     13 O          -4.4550   -2.7778    1.1873 O.3     1  UNL1       -0.3921
     14 C          -3.4617   -0.4889   -0.1345 C.ar    1  UNL1       -0.0156
     15 C          -4.1895    0.4448    0.5540 C.ar    1  UNL1       -0.0444
     16 C          -5.0238    1.3032   -0.1325 C.ar    1  UNL1        0.0557
     17 C          -5.8264    2.3262    0.5848 C.3     1  UNL1        0.4174
     18 F          -6.8561    2.7489   -0.2450 F       1  UNL1       -0.1659
     19 F          -5.0262    3.3932    0.9781 F       1  UNL1       -0.1659
     20 F          -6.3819    1.7159    1.7036 F       1  UNL1       -0.1659
     21 C          -5.1213    1.2172   -1.5122 C.ar    1  UNL1       -0.0385
     22 C          -4.3967    0.2832   -2.2290 C.ar    1  UNL1        0.0557
     23 C          -4.4745    0.1597   -3.7081 C.3     1  UNL1        0.4174
     24 F          -4.9432    1.3236   -4.2815 F       1  UNL1       -0.1659
     25 F          -3.2285   -0.1957   -4.1785 F       1  UNL1       -0.1659
     26 F          -5.3509   -0.8763   -4.0016 F       1  UNL1       -0.1659
     27 C          -3.5718   -0.5596   -1.5078 C.ar    1  UNL1       -0.0444
     28 C           0.4555   -2.4127    0.9923 C.3     1  UNL1       -0.0257
     29 C           1.3076   -2.8534   -0.1506 C.3     1  UNL1       -0.0461
     30 C           2.1795   -1.8007   -0.6872 C.3     1  UNL1       -0.0202
     31 C           3.6527   -2.0056   -0.5255 C.3     1  UNL1        0.0194
     32 N           4.1620   -0.6500   -0.4100 N.pl3   1  UNL1       -0.2844
     33 C           5.5499   -0.3535   -0.3186 C.ar    1  UNL1        0.2932
     34 N           6.2434   -0.2646    0.8391 N.ar    1  UNL1       -0.1606
     35 C           7.5356    0.0308    0.5627 C.ar    1  UNL1        0.2527
     36 O           8.5502    0.2016    1.4915 O.3     1  UNL1       -0.4902
     37 C           7.5916    0.1165   -0.8182 C.ar    1  UNL1        0.1569
     38 O           6.3771   -0.1211   -1.3080 O.2     1  UNL1       -0.4290
     39 C           3.0389    0.2908   -0.4054 C.3     1  UNL1        0.0200
     40 C           1.9958   -0.5727    0.2321 C.3     1  UNL1       -0.0117
     41 H           1.0662    0.3933    2.8378 H       1  UNL1        0.0278
     42 H           1.4619    1.9744    3.3551 H       1  UNL1        0.0278
     43 H           2.6716    1.2308    2.3899 H       1  UNL1        0.0278
     44 H           1.0854    3.9227    2.3009 H       1  UNL1        0.0620
     45 H          -0.0749    5.1689    0.5180 H       1  UNL1        0.0618
     46 H          -0.9032    3.9781   -1.3974 H       1  UNL1        0.0618
     47 H          -0.6175    1.5788   -1.6059 H       1  UNL1        0.0620
     48 H           0.3647   -0.2805   -1.0368 H       1  UNL1        0.0377
     49 H          -0.6357   -0.8489    1.7569 H       1  UNL1        0.0602
     50 H          -2.4483   -1.1176    1.6407 H       1  UNL1        0.0669
     51 H          -3.5002   -2.9794   -0.5708 H       1  UNL1        0.0586
     52 H          -2.5854   -3.6213    0.8142 H       1  UNL1        0.0586
     53 H          -4.3339   -2.4979    2.1307 H       1  UNL1        0.2095
     54 H          -4.1075    0.5050    1.6290 H       1  UNL1        0.0627
     55 H          -5.7800    1.8946   -2.0574 H       1  UNL1        0.0629
     56 H          -2.9957   -1.3016   -2.0764 H       1  UNL1        0.0627
     57 H          -0.2550   -3.2373    1.2284 H       1  UNL1        0.0290
     58 H           1.1213   -2.3440    1.8953 H       1  UNL1        0.0290
     59 H           1.9002   -3.7116    0.1739 H       1  UNL1        0.0269
     60 H           0.6358   -3.2325   -0.9689 H       1  UNL1        0.0269
     61 H           1.9400   -1.4653   -1.6965 H       1  UNL1        0.0319
     62 H           3.9036   -2.5919    0.3561 H       1  UNL1        0.0468
     63 H           4.0681   -2.4558   -1.4723 H       1  UNL1        0.0468
     64 H           8.5212   -0.3519    2.3544 H       1  UNL1        0.2938
     65 H           8.4790    0.3401   -1.3972 H       1  UNL1        0.1086
     66 H           3.2935    1.2069    0.1109 H       1  UNL1        0.0468
     67 H           2.8266    0.4539   -1.5036 H       1  UNL1        0.0468
     68 H           2.3022   -0.8155    1.2430 H       1  UNL1        0.0326
@<TRIPOS>BOND
     1     1     2    1
     2     2     3   ar
     3     3     4   ar
     4     4     5   ar
     5     5     6   ar
     6     6     7   ar
     7     7     8    1
     8     8     9    1
     9     9    10    1
    10    10    11    1
    11    11    12    1
    12    12    13    1
    13    11    14    1
    14    14    15   ar
    15    15    16   ar
    16    16    17    1
    17    17    18    1
    18    17    19    1
    19    17    20    1
    20    16    21   ar
    21    21    22   ar
    22    22    23    1
    23    23    24    1
    24    23    25    1
    25    23    26    1
    26    22    27   ar
    27     9    28    1
    28    28    29    1
    29    29    30    1
    30    30    31    1
    31    31    32    1
    32    32    33    1
    33    33    34   ar
    34    34    35   ar
    35    35    36    1
    36    35    37   ar
    37    37    38   ar
    38    32    39    1
    39    39    40    1
    40     7     2   ar
    41    40     8    1
    42    27    14   ar
    43    40    30    1
    44    38    33   ar
    45     1    41    1
    46     1    42    1
    47     1    43    1
    48     3    44    1
    49     4    45    1
    50     5    46    1
    51     6    47    1
    52     8    48    1
    53     9    49    1
    54    11    50    1
    55    12    51    1
    56    12    52    1
    57    13    53    1
    58    15    54    1
    59    21    55    1
    60    27    56    1
    61    28    57    1
    62    28    58    1
    63    29    59    1
    64    29    60    1
    65    30    61    1
    66    31    62    1
    67    31    63    1
    68    36    64    1
    69    37    65    1
    70    39    66    1
    71    39    67    1
    72    40    68    1
