
     RDKit          3D

 48 52  0  0  0  0  0  0  0  0999 V2000
    1.0895    1.5321   -0.5691 N   0  0  0  0  0  0  0  0  0  0  0  0
    0.4905    0.7735    0.5048 C   0  0  2  0  0  0  0  0  0  0  0  0
    1.3785   -0.3462    0.8648 C   0  0  0  0  0  0  0  0  0  0  0  0
    1.1195   -1.1428    1.8320 O   0  0  0  0  0  0  0  0  0  0  0  0
    2.5924   -0.5874    0.1252 N   0  0  0  0  0  0  0  0  0  0  0  0
    3.0452    0.2076   -0.9955 C   0  0  1  0  0  0  0  0  0  0  0  0
    4.0249    1.2605   -0.6681 C   0  0  0  0  0  0  0  0  0  0  0  0
    4.4780   -0.0507   -1.1560 C   0  0  1  0  0  0  0  0  0  0  0  0
    4.8050   -1.1921   -0.2733 C   0  0  0  0  0  0  0  0  0  0  0  0
    3.5473   -1.6491    0.3717 C   0  0  1  0  0  0  0  0  0  0  0  0
    3.7598   -1.8378    1.8062 C   0  0  0  0  0  0  0  0  0  0  0  0
    3.9106   -1.9840    2.9409 N   0  0  0  0  0  0  0  0  0  0  0  0
   -0.9309    0.4040    0.2401 C   0  0  0  0  0  0  0  0  0  0  0  0
   -1.5091   -0.3719    1.3743 C   0  0  0  0  0  0  0  0  0  0  0  0
   -3.0159   -0.5239    1.1930 C   0  0  0  0  0  0  0  0  0  0  0  0
   -3.7342    0.7700    1.0159 C   0  0  0  0  0  0  0  0  0  0  0  0
   -3.1196    1.5315   -0.1628 C   0  0  0  0  0  0  0  0  0  0  0  0
   -3.3289    0.7109   -1.3928 C   0  0  0  0  0  0  0  0  0  0  0  0
   -2.6322   -0.6164   -1.1972 C   0  0  0  0  0  0  0  0  0  0  0  0
   -2.7703   -1.3844   -2.3727 O   0  0  0  0  0  0  0  0  0  0  0  0
   -3.1726   -1.3947   -0.0482 C   0  0  0  0  0  0  0  0  0  0  0  0
   -1.1611   -0.3577   -1.0413 C   0  0  0  0  0  0  0  0  0  0  0  0
   -1.6839    1.7400    0.1742 C   0  0  0  0  0  0  0  0  0  0  0  0
    1.4281    2.4691   -0.2600 H   0  0  0  0  0  0  0  0  0  0  0  0
    0.5702    1.5476   -1.4539 H   0  0  0  0  0  0  0  0  0  0  0  0
    0.4680    1.4504    1.3851 H   0  0  0  0  0  0  0  0  0  0  0  0
    2.4759    0.1889   -1.9615 H   0  0  0  0  0  0  0  0  0  0  0  0
    4.0851    2.1035   -1.3763 H   0  0  0  0  0  0  0  0  0  0  0  0
    4.1050    1.5923    0.3860 H   0  0  0  0  0  0  0  0  0  0  0  0
    4.9614   -0.0747   -2.1717 H   0  0  0  0  0  0  0  0  0  0  0  0
    5.6298   -0.9953    0.4416 H   0  0  0  0  0  0  0  0  0  0  0  0
    5.1635   -2.0511   -0.9111 H   0  0  0  0  0  0  0  0  0  0  0  0
    3.1681   -2.6183   -0.0268 H   0  0  0  0  0  0  0  0  0  0  0  0
   -1.3336    0.1549    2.3222 H   0  0  0  0  0  0  0  0  0  0  0  0
   -1.1327   -1.4162    1.4318 H   0  0  0  0  0  0  0  0  0  0  0  0
   -3.4443   -1.0610    2.0578 H   0  0  0  0  0  0  0  0  0  0  0  0
   -3.7502    1.3632    1.9338 H   0  0  0  0  0  0  0  0  0  0  0  0
   -4.7688    0.5112    0.6711 H   0  0  0  0  0  0  0  0  0  0  0  0
   -3.5919    2.5216   -0.2663 H   0  0  0  0  0  0  0  0  0  0  0  0
   -2.9203    1.1607   -2.3026 H   0  0  0  0  0  0  0  0  0  0  0  0
   -4.4004    0.5458   -1.5160 H   0  0  0  0  0  0  0  0  0  0  0  0
   -2.9621   -2.3228   -2.1678 H   0  0  0  0  0  0  0  0  0  0  0  0
   -2.4757   -2.2634    0.1093 H   0  0  0  0  0  0  0  0  0  0  0  0
   -4.1872   -1.7606   -0.1911 H   0  0  0  0  0  0  0  0  0  0  0  0
   -0.8636    0.2060   -1.9439 H   0  0  0  0  0  0  0  0  0  0  0  0
   -0.6288   -1.3155   -0.9963 H   0  0  0  0  0  0  0  0  0  0  0  0
   -1.6382    2.1258    1.2255 H   0  0  0  0  0  0  0  0  0  0  0  0
   -1.1395    2.4471   -0.4803 H   0  0  0  0  0  0  0  0  0  0  0  0
  1  2  1  0
  2  3  1  0
  3  4  2  0
  3  5  1  0
  5  6  1  0
  6  7  1  0
  7  8  1  0
  8  9  1  0
  9 10  1  0
 10 11  1  0
 11 12  3  0
  2 13  1  0
 13 14  1  0
 14 15  1  0
 15 16  1  0
 16 17  1  0
 17 18  1  0
 18 19  1  0
 19 20  1  0
 19 21  1  0
 19 22  1  0
 17 23  1  0
 10  5  1  0
 22 13  1  0
  8  6  1  0
 23 13  1  0
 21 15  1  0
  1 24  1  0
  1 25  1  0
  2 26  1  1
  6 27  1  6
  7 28  1  0
  7 29  1  0
  8 30  1  6
  9 31  1  0
  9 32  1  0
 10 33  1  6
 14 34  1  0
 14 35  1  0
 15 36  1  0
 16 37  1  0
 16 38  1  0
 17 39  1  0
 18 40  1  0
 18 41  1  0
 20 42  1  0
 21 43  1  0
 21 44  1  0
 22 45  1  0
 22 46  1  0
 23 47  1  0
 23 48  1  0
M  END
$$$$
