@<TRIPOS>MOLECULE
*****
 37 39 0 0 0
SMALL
GASTEIGER

@<TRIPOS>ATOM
      1 O           6.5194   -0.4621    1.0428 O.2     1  UNL1       -0.2451
      2 C           5.4677    0.2166    1.1166 C.2     1  UNL1        0.3369
      3 O           5.4729    1.3529    1.8951 O.3     1  UNL1       -0.4771
      4 C           4.2991   -0.2398    0.3713 C.ar    1  UNL1        0.0607
      5 C           4.3302   -1.3831   -0.3985 C.ar    1  UNL1       -0.0477
      6 C           3.2324   -1.8229   -1.1061 C.ar    1  UNL1       -0.0591
      7 C           2.0458   -1.1311   -1.0735 C.ar    1  UNL1       -0.0353
      8 C           2.0094    0.0106   -0.3067 C.ar    1  UNL1        0.1063
      9 S           0.4942    0.9213   -0.2463 S.O2    1  UNL1        0.0612
     10 O          -0.1935    0.8055   -1.5558 O.2     1  UNL1       -0.1528
     11 O           0.8332    2.3419    0.0479 O.2     1  UNL1       -0.1528
     12 N          -0.4296    0.3071    1.0621 N.3     1  UNL1       -0.1720
     13 C          -0.7650   -1.0865    0.9008 C.3     1  UNL1        0.0248
     14 C          -1.7386   -1.3376   -0.1974 C.3     1  UNL1       -0.0129
     15 C          -2.8779   -0.4005   -0.1118 C.ar    1  UNL1       -0.0416
     16 C          -4.0754   -0.6535   -0.7910 C.ar    1  UNL1       -0.0572
     17 C          -5.1332    0.2258   -0.7077 C.ar    1  UNL1       -0.0475
     18 C          -5.0610    1.3750    0.0357 C.ar    1  UNL1        0.0182
     19 BR         -6.5460    2.5712    0.1288 Br      1  UNL1       -0.0503
     20 C          -3.8904    1.6326    0.7060 C.ar    1  UNL1       -0.0430
     21 C          -2.8034    0.7476    0.6321 C.ar    1  UNL1       -0.0274
     22 C          -1.5781    1.0806    1.3743 C.3     1  UNL1        0.0458
     23 C           3.0976    0.4638    0.4066 C.ar    1  UNL1       -0.0214
     24 H           6.3013    1.9058    2.0644 H       1  UNL1        0.2954
     25 H           5.2448   -1.9497   -0.4465 H       1  UNL1        0.0626
     26 H           3.2543   -2.7254   -1.7148 H       1  UNL1        0.0618
     27 H           1.1584   -1.4302   -1.6070 H       1  UNL1        0.0637
     28 H           0.1349   -1.7040    0.7933 H       1  UNL1        0.0447
     29 H          -1.2523   -1.4046    1.8606 H       1  UNL1        0.0447
     30 H          -2.1639   -2.3710   -0.0310 H       1  UNL1        0.0326
     31 H          -1.2688   -1.3072   -1.2104 H       1  UNL1        0.0326
     32 H          -4.1027   -1.5577   -1.3630 H       1  UNL1        0.0621
     33 H          -6.0606    0.0215   -1.2389 H       1  UNL1        0.0629
     34 H          -3.8223    2.5368    1.2959 H       1  UNL1        0.0632
     35 H          -1.3784    2.1661    1.2949 H       1  UNL1        0.0493
     36 H          -1.8125    0.9087    2.4659 H       1  UNL1        0.0493
     37 H           3.0580    1.3758    1.0151 H       1  UNL1        0.0645
@<TRIPOS>BOND
     1     1     2    2
     2     2     3    1
     3     2     4    1
     4     4     5   ar
     5     5     6   ar
     6     6     7   ar
     7     7     8   ar
     8     8     9    1
     9     9    10    2
    10     9    11    2
    11     9    12    1
    12    12    13    1
    13    13    14    1
    14    14    15    1
    15    15    16   ar
    16    16    17   ar
    17    17    18   ar
    18    18    19    1
    19    18    20   ar
    20    20    21   ar
    21    21    22    1
    22     8    23   ar
    23    23     4   ar
    24    22    12    1
    25    21    15   ar
    26     3    24    1
    27     5    25    1
    28     6    26    1
    29     7    27    1
    30    13    28    1
    31    13    29    1
    32    14    30    1
    33    14    31    1
    34    16    32    1
    35    17    33    1
    36    20    34    1
    37    22    35    1
    38    22    36    1
    39    23    37    1
