
     RDKit          3D

 37 39  0  0  0  0  0  0  0  0999 V2000
    6.5194   -0.4621    1.0428 O   0  0  0  0  0  0  0  0  0  0  0  0
    5.4677    0.2166    1.1166 C   0  0  0  0  0  0  0  0  0  0  0  0
    5.4729    1.3529    1.8951 O   0  0  0  0  0  0  0  0  0  0  0  0
    4.2991   -0.2398    0.3713 C   0  0  0  0  0  0  0  0  0  0  0  0
    4.3302   -1.3831   -0.3985 C   0  0  0  0  0  0  0  0  0  0  0  0
    3.2324   -1.8229   -1.1061 C   0  0  0  0  0  0  0  0  0  0  0  0
    2.0458   -1.1311   -1.0735 C   0  0  0  0  0  0  0  0  0  0  0  0
    2.0094    0.0106   -0.3067 C   0  0  0  0  0  0  0  0  0  0  0  0
    0.4942    0.9213   -0.2463 S   0  0  0  0  0  6  0  0  0  0  0  0
   -0.1935    0.8055   -1.5558 O   0  0  0  0  0  0  0  0  0  0  0  0
    0.8332    2.3419    0.0479 O   0  0  0  0  0  0  0  0  0  0  0  0
   -0.4296    0.3071    1.0621 N   0  0  0  0  0  0  0  0  0  0  0  0
   -0.7650   -1.0865    0.9008 C   0  0  0  0  0  0  0  0  0  0  0  0
   -1.7386   -1.3376   -0.1974 C   0  0  0  0  0  0  0  0  0  0  0  0
   -2.8779   -0.4005   -0.1118 C   0  0  0  0  0  0  0  0  0  0  0  0
   -4.0754   -0.6535   -0.7910 C   0  0  0  0  0  0  0  0  0  0  0  0
   -5.1332    0.2258   -0.7077 C   0  0  0  0  0  0  0  0  0  0  0  0
   -5.0610    1.3750    0.0357 C   0  0  0  0  0  0  0  0  0  0  0  0
   -6.5460    2.5712    0.1288 Br  0  0  0  0  0  0  0  0  0  0  0  0
   -3.8904    1.6326    0.7060 C   0  0  0  0  0  0  0  0  0  0  0  0
   -2.8034    0.7476    0.6321 C   0  0  0  0  0  0  0  0  0  0  0  0
   -1.5781    1.0806    1.3743 C   0  0  0  0  0  0  0  0  0  0  0  0
    3.0976    0.4638    0.4066 C   0  0  0  0  0  0  0  0  0  0  0  0
    6.3013    1.9058    2.0644 H   0  0  0  0  0  0  0  0  0  0  0  0
    5.2448   -1.9497   -0.4465 H   0  0  0  0  0  0  0  0  0  0  0  0
    3.2543   -2.7254   -1.7148 H   0  0  0  0  0  0  0  0  0  0  0  0
    1.1584   -1.4302   -1.6070 H   0  0  0  0  0  0  0  0  0  0  0  0
    0.1349   -1.7040    0.7933 H   0  0  0  0  0  0  0  0  0  0  0  0
   -1.2523   -1.4046    1.8606 H   0  0  0  0  0  0  0  0  0  0  0  0
   -2.1639   -2.3710   -0.0310 H   0  0  0  0  0  0  0  0  0  0  0  0
   -1.2688   -1.3072   -1.2104 H   0  0  0  0  0  0  0  0  0  0  0  0
   -4.1027   -1.5577   -1.3630 H   0  0  0  0  0  0  0  0  0  0  0  0
   -6.0606    0.0215   -1.2389 H   0  0  0  0  0  0  0  0  0  0  0  0
   -3.8223    2.5368    1.2959 H   0  0  0  0  0  0  0  0  0  0  0  0
   -1.3784    2.1661    1.2949 H   0  0  0  0  0  0  0  0  0  0  0  0
   -1.8125    0.9087    2.4659 H   0  0  0  0  0  0  0  0  0  0  0  0
    3.0580    1.3758    1.0151 H   0  0  0  0  0  0  0  0  0  0  0  0
  1  2  2  0
  2  3  1  0
  2  4  1  0
  4  5  2  0
  5  6  1  0
  6  7  2  0
  7  8  1  0
  8  9  1  0
  9 10  2  0
  9 11  2  0
  9 12  1  0
 12 13  1  0
 13 14  1  0
 14 15  1  0
 15 16  2  0
 16 17  1  0
 17 18  2  0
 18 19  1  0
 18 20  1  0
 20 21  2  0
 21 22  1  0
  8 23  2  0
 23  4  1  0
 22 12  1  0
 21 15  1  0
  3 24  1  0
  5 25  1  0
  6 26  1  0
  7 27  1  0
 13 28  1  0
 13 29  1  0
 14 30  1  0
 14 31  1  0
 16 32  1  0
 17 33  1  0
 20 34  1  0
 22 35  1  0
 22 36  1  0
 23 37  1  0
M  END
$$$$
