@<TRIPOS>MOLECULE
*****
 55 57 0 0 0
SMALL
GASTEIGER

@<TRIPOS>ATOM
      1 C          -2.6129   -1.6722   -1.5193 C.3     1  UNL1       -0.0394
      2 C          -2.1898   -1.9103   -0.1097 C.ar    1  UNL1       -0.0456
      3 C          -1.8702   -3.1873    0.2888 C.ar    1  UNL1       -0.0558
      4 C          -1.4810   -3.4759    1.5731 C.ar    1  UNL1       -0.0262
      5 C          -1.4054   -2.4653    2.4958 C.ar    1  UNL1        0.1237
      6 F          -1.0248   -2.7628    3.7427 F       1  UNL1       -0.2055
      7 C          -1.7306   -1.1798    2.0809 C.ar    1  UNL1       -0.0215
      8 C          -2.1220   -0.8637    0.8051 C.ar    1  UNL1       -0.0246
      9 C          -2.4780    0.4944    0.4398 C.3     1  UNL1        0.0379
     10 N          -1.4705    1.1992   -0.4027 N.pl3   1  UNL1       -0.3209
     11 C          -1.9234    2.3975   -0.9860 C.ar    1  UNL1        0.0317
     12 C          -3.1875    2.9036   -0.5930 C.ar    1  UNL1       -0.0393
     13 C          -3.7266    4.0428   -1.1402 C.ar    1  UNL1       -0.0412
     14 C          -3.0491    4.7497   -2.1075 C.ar    1  UNL1        0.0701
     15 C          -3.5665    5.9420   -2.7066 C.1     1  UNL1        0.1006
     16 N          -4.0045    6.9077   -3.1841 N.1     1  UNL1       -0.1908
     17 C          -1.8262    4.2909   -2.5118 C.ar    1  UNL1        0.0600
     18 CL         -0.8739    5.1084   -3.7349 Cl      1  UNL1       -0.0822
     19 C          -1.3089    3.1454   -1.9474 C.ar    1  UNL1       -0.0210
     20 C          -0.2088    0.6293   -0.4402 C.3     1  UNL1        0.0411
     21 C           0.8716    0.9931   -1.3823 C.3     1  UNL1       -0.0169
     22 C           2.0155    0.0943   -0.7685 C.3     1  UNL1        0.0196
     23 N           1.7294    0.1413    0.6513 N.am    1  UNL1       -0.2656
     24 C           2.4646   -0.5723    1.6290 C.2     1  UNL1        0.4032
     25 O           2.1466   -0.4719    2.8371 O.2     1  UNL1       -0.2262
     26 O           3.5301   -1.3832    1.2980 O.3     1  UNL1       -0.4475
     27 C           4.2910   -2.1096    2.2221 C.3     1  UNL1        0.0991
     28 C           5.7433   -1.7183    2.0450 C.3     1  UNL1       -0.0279
     29 C           4.1572   -3.5909    1.8741 C.3     1  UNL1       -0.0279
     30 C           0.6025    1.0164    0.8650 C.3     1  UNL1        0.0364
     31 H          -3.3881   -0.9120   -1.6301 H       1  UNL1        0.0278
     32 H          -3.0602   -2.6324   -1.8962 H       1  UNL1        0.0278
     33 H          -1.6986   -1.5128   -2.0989 H       1  UNL1        0.0278
     34 H          -1.9256   -4.0079   -0.4372 H       1  UNL1        0.0621
     35 H          -1.2447   -4.5145    1.8082 H       1  UNL1        0.0646
     36 H          -1.6584   -0.4051    2.8420 H       1  UNL1        0.0649
     37 H          -2.6703    1.1056    1.3437 H       1  UNL1        0.0513
     38 H          -3.4444    0.4519   -0.1207 H       1  UNL1        0.0513
     39 H          -3.7504    2.3766    0.1790 H       1  UNL1        0.0636
     40 H          -4.6945    4.4353   -0.8439 H       1  UNL1        0.0631
     41 H          -0.3441    2.7990   -2.3178 H       1  UNL1        0.0651
     42 H          -0.2269   -0.5107   -0.4349 H       1  UNL1        0.0516
     43 H           1.3281    1.9979   -1.2482 H       1  UNL1        0.0299
     44 H           0.7634    0.7427   -2.4245 H       1  UNL1        0.0299
     45 H           2.9917    0.5481   -0.9417 H       1  UNL1        0.0466
     46 H           1.9719   -0.8950   -1.2172 H       1  UNL1        0.0466
     47 H           3.9324   -1.9540    3.2660 H       1  UNL1        0.0729
     48 H           6.4073   -2.4880    2.4799 H       1  UNL1        0.0265
     49 H           5.9160   -1.6276    0.9419 H       1  UNL1        0.0265
     50 H           5.9293   -0.7107    2.4720 H       1  UNL1        0.0265
     51 H           3.7961   -3.7405    0.8451 H       1  UNL1        0.0265
     52 H           5.1513   -4.0872    1.9493 H       1  UNL1        0.0265
     53 H           3.4558   -4.1049    2.5813 H       1  UNL1        0.0265
     54 H           0.0355    0.9013    1.7516 H       1  UNL1        0.0484
     55 H           0.9363    2.0524    0.6350 H       1  UNL1        0.0484
@<TRIPOS>BOND
     1     1     2    1
     2     2     3   ar
     3     3     4   ar
     4     4     5   ar
     5     5     6    1
     6     5     7   ar
     7     7     8   ar
     8     8     9    1
     9     9    10    1
    10    10    11    1
    11    11    12   ar
    12    12    13   ar
    13    13    14   ar
    14    14    15    1
    15    15    16    3
    16    14    17   ar
    17    17    18    1
    18    17    19   ar
    19    10    20    1
    20    20    21    1
    21    21    22    1
    22    22    23    1
    23    23    24   am
    24    24    25    2
    25    24    26    1
    26    26    27    1
    27    27    28    1
    28    27    29    1
    29    23    30    1
    30     8     2   ar
    31    19    11   ar
    32    30    20    1
    33     1    31    1
    34     1    32    1
    35     1    33    1
    36     3    34    1
    37     4    35    1
    38     7    36    1
    39     9    37    1
    40     9    38    1
    41    12    39    1
    42    13    40    1
    43    19    41    1
    44    20    42    1
    45    21    43    1
    46    21    44    1
    47    22    45    1
    48    22    46    1
    49    27    47    1
    50    28    48    1
    51    28    49    1
    52    28    50    1
    53    29    51    1
    54    29    52    1
    55    29    53    1
    56    30    54    1
    57    30    55    1
