
     RDKit          3D

 55 57  0  0  0  0  0  0  0  0999 V2000
   -2.6129   -1.6722   -1.5193 C   0  0  0  0  0  0  0  0  0  0  0  0
   -2.1898   -1.9103   -0.1097 C   0  0  0  0  0  0  0  0  0  0  0  0
   -1.8702   -3.1873    0.2888 C   0  0  0  0  0  0  0  0  0  0  0  0
   -1.4810   -3.4759    1.5731 C   0  0  0  0  0  0  0  0  0  0  0  0
   -1.4054   -2.4653    2.4958 C   0  0  0  0  0  0  0  0  0  0  0  0
   -1.0248   -2.7628    3.7427 F   0  0  0  0  0  0  0  0  0  0  0  0
   -1.7306   -1.1798    2.0809 C   0  0  0  0  0  0  0  0  0  0  0  0
   -2.1220   -0.8637    0.8051 C   0  0  0  0  0  0  0  0  0  0  0  0
   -2.4780    0.4944    0.4398 C   0  0  0  0  0  0  0  0  0  0  0  0
   -1.4705    1.1992   -0.4027 N   0  0  0  0  0  0  0  0  0  0  0  0
   -1.9234    2.3975   -0.9860 C   0  0  0  0  0  0  0  0  0  0  0  0
   -3.1875    2.9036   -0.5930 C   0  0  0  0  0  0  0  0  0  0  0  0
   -3.7266    4.0428   -1.1402 C   0  0  0  0  0  0  0  0  0  0  0  0
   -3.0491    4.7497   -2.1075 C   0  0  0  0  0  0  0  0  0  0  0  0
   -3.5665    5.9420   -2.7066 C   0  0  0  0  0  0  0  0  0  0  0  0
   -4.0045    6.9077   -3.1841 N   0  0  0  0  0  0  0  0  0  0  0  0
   -1.8262    4.2909   -2.5118 C   0  0  0  0  0  0  0  0  0  0  0  0
   -0.8739    5.1084   -3.7349 Cl  0  0  0  0  0  0  0  0  0  0  0  0
   -1.3089    3.1454   -1.9474 C   0  0  0  0  0  0  0  0  0  0  0  0
   -0.2088    0.6293   -0.4402 C   0  0  1  0  0  0  0  0  0  0  0  0
    0.8716    0.9931   -1.3823 C   0  0  0  0  0  0  0  0  0  0  0  0
    2.0155    0.0943   -0.7685 C   0  0  0  0  0  0  0  0  0  0  0  0
    1.7294    0.1413    0.6513 N   0  0  0  0  0  0  0  0  0  0  0  0
    2.4646   -0.5723    1.6290 C   0  0  0  0  0  0  0  0  0  0  0  0
    2.1466   -0.4719    2.8371 O   0  0  0  0  0  0  0  0  0  0  0  0
    3.5301   -1.3832    1.2980 O   0  0  0  0  0  0  0  0  0  0  0  0
    4.2910   -2.1096    2.2221 C   0  0  0  0  0  0  0  0  0  0  0  0
    5.7433   -1.7183    2.0450 C   0  0  0  0  0  0  0  0  0  0  0  0
    4.1572   -3.5909    1.8741 C   0  0  0  0  0  0  0  0  0  0  0  0
    0.6025    1.0164    0.8650 C   0  0  0  0  0  0  0  0  0  0  0  0
   -3.3881   -0.9120   -1.6301 H   0  0  0  0  0  0  0  0  0  0  0  0
   -3.0602   -2.6324   -1.8962 H   0  0  0  0  0  0  0  0  0  0  0  0
   -1.6986   -1.5128   -2.0989 H   0  0  0  0  0  0  0  0  0  0  0  0
   -1.9256   -4.0079   -0.4372 H   0  0  0  0  0  0  0  0  0  0  0  0
   -1.2447   -4.5145    1.8082 H   0  0  0  0  0  0  0  0  0  0  0  0
   -1.6584   -0.4051    2.8420 H   0  0  0  0  0  0  0  0  0  0  0  0
   -2.6703    1.1056    1.3437 H   0  0  0  0  0  0  0  0  0  0  0  0
   -3.4444    0.4519   -0.1207 H   0  0  0  0  0  0  0  0  0  0  0  0
   -3.7504    2.3766    0.1790 H   0  0  0  0  0  0  0  0  0  0  0  0
   -4.6945    4.4353   -0.8439 H   0  0  0  0  0  0  0  0  0  0  0  0
   -0.3441    2.7990   -2.3178 H   0  0  0  0  0  0  0  0  0  0  0  0
   -0.2269   -0.5107   -0.4349 H   0  0  0  0  0  0  0  0  0  0  0  0
    1.3281    1.9979   -1.2482 H   0  0  0  0  0  0  0  0  0  0  0  0
    0.7634    0.7427   -2.4245 H   0  0  0  0  0  0  0  0  0  0  0  0
    2.9917    0.5481   -0.9417 H   0  0  0  0  0  0  0  0  0  0  0  0
    1.9719   -0.8950   -1.2172 H   0  0  0  0  0  0  0  0  0  0  0  0
    3.9324   -1.9540    3.2660 H   0  0  0  0  0  0  0  0  0  0  0  0
    6.4073   -2.4880    2.4799 H   0  0  0  0  0  0  0  0  0  0  0  0
    5.9160   -1.6276    0.9419 H   0  0  0  0  0  0  0  0  0  0  0  0
    5.9293   -0.7107    2.4720 H   0  0  0  0  0  0  0  0  0  0  0  0
    3.7961   -3.7405    0.8451 H   0  0  0  0  0  0  0  0  0  0  0  0
    5.1513   -4.0872    1.9493 H   0  0  0  0  0  0  0  0  0  0  0  0
    3.4558   -4.1049    2.5813 H   0  0  0  0  0  0  0  0  0  0  0  0
    0.0355    0.9013    1.7516 H   0  0  0  0  0  0  0  0  0  0  0  0
    0.9363    2.0524    0.6350 H   0  0  0  0  0  0  0  0  0  0  0  0
  1  2  1  0
  2  3  2  0
  3  4  1  0
  4  5  2  0
  5  6  1  0
  5  7  1  0
  7  8  2  0
  8  9  1  0
  9 10  1  0
 10 11  1  0
 11 12  2  0
 12 13  1  0
 13 14  2  0
 14 15  1  0
 15 16  3  0
 14 17  1  0
 17 18  1  0
 17 19  2  0
 10 20  1  0
 20 21  1  0
 21 22  1  0
 22 23  1  0
 23 24  1  0
 24 25  2  0
 24 26  1  0
 26 27  1  0
 27 28  1  0
 27 29  1  0
 23 30  1  0
  8  2  1  0
 19 11  1  0
 30 20  1  0
  1 31  1  0
  1 32  1  0
  1 33  1  0
  3 34  1  0
  4 35  1  0
  7 36  1  0
  9 37  1  0
  9 38  1  0
 12 39  1  0
 13 40  1  0
 19 41  1  0
 20 42  1  1
 21 43  1  0
 21 44  1  0
 22 45  1  0
 22 46  1  0
 27 47  1  0
 28 48  1  0
 28 49  1  0
 28 50  1  0
 29 51  1  0
 29 52  1  0
 29 53  1  0
 30 54  1  0
 30 55  1  0
M  END
$$$$
