@<TRIPOS>MOLECULE
*****
 57 59 0 0 0
SMALL
GASTEIGER

@<TRIPOS>ATOM
      1 CA          5.8823    0.1510    1.4582 C.3     1  GLU1        0.1209
      2 CB          6.7073   -0.9583    0.8901 C.3     1  GLU1       -0.0140
      3 CG          6.8160   -0.9987   -0.5982 C.3     1  GLU1        0.0470
      4 CD          7.4185    0.1944   -1.2089 C.2     1  GLU1        0.3048
      5 OE1         8.8234    0.2021   -1.2941 O.3     1  GLU1       -0.4806
      6 OE2         6.7999    1.1755   -1.6465 O.2     1  GLU1       -0.2510
      7 N           4.5372    0.0520    0.9456 N.am    1  GLU1       -0.2983
      8 C           3.3908   -0.2152    1.7444 C.2     0  UNK0        0.2447
      9 O           3.6487   -0.3625    2.9647 O.2     0  UNK0       -0.2702
     10 C           2.0727   -0.2972    1.1457 C.ar    0  UNK0        0.0368
     11 C           1.7662   -0.1470   -0.2098 C.ar    0  UNK0       -0.0479
     12 C           0.4509   -0.2540   -0.6119 C.ar    0  UNK0       -0.0401
     13 C          -0.5944   -0.5030    0.2513 C.ar    0  UNK0        0.0272
     14 N          -1.9296   -0.6014   -0.2257 N.pl3   0  UNK0       -0.3417
     15 C          -2.2090   -0.4438   -1.6233 C.3     0  UNK0        0.0327
     16 C          -3.6892   -0.5856   -1.8616 C.3     0  UNK0        0.0766
     17 C          -4.1883   -1.9012   -1.4398 C.2     0  UNK0        0.0294
     18 N          -5.1983   -2.2026   -0.6587 N.2     0  UNK0       -0.2384
     19 C          -5.9660   -1.1259   -0.1089 C.ar    0  UNK0        0.1598
     20 C          -5.5829    0.1523   -0.4524 C.ar    0  UNK0        0.1371
     21 N          -4.4823    0.4760   -1.3177 N.pl3   0  UNK0       -0.2907
     22 C          -4.1942    1.8294   -1.6578 C.3     0  UNK0        0.1112
     23 O          -5.1785    2.4459   -2.4540 O.3     0  UNK0       -0.3770
     24 C          -6.3715    1.1207    0.1335 C.ar    0  UNK0        0.2409
     25 O          -6.1294    2.4660   -0.0975 O.3     0  UNK0       -0.4910
     26 N          -7.4079    0.8548    0.9533 N.ar    0  UNK0       -0.1761
     27 C          -7.7001   -0.4119    1.2235 C.ar    0  UNK0        0.2253
     28 N          -8.6934   -0.7000    2.0090 N.2     0  UNK0       -0.2664
     29 N          -6.9945   -1.4047    0.7046 N.ar    0  UNK0       -0.3078
     30 C          -0.2889   -0.6507    1.5886 C.ar    0  UNK0       -0.0401
     31 C           1.0399   -0.5446    2.0075 C.ar    0  UNK0       -0.0479
     32 C           6.4973    1.4743    1.3427 C.2     1  GLU1        0.3253
     33 O           6.0215    2.7121    0.8677 O.3     1  GLU1       -0.4793
     34 OXT         7.6867    1.7952    1.6808 O.2     1  GLU1       -0.2489
     35 HA          5.8069   -0.0395    2.5893 H       1  GLU1        0.0614
     36 HB1         6.3079   -1.9714    1.1990 H       1  GLU1        0.0294
     37 HB2         7.7360   -0.9556    1.3432 H       1  GLU1        0.0294
     38 HG1         7.4619   -1.8994   -0.8310 H       1  GLU1        0.0378
     39 HG2         5.8181   -1.2386   -1.0350 H       1  GLU1        0.0378
     40 HE1         9.2574    1.0585   -1.6057 H       1  GLU1        0.2951
     41 H           4.4896    0.1984   -0.0860 H       1  GLU1        0.1498
     42 H           2.6079    0.0471   -0.8583 H       0  UNK0        0.0626
     43 H           0.2600   -0.1302   -1.6747 H       0  UNK0        0.0636
     44 H          -2.6813   -0.7876    0.4542 H       0  UNK0        0.1461
     45 H          -1.7383   -1.3148   -2.1536 H       0  UNK0        0.0483
     46 H          -1.8023    0.4622   -2.0666 H       0  UNK0        0.0483
     47 H          -3.8354   -0.5449   -2.9809 H       0  UNK0        0.0575
     48 H          -3.5661   -2.6776   -1.8920 H       0  UNK0        0.0803
     49 H          -3.2888    1.8458   -2.2962 H       0  UNK0        0.0769
     50 H          -3.9069    2.4600   -0.7883 H       0  UNK0        0.0769
     51 H          -5.2217    1.8975   -3.2897 H       0  UNK0        0.2115
     52 H          -6.7976    3.1934    0.0351 H       0  UNK0        0.2938
     53 H          -8.9567   -1.6960    2.2477 H       0  UNK0        0.1898
     54 H          -7.2097   -2.4137    0.9063 H       0  UNK0        0.1703
     55 H          -1.1234   -0.8460    2.2521 H       0  UNK0        0.0636
     56 H           1.1946   -0.6748    3.0842 H       0  UNK0        0.0626
     57 H           6.4268    3.2338    0.1276 H       1  GLU1        0.2951
@<TRIPOS>BOND
     1     1     2    1
     2     2     3    1
     3     3     4    1
     4     4     5    1
     5     4     6    2
     6     1     7    1
     7     7     8   am
     8     8     9    2
     9     8    10    1
    10    10    11   ar
    11    11    12   ar
    12    12    13   ar
    13    13    14    1
    14    14    15    1
    15    15    16    1
    16    16    17    1
    17    17    18    2
    18    18    19    1
    19    19    20   ar
    20    20    21    1
    21    21    22    1
    22    22    23    1
    23    20    24   ar
    24    24    25    1
    25    24    26   ar
    26    26    27   ar
    27    27    28    2
    28    27    29   ar
    29    13    30   ar
    30    30    31   ar
    31     1    32    1
    32    32    33    1
    33    32    34    2
    34    31    10   ar
    35    21    16    1
    36    29    19   ar
    37     1    35    1
    38     2    36    1
    39     2    37    1
    40     3    38    1
    41     3    39    1
    42     5    40    1
    43     7    41    1
    44    11    42    1
    45    12    43    1
    46    14    44    1
    47    15    45    1
    48    15    46    1
    49    16    47    1
    50    17    48    1
    51    22    49    1
    52    22    50    1
    53    23    51    1
    54    25    52    1
    55    28    53    1
    56    29    54    1
    57    30    55    1
    58    31    56    1
    59    33    57    1
