
     RDKit          3D

 57 59  0  0  0  0  0  0  0  0999 V2000
    5.8823    0.1510    1.4582 C   0  0  2  0  0  0  0  0  0  0  0  0
    6.7073   -0.9583    0.8901 C   0  0  0  0  0  0  0  0  0  0  0  0
    6.8160   -0.9987   -0.5982 C   0  0  0  0  0  0  0  0  0  0  0  0
    7.4185    0.1944   -1.2089 C   0  0  0  0  0  0  0  0  0  0  0  0
    8.8234    0.2021   -1.2941 O   0  0  0  0  0  0  0  0  0  0  0  0
    6.7999    1.1755   -1.6465 O   0  0  0  0  0  0  0  0  0  0  0  0
    4.5372    0.0520    0.9456 N   0  0  0  0  0  0  0  0  0  0  0  0
    3.3908   -0.2152    1.7444 C   0  0  0  0  0  0  0  0  0  0  0  0
    3.6487   -0.3625    2.9647 O   0  0  0  0  0  0  0  0  0  0  0  0
    2.0727   -0.2972    1.1457 C   0  0  0  0  0  0  0  0  0  0  0  0
    1.7662   -0.1470   -0.2098 C   0  0  0  0  0  0  0  0  0  0  0  0
    0.4509   -0.2540   -0.6119 C   0  0  0  0  0  0  0  0  0  0  0  0
   -0.5944   -0.5030    0.2513 C   0  0  0  0  0  0  0  0  0  0  0  0
   -1.9296   -0.6014   -0.2257 N   0  0  0  0  0  0  0  0  0  0  0  0
   -2.2090   -0.4438   -1.6233 C   0  0  0  0  0  0  0  0  0  0  0  0
   -3.6892   -0.5856   -1.8616 C   0  0  1  0  0  0  0  0  0  0  0  0
   -4.1883   -1.9012   -1.4398 C   0  0  0  0  0  0  0  0  0  0  0  0
   -5.1983   -2.2026   -0.6587 N   0  0  0  0  0  0  0  0  0  0  0  0
   -5.9660   -1.1259   -0.1089 C   0  0  0  0  0  0  0  0  0  0  0  0
   -5.5829    0.1523   -0.4524 C   0  0  0  0  0  0  0  0  0  0  0  0
   -4.4823    0.4760   -1.3177 N   0  0  0  0  0  0  0  0  0  0  0  0
   -4.1942    1.8294   -1.6578 C   0  0  0  0  0  0  0  0  0  0  0  0
   -5.1785    2.4459   -2.4540 O   0  0  0  0  0  0  0  0  0  0  0  0
   -6.3715    1.1207    0.1335 C   0  0  0  0  0  0  0  0  0  0  0  0
   -6.1294    2.4660   -0.0975 O   0  0  0  0  0  0  0  0  0  0  0  0
   -7.4079    0.8548    0.9533 N   0  0  0  0  0  0  0  0  0  0  0  0
   -7.7001   -0.4119    1.2235 C   0  0  0  0  0  0  0  0  0  0  0  0
   -8.6934   -0.7000    2.0090 N   0  0  0  0  0  0  0  0  0  0  0  0
   -6.9945   -1.4047    0.7046 N   0  0  0  0  0  0  0  0  0  0  0  0
   -0.2889   -0.6507    1.5886 C   0  0  0  0  0  0  0  0  0  0  0  0
    1.0399   -0.5446    2.0075 C   0  0  0  0  0  0  0  0  0  0  0  0
    6.4973    1.4743    1.3427 C   0  0  0  0  0  0  0  0  0  0  0  0
    6.0215    2.7121    0.8677 O   0  0  0  0  0  0  0  0  0  0  0  0
    7.6867    1.7952    1.6808 O   0  0  0  0  0  0  0  0  0  0  0  0
    5.8069   -0.0395    2.5893 H   0  0  0  0  0  0  0  0  0  0  0  0
    6.3079   -1.9714    1.1990 H   0  0  0  0  0  0  0  0  0  0  0  0
    7.7360   -0.9556    1.3432 H   0  0  0  0  0  0  0  0  0  0  0  0
    7.4619   -1.8994   -0.8310 H   0  0  0  0  0  0  0  0  0  0  0  0
    5.8181   -1.2386   -1.0350 H   0  0  0  0  0  0  0  0  0  0  0  0
    9.2574    1.0585   -1.6057 H   0  0  0  0  0  0  0  0  0  0  0  0
    4.4896    0.1984   -0.0860 H   0  0  0  0  0  0  0  0  0  0  0  0
    2.6079    0.0471   -0.8583 H   0  0  0  0  0  0  0  0  0  0  0  0
    0.2600   -0.1302   -1.6747 H   0  0  0  0  0  0  0  0  0  0  0  0
   -2.6813   -0.7876    0.4542 H   0  0  0  0  0  0  0  0  0  0  0  0
   -1.7383   -1.3148   -2.1536 H   0  0  0  0  0  0  0  0  0  0  0  0
   -1.8023    0.4622   -2.0666 H   0  0  0  0  0  0  0  0  0  0  0  0
   -3.8354   -0.5449   -2.9809 H   0  0  0  0  0  0  0  0  0  0  0  0
   -3.5661   -2.6776   -1.8920 H   0  0  0  0  0  0  0  0  0  0  0  0
   -3.2888    1.8458   -2.2962 H   0  0  0  0  0  0  0  0  0  0  0  0
   -3.9069    2.4600   -0.7883 H   0  0  0  0  0  0  0  0  0  0  0  0
   -5.2217    1.8975   -3.2897 H   0  0  0  0  0  0  0  0  0  0  0  0
   -6.7976    3.1934    0.0351 H   0  0  0  0  0  0  0  0  0  0  0  0
   -8.9567   -1.6960    2.2477 H   0  0  0  0  0  0  0  0  0  0  0  0
   -7.2097   -2.4137    0.9063 H   0  0  0  0  0  0  0  0  0  0  0  0
   -1.1234   -0.8460    2.2521 H   0  0  0  0  0  0  0  0  0  0  0  0
    1.1946   -0.6748    3.0842 H   0  0  0  0  0  0  0  0  0  0  0  0
    6.4268    3.2338    0.1276 H   0  0  0  0  0  0  0  0  0  0  0  0
  1  2  1  0
  2  3  1  0
  3  4  1  0
  4  5  1  0
  4  6  2  0
  1  7  1  0
  7  8  1  0
  8  9  2  0
  8 10  1  0
 10 11  2  0
 11 12  1  0
 12 13  2  0
 13 14  1  0
 14 15  1  0
 15 16  1  0
 16 17  1  0
 17 18  2  0
 18 19  1  0
 19 20  2  0
 20 21  1  0
 21 22  1  0
 22 23  1  0
 20 24  1  0
 24 25  1  0
 24 26  2  0
 26 27  1  0
 27 28  2  3
 27 29  1  0
 13 30  1  0
 30 31  2  0
  1 32  1  0
 32 33  1  0
 32 34  2  0
 31 10  1  0
 21 16  1  0
 29 19  1  0
  1 35  1  1
  2 36  1  0
  2 37  1  0
  3 38  1  0
  3 39  1  0
  5 40  1  0
  7 41  1  0
 11 42  1  0
 12 43  1  0
 14 44  1  0
 15 45  1  0
 15 46  1  0
 16 47  1  6
 17 48  1  0
 22 49  1  0
 22 50  1  0
 23 51  1  0
 25 52  1  0
 28 53  1  0
 29 54  1  0
 30 55  1  0
 31 56  1  0
 33 57  1  0
M  END
$$$$
