
     RDKit          3D

 91 97  0  0  0  0  0  0  0  0999 V2000
   11.8394   -2.8150    0.4987 C   0  0  0  0  0  0  0  0  0  0  0  0
   11.9705   -1.5133   -0.2686 C   0  0  0  0  0  0  0  0  0  0  0  0
   11.8660   -1.8139   -1.7466 C   0  0  0  0  0  0  0  0  0  0  0  0
   10.9502   -0.5753    0.0796 N   0  0  0  0  0  0  0  0  0  0  0  0
   10.9536   -0.1910    1.4797 C   0  0  0  0  0  0  0  0  0  0  0  0
   10.1239    1.0649    1.5760 C   0  0  0  0  0  0  0  0  0  0  0  0
    8.9121    1.0127    0.8185 N   0  0  0  0  0  0  0  0  0  0  0  0
    7.7346    1.7304    1.2514 C   0  0  0  0  0  0  0  0  0  0  0  0
    7.7920    2.4021    2.3135 O   0  0  0  0  0  0  0  0  0  0  0  0
    6.4811    1.7148    0.5160 C   0  0  0  0  0  0  0  0  0  0  0  0
    5.3176    1.3271    1.1462 C   0  0  0  0  0  0  0  0  0  0  0  0
    4.1119    1.3161    0.4348 C   0  0  0  0  0  0  0  0  0  0  0  0
    4.0412    1.6818   -0.8868 C   0  0  0  0  0  0  0  0  0  0  0  0
    2.8543    1.7008   -1.6559 N   0  0  0  0  0  0  0  0  0  0  0  0
    1.5540    1.4168   -1.2074 C   0  0  0  0  0  0  0  0  0  0  0  0
    1.3350    1.1169   -0.0326 O   0  0  0  0  0  0  0  0  0  0  0  0
    0.4165    1.4597   -2.0834 N   0  0  0  0  0  0  0  0  0  0  0  0
   -0.9056    1.1862   -1.6544 C   0  0  0  0  0  0  0  0  0  0  0  0
   -1.4358   -0.0681   -1.6585 C   0  0  0  0  0  0  0  0  0  0  0  0
   -2.7569   -0.2804   -1.2323 C   0  0  0  0  0  0  0  0  0  0  0  0
   -3.5340    0.7670   -0.8060 C   0  0  0  0  0  0  0  0  0  0  0  0
   -4.8953    0.5555   -0.3788 C   0  0  0  0  0  0  0  0  0  0  0  0
   -5.6508    1.6063    0.0111 N   0  0  0  0  0  0  0  0  0  0  0  0
   -6.9267    1.4981    0.4177 C   0  0  0  0  0  0  0  0  0  0  0  0
   -7.6446    2.7122    0.8197 C   0  0  0  0  0  0  0  0  0  0  0  0
   -8.2285    2.6232    2.2030 C   0  0  0  0  0  0  0  0  0  0  0  0
   -9.6121    3.2341    2.2172 C   0  0  0  0  0  0  0  0  0  0  0  0
  -10.5019    2.6005    1.3821 O   0  0  0  0  0  0  0  0  0  0  0  0
   -9.9596    2.1986    0.1732 C   0  0  0  0  0  0  0  0  0  0  0  0
   -8.7640    3.0347   -0.1495 C   0  0  0  0  0  0  0  0  0  0  0  0
   -7.4713    0.2674    0.4329 N   0  0  0  0  0  0  0  0  0  0  0  0
   -6.7703   -0.8168    0.0569 C   0  0  0  0  0  0  0  0  0  0  0  0
   -7.3514   -2.1227    0.0716 N   0  0  0  0  0  0  0  0  0  0  0  0
   -6.6341   -3.3540   -0.1927 C   0  0  0  0  0  0  0  0  0  0  0  0
   -7.6099   -4.0744   -1.1036 C   0  0  0  0  0  0  0  0  0  0  0  0
   -8.9739   -3.5040   -0.7859 C   0  0  0  0  0  0  0  0  0  0  0  0
   -8.7092   -2.5341    0.3323 C   0  0  0  0  0  0  0  0  0  0  0  0
   -8.6847   -3.3131    1.6311 C   0  0  0  0  0  0  0  0  0  0  0  0
   -7.3866   -3.4796    2.1112 O   0  0  0  0  0  0  0  0  0  0  0  0
   -6.5625   -4.0764    1.1602 C   0  0  0  0  0  0  0  0  0  0  0  0
   -5.4926   -0.6428   -0.3415 N   0  0  0  0  0  0  0  0  0  0  0  0
   -3.0010    2.0286   -0.8014 C   0  0  0  0  0  0  0  0  0  0  0  0
   -1.6840    2.2575   -1.2236 C   0  0  0  0  0  0  0  0  0  0  0  0
    5.2591    2.0659   -1.4712 C   0  0  0  0  0  0  0  0  0  0  0  0
    6.4442    2.0894   -0.8160 C   0  0  0  0  0  0  0  0  0  0  0  0
    8.7770    0.2635   -0.4061 C   0  0  0  0  0  0  0  0  0  0  0  0
    9.6294   -0.9803   -0.3118 C   0  0  0  0  0  0  0  0  0  0  0  0
   11.1826   -2.7217    1.3655 H   0  0  0  0  0  0  0  0  0  0  0  0
   11.4503   -3.6234   -0.1736 H   0  0  0  0  0  0  0  0  0  0  0  0
   12.8266   -3.1835    0.8611 H   0  0  0  0  0  0  0  0  0  0  0  0
   12.9792   -1.1198   -0.0277 H   0  0  0  0  0  0  0  0  0  0  0  0
   11.3485   -2.7696   -1.9602 H   0  0  0  0  0  0  0  0  0  0  0  0
   12.9057   -1.8119   -2.1639 H   0  0  0  0  0  0  0  0  0  0  0  0
   11.3581   -0.9484   -2.2417 H   0  0  0  0  0  0  0  0  0  0  0  0
   10.4695   -0.9626    2.1189 H   0  0  0  0  0  0  0  0  0  0  0  0
   11.9965    0.0210    1.7841 H   0  0  0  0  0  0  0  0  0  0  0  0
    9.8676    1.3126    2.6296 H   0  0  0  0  0  0  0  0  0  0  0  0
   10.7527    1.8845    1.1194 H   0  0  0  0  0  0  0  0  0  0  0  0
    5.3381    1.0328    2.1876 H   0  0  0  0  0  0  0  0  0  0  0  0
    3.2423    1.0000    0.9904 H   0  0  0  0  0  0  0  0  0  0  0  0
    2.9665    1.9582   -2.6873 H   0  0  0  0  0  0  0  0  0  0  0  0
    0.6209    1.7097   -3.0805 H   0  0  0  0  0  0  0  0  0  0  0  0
   -0.8098   -0.8847   -1.9977 H   0  0  0  0  0  0  0  0  0  0  0  0
   -3.1020   -1.3028   -1.2660 H   0  0  0  0  0  0  0  0  0  0  0  0
   -6.9370    3.5716    0.7821 H   0  0  0  0  0  0  0  0  0  0  0  0
   -7.6118    3.2232    2.8952 H   0  0  0  0  0  0  0  0  0  0  0  0
   -8.2764    1.6057    2.6104 H   0  0  0  0  0  0  0  0  0  0  0  0
  -10.0243    3.1538    3.2625 H   0  0  0  0  0  0  0  0  0  0  0  0
   -9.5818    4.3206    2.0003 H   0  0  0  0  0  0  0  0  0  0  0  0
   -9.7467    1.1224    0.2355 H   0  0  0  0  0  0  0  0  0  0  0  0
  -10.7765    2.3556   -0.5932 H   0  0  0  0  0  0  0  0  0  0  0  0
   -9.0201    4.1067    0.0162 H   0  0  0  0  0  0  0  0  0  0  0  0
   -8.4290    2.9585   -1.1971 H   0  0  0  0  0  0  0  0  0  0  0  0
   -5.6506   -3.2116   -0.6421 H   0  0  0  0  0  0  0  0  0  0  0  0
   -7.3605   -3.7960   -2.1507 H   0  0  0  0  0  0  0  0  0  0  0  0
   -7.5608   -5.1744   -0.9718 H   0  0  0  0  0  0  0  0  0  0  0  0
   -9.4448   -3.0326   -1.6706 H   0  0  0  0  0  0  0  0  0  0  0  0
   -9.6026   -4.3457   -0.3754 H   0  0  0  0  0  0  0  0  0  0  0  0
   -9.4301   -1.6949    0.3573 H   0  0  0  0  0  0  0  0  0  0  0  0
   -9.1269   -4.3252    1.5326 H   0  0  0  0  0  0  0  0  0  0  0  0
   -9.2798   -2.7889    2.4009 H   0  0  0  0  0  0  0  0  0  0  0  0
   -6.7301   -5.1523    1.0625 H   0  0  0  0  0  0  0  0  0  0  0  0
   -5.5157   -3.9102    1.5268 H   0  0  0  0  0  0  0  0  0  0  0  0
   -3.5417    2.9139   -0.4814 H   0  0  0  0  0  0  0  0  0  0  0  0
   -1.2754    3.2576   -1.2142 H   0  0  0  0  0  0  0  0  0  0  0  0
    5.2157    2.3554   -2.5114 H   0  0  0  0  0  0  0  0  0  0  0  0
    7.3656    2.3882   -1.2850 H   0  0  0  0  0  0  0  0  0  0  0  0
    7.7133    0.0163   -0.6154 H   0  0  0  0  0  0  0  0  0  0  0  0
    9.2192    0.8639   -1.2554 H   0  0  0  0  0  0  0  0  0  0  0  0
    9.1361   -1.6194    0.4776 H   0  0  0  0  0  0  0  0  0  0  0  0
    9.6630   -1.5304   -1.2785 H   0  0  0  0  0  0  0  0  0  0  0  0
  1  2  1  0
  2  3  1  0
  2  4  1  0
  4  5  1  0
  5  6  1  0
  6  7  1  0
  7  8  1  0
  8  9  2  0
  8 10  1  0
 10 11  2  0
 11 12  1  0
 12 13  2  0
 13 14  1  0
 14 15  1  0
 15 16  2  0
 15 17  1  0
 17 18  1  0
 18 19  2  0
 19 20  1  0
 20 21  2  0
 21 22  1  0
 22 23  2  0
 23 24  1  0
 24 25  1  0
 25 26  1  0
 26 27  1  0
 27 28  1  0
 28 29  1  0
 29 30  1  0
 24 31  2  0
 31 32  1  0
 32 33  1  0
 33 34  1  0
 34 35  1  0
 35 36  1  0
 36 37  1  0
 37 38  1  0
 38 39  1  0
 39 40  1  0
 32 41  2  0
 21 42  1  0
 42 43  2  0
 13 44  1  0
 44 45  2  0
  7 46  1  0
 46 47  1  0
 47  4  1  0
 45 10  1  0
 43 18  1  0
 41 22  1  0
 30 25  1  0
 37 33  1  0
 40 34  1  0
  1 48  1  0
  1 49  1  0
  1 50  1  0
  2 51  1  0
  3 52  1  0
  3 53  1  0
  3 54  1  0
  5 55  1  0
  5 56  1  0
  6 57  1  0
  6 58  1  0
 11 59  1  0
 12 60  1  0
 14 61  1  0
 17 62  1  0
 19 63  1  0
 20 64  1  0
 25 65  1  0
 26 66  1  0
 26 67  1  0
 27 68  1  0
 27 69  1  0
 29 70  1  0
 29 71  1  0
 30 72  1  0
 30 73  1  0
 34 74  1  0
 35 75  1  0
 35 76  1  0
 36 77  1  0
 36 78  1  0
 37 79  1  0
 38 80  1  0
 38 81  1  0
 40 82  1  0
 40 83  1  0
 42 84  1  0
 43 85  1  0
 44 86  1  0
 45 87  1  0
 46 88  1  0
 46 89  1  0
 47 90  1  0
 47 91  1  0
M  END
$$$$
