@<TRIPOS>MOLECULE
*****
 91 97 0 0 0
SMALL
GASTEIGER

@<TRIPOS>ATOM
      1 C          11.8394   -2.8150    0.4987 C.3     1  UNL1       -0.0497
      2 C          11.9705   -1.5133   -0.2686 C.3     1  UNL1        0.0049
      3 C          11.8660   -1.8139   -1.7466 C.3     1  UNL1       -0.0497
      4 N          10.9502   -0.5753    0.0796 N.3     1  UNL1       -0.2969
      5 C          10.9536   -0.1910    1.4797 C.3     1  UNL1        0.0150
      6 C          10.1239    1.0649    1.5760 C.3     1  UNL1        0.0278
      7 N           8.9121    1.0127    0.8185 N.am    1  UNL1       -0.2951
      8 C           7.7346    1.7304    1.2514 C.2     1  UNL1        0.2467
      9 O           7.7920    2.4021    2.3135 O.2     1  UNL1       -0.2700
     10 C           6.4811    1.7148    0.5160 C.ar    1  UNL1        0.0370
     11 C           5.3176    1.3271    1.1462 C.ar    1  UNL1       -0.0479
     12 C           4.1119    1.3161    0.4348 C.ar    1  UNL1       -0.0397
     13 C           4.0412    1.6818   -0.8868 C.ar    1  UNL1        0.0348
     14 N           2.8543    1.7008   -1.6559 N.am    1  UNL1       -0.2692
     15 C           1.5540    1.4168   -1.2074 C.2     1  UNL1        0.3081
     16 O           1.3350    1.1169   -0.0326 O.2     1  UNL1       -0.2522
     17 N           0.4165    1.4597   -2.0834 N.am    1  UNL1       -0.2692
     18 C          -0.9056    1.1862   -1.6544 C.ar    1  UNL1        0.0348
     19 C          -1.4358   -0.0681   -1.6585 C.ar    1  UNL1       -0.0398
     20 C          -2.7569   -0.2804   -1.2323 C.ar    1  UNL1       -0.0493
     21 C          -3.5340    0.7670   -0.8060 C.ar    1  UNL1        0.0194
     22 C          -4.8953    0.5555   -0.3788 C.ar    1  UNL1        0.1652
     23 N          -5.6508    1.6063    0.0111 N.ar    1  UNL1       -0.2122
     24 C          -6.9267    1.4981    0.4177 C.ar    1  UNL1        0.1382
     25 C          -7.6446    2.7122    0.8197 C.3     1  UNL1        0.0233
     26 C          -8.2285    2.6232    2.2030 C.3     1  UNL1       -0.0197
     27 C          -9.6121    3.2341    2.2172 C.3     1  UNL1        0.0483
     28 O         -10.5019    2.6005    1.3821 O.3     1  UNL1       -0.3797
     29 C          -9.9596    2.1986    0.1732 C.3     1  UNL1        0.0483
     30 C          -8.7640    3.0347   -0.1495 C.3     1  UNL1       -0.0197
     31 N          -7.4713    0.2674    0.4329 N.ar    1  UNL1       -0.1991
     32 C          -6.7703   -0.8168    0.0569 C.ar    1  UNL1        0.2220
     33 N          -7.3514   -2.1227    0.0716 N.pl3   1  UNL1       -0.2891
     34 C          -6.6341   -3.3540   -0.1927 C.3     1  UNL1        0.0500
     35 C          -7.6099   -4.0744   -1.1036 C.3     1  UNL1       -0.0304
     36 C          -8.9739   -3.5040   -0.7859 C.3     1  UNL1       -0.0304
     37 C          -8.7092   -2.5341    0.3323 C.3     1  UNL1        0.0500
     38 C          -8.6847   -3.3131    1.6311 C.3     1  UNL1        0.0663
     39 O          -7.3866   -3.4796    2.1112 O.3     1  UNL1       -0.3761
     40 C          -6.5625   -4.0764    1.1602 C.3     1  UNL1        0.0663
     41 N          -5.4926   -0.6428   -0.3415 N.ar    1  UNL1       -0.1945
     42 C          -3.0010    2.0286   -0.8014 C.ar    1  UNL1       -0.0493
     43 C          -1.6840    2.2575   -1.2236 C.ar    1  UNL1       -0.0398
     44 C           5.2591    2.0659   -1.4712 C.ar    1  UNL1       -0.0397
     45 C           6.4442    2.0894   -0.8160 C.ar    1  UNL1       -0.0479
     46 C           8.7770    0.2635   -0.4061 C.3     1  UNL1        0.0278
     47 C           9.6294   -0.9803   -0.3118 C.3     1  UNL1        0.0150
     48 H          11.1826   -2.7217    1.3655 H       1  UNL1        0.0245
     49 H          11.4503   -3.6234   -0.1736 H       1  UNL1        0.0245
     50 H          12.8266   -3.1835    0.8611 H       1  UNL1        0.0245
     51 H          12.9792   -1.1198   -0.0277 H       1  UNL1        0.0457
     52 H          11.3485   -2.7696   -1.9602 H       1  UNL1        0.0245
     53 H          12.9057   -1.8119   -2.1639 H       1  UNL1        0.0245
     54 H          11.3581   -0.9484   -2.2417 H       1  UNL1        0.0245
     55 H          10.4695   -0.9626    2.1189 H       1  UNL1        0.0442
     56 H          11.9965    0.0210    1.7841 H       1  UNL1        0.0442
     57 H           9.8676    1.3126    2.6296 H       1  UNL1        0.0477
     58 H          10.7527    1.8845    1.1194 H       1  UNL1        0.0477
     59 H           5.3381    1.0328    2.1876 H       1  UNL1        0.0626
     60 H           3.2423    1.0000    0.9904 H       1  UNL1        0.0636
     61 H           2.9665    1.9582   -2.6873 H       1  UNL1        0.1564
     62 H           0.6209    1.7097   -3.0805 H       1  UNL1        0.1564
     63 H          -0.8098   -0.8847   -1.9977 H       1  UNL1        0.0636
     64 H          -3.1020   -1.3028   -1.2660 H       1  UNL1        0.0625
     65 H          -6.9370    3.5716    0.7821 H       1  UNL1        0.0381
     66 H          -7.6118    3.2232    2.8952 H       1  UNL1        0.0294
     67 H          -8.2764    1.6057    2.6104 H       1  UNL1        0.0294
     68 H         -10.0243    3.1538    3.2625 H       1  UNL1        0.0560
     69 H          -9.5818    4.3206    2.0003 H       1  UNL1        0.0560
     70 H          -9.7467    1.1224    0.2355 H       1  UNL1        0.0560
     71 H         -10.7765    2.3556   -0.5932 H       1  UNL1        0.0560
     72 H          -9.0201    4.1067    0.0162 H       1  UNL1        0.0294
     73 H          -8.4290    2.9585   -1.1971 H       1  UNL1        0.0294
     74 H          -5.6506   -3.2116   -0.6421 H       1  UNL1        0.0523
     75 H          -7.3605   -3.7960   -2.1507 H       1  UNL1        0.0284
     76 H          -7.5608   -5.1744   -0.9718 H       1  UNL1        0.0284
     77 H          -9.4448   -3.0326   -1.6706 H       1  UNL1        0.0284
     78 H          -9.6026   -4.3457   -0.3754 H       1  UNL1        0.0284
     79 H          -9.4301   -1.6949    0.3573 H       1  UNL1        0.0523
     80 H          -9.1269   -4.3252    1.5326 H       1  UNL1        0.0578
     81 H          -9.2798   -2.7889    2.4009 H       1  UNL1        0.0578
     82 H          -6.7301   -5.1523    1.0625 H       1  UNL1        0.0578
     83 H          -5.5157   -3.9102    1.5268 H       1  UNL1        0.0578
     84 H          -3.5417    2.9139   -0.4814 H       1  UNL1        0.0625
     85 H          -1.2754    3.2576   -1.2142 H       1  UNL1        0.0636
     86 H           5.2157    2.3554   -2.5114 H       1  UNL1        0.0636
     87 H           7.3656    2.3882   -1.2850 H       1  UNL1        0.0626
     88 H           7.7133    0.0163   -0.6154 H       1  UNL1        0.0477
     89 H           9.2192    0.8639   -1.2554 H       1  UNL1        0.0477
     90 H           9.1361   -1.6194    0.4776 H       1  UNL1        0.0442
     91 H           9.6630   -1.5304   -1.2785 H       1  UNL1        0.0442
@<TRIPOS>BOND
     1     1     2    1
     2     2     3    1
     3     2     4    1
     4     4     5    1
     5     5     6    1
     6     6     7    1
     7     7     8   am
     8     8     9    2
     9     8    10    1
    10    10    11   ar
    11    11    12   ar
    12    12    13   ar
    13    13    14    1
    14    14    15   am
    15    15    16    2
    16    15    17   am
    17    17    18    1
    18    18    19   ar
    19    19    20   ar
    20    20    21   ar
    21    21    22    1
    22    22    23   ar
    23    23    24   ar
    24    24    25    1
    25    25    26    1
    26    26    27    1
    27    27    28    1
    28    28    29    1
    29    29    30    1
    30    24    31   ar
    31    31    32   ar
    32    32    33    1
    33    33    34    1
    34    34    35    1
    35    35    36    1
    36    36    37    1
    37    37    38    1
    38    38    39    1
    39    39    40    1
    40    32    41   ar
    41    21    42   ar
    42    42    43   ar
    43    13    44   ar
    44    44    45   ar
    45     7    46    1
    46    46    47    1
    47    47     4    1
    48    45    10   ar
    49    43    18   ar
    50    41    22   ar
    51    30    25    1
    52    37    33    1
    53    40    34    1
    54     1    48    1
    55     1    49    1
    56     1    50    1
    57     2    51    1
    58     3    52    1
    59     3    53    1
    60     3    54    1
    61     5    55    1
    62     5    56    1
    63     6    57    1
    64     6    58    1
    65    11    59    1
    66    12    60    1
    67    14    61    1
    68    17    62    1
    69    19    63    1
    70    20    64    1
    71    25    65    1
    72    26    66    1
    73    26    67    1
    74    27    68    1
    75    27    69    1
    76    29    70    1
    77    29    71    1
    78    30    72    1
    79    30    73    1
    80    34    74    1
    81    35    75    1
    82    35    76    1
    83    36    77    1
    84    36    78    1
    85    37    79    1
    86    38    80    1
    87    38    81    1
    88    40    82    1
    89    40    83    1
    90    42    84    1
    91    43    85    1
    92    44    86    1
    93    45    87    1
    94    46    88    1
    95    46    89    1
    96    47    90    1
    97    47    91    1
