@<TRIPOS>MOLECULE
*****
 47 49 0 0 0
SMALL
GASTEIGER

@<TRIPOS>ATOM
      1 C           4.1055   -1.3984   -1.2926 C.3     1  UNL1       -0.0375
      2 C           4.6115   -1.1493    0.0747 C.ar    1  UNL1       -0.0186
      3 C           5.8469   -1.7316    0.4201 C.ar    1  UNL1       -0.0368
      4 C           6.3539   -1.5795    1.6795 C.ar    1  UNL1        0.0593
      5 CL          7.8981   -2.2895    2.1612 Cl      1  UNL1       -0.0820
      6 C           5.5989   -0.8405    2.5638 C.ar    1  UNL1        0.0467
      7 N           4.4333   -0.2995    2.2115 N.ar    1  UNL1       -0.2486
      8 C           3.8846   -0.4250    0.9565 C.ar    1  UNL1        0.1286
      9 C           2.6560    0.2650    0.7143 C.2     1  UNL1        0.2668
     10 O           1.9411    0.5654    1.7582 O.2     1  UNL1       -0.2682
     11 N           2.0768    0.6884   -0.4855 N.am    1  UNL1       -0.2802
     12 C           0.8217    1.3673   -0.5616 C.ar    1  UNL1        0.0342
     13 C           0.8287    2.7375   -0.4950 C.ar    1  UNL1       -0.0377
     14 C          -0.3700    3.4521   -0.5645 C.ar    1  UNL1       -0.0243
     15 C          -1.5399    2.7031   -0.7020 C.ar    1  UNL1        0.1291
     16 F          -2.6896    3.3785   -0.7682 F       1  UNL1       -0.2051
     17 C          -1.5845    1.3494   -0.7712 C.ar    1  UNL1        0.0196
     18 C          -2.7905    0.5891   -0.9134 C.3     1  UNL1        0.1258
     19 C          -3.3808    0.9007   -2.3022 C.3     1  UNL1        0.1196
     20 F          -4.5525    0.1830   -2.4812 F       1  UNL1       -0.2462
     21 C          -3.8847    0.8119    0.0659 C.3     1  UNL1        0.0251
     22 C          -3.7261    0.0702    1.3620 C.3     1  UNL1        0.1998
     23 C          -5.0700   -0.5224    1.8143 C.3     1  UNL1        0.4266
     24 F          -4.9438   -1.1983    2.9881 F       1  UNL1       -0.1669
     25 F          -5.5569   -1.3756    0.8216 F       1  UNL1       -0.1669
     26 F          -6.0165    0.4622    1.9840 F       1  UNL1       -0.1669
     27 O          -2.8162   -0.9868    1.2943 O.2     1  UNL1       -0.4534
     28 C          -2.5029   -1.5825    0.0808 C.2     1  UNL1        0.2766
     29 N          -2.1984   -2.9643   -0.0577 N.pl3   1  UNL1       -0.3134
     30 N          -2.4944   -0.8266   -0.9545 N.2     1  UNL1       -0.2228
     31 C          -0.3622    0.6827   -0.6973 C.ar    1  UNL1       -0.0322
     32 H           4.6067   -2.3794   -1.6268 H       1  UNL1        0.0278
     33 H           4.4195   -0.6261   -2.0186 H       1  UNL1        0.0278
     34 H           3.0502   -1.6641   -1.2720 H       1  UNL1        0.0278
     35 H           6.4102   -2.3043   -0.3005 H       1  UNL1        0.0636
     36 H           6.0223   -0.7317    3.5638 H       1  UNL1        0.0844
     37 H           2.5761    0.5337   -1.3707 H       1  UNL1        0.1552
     38 H           1.7236    3.3389   -0.3884 H       1  UNL1        0.0637
     39 H          -0.3858    4.5304   -0.5139 H       1  UNL1        0.0647
     40 H          -3.5568    1.9829   -2.3637 H       1  UNL1        0.0643
     41 H          -2.6342    0.5976   -3.0638 H       1  UNL1        0.0643
     42 H          -4.8125    0.3974   -0.4085 H       1  UNL1        0.0331
     43 H          -4.1292    1.8898    0.2206 H       1  UNL1        0.0331
     44 H          -3.4108    0.7293    2.2029 H       1  UNL1        0.0826
     45 H          -1.6019   -3.3808    0.7022 H       1  UNL1        0.1466
     46 H          -2.5333   -3.5503   -0.8538 H       1  UNL1        0.1466
     47 H          -0.3212   -0.4002   -0.7460 H       1  UNL1        0.0640
@<TRIPOS>BOND
     1     1     2    1
     2     2     3   ar
     3     3     4   ar
     4     4     5    1
     5     4     6   ar
     6     6     7   ar
     7     7     8   ar
     8     8     9    1
     9     9    10    2
    10     9    11   am
    11    11    12    1
    12    12    13   ar
    13    13    14   ar
    14    14    15   ar
    15    15    16    1
    16    15    17   ar
    17    17    18    1
    18    18    19    1
    19    19    20    1
    20    18    21    1
    21    21    22    1
    22    22    23    1
    23    23    24    1
    24    23    25    1
    25    23    26    1
    26    22    27    1
    27    27    28    1
    28    28    29    1
    29    28    30    2
    30    17    31   ar
    31     8     2   ar
    32    31    12   ar
    33    30    18    1
    34     1    32    1
    35     1    33    1
    36     1    34    1
    37     3    35    1
    38     6    36    1
    39    11    37    1
    40    13    38    1
    41    14    39    1
    42    19    40    1
    43    19    41    1
    44    21    42    1
    45    21    43    1
    46    22    44    1
    47    29    45    1
    48    29    46    1
    49    31    47    1
