
     RDKit          3D

 47 49  0  0  0  0  0  0  0  0999 V2000
    4.1055   -1.3984   -1.2926 C   0  0  0  0  0  0  0  0  0  0  0  0
    4.6115   -1.1493    0.0747 C   0  0  0  0  0  0  0  0  0  0  0  0
    5.8469   -1.7316    0.4201 C   0  0  0  0  0  0  0  0  0  0  0  0
    6.3539   -1.5795    1.6795 C   0  0  0  0  0  0  0  0  0  0  0  0
    7.8981   -2.2895    2.1612 Cl  0  0  0  0  0  0  0  0  0  0  0  0
    5.5989   -0.8405    2.5638 C   0  0  0  0  0  0  0  0  0  0  0  0
    4.4333   -0.2995    2.2115 N   0  0  0  0  0  0  0  0  0  0  0  0
    3.8846   -0.4250    0.9565 C   0  0  0  0  0  0  0  0  0  0  0  0
    2.6560    0.2650    0.7143 C   0  0  0  0  0  0  0  0  0  0  0  0
    1.9411    0.5654    1.7582 O   0  0  0  0  0  0  0  0  0  0  0  0
    2.0768    0.6884   -0.4855 N   0  0  0  0  0  0  0  0  0  0  0  0
    0.8217    1.3673   -0.5616 C   0  0  0  0  0  0  0  0  0  0  0  0
    0.8287    2.7375   -0.4950 C   0  0  0  0  0  0  0  0  0  0  0  0
   -0.3700    3.4521   -0.5645 C   0  0  0  0  0  0  0  0  0  0  0  0
   -1.5399    2.7031   -0.7020 C   0  0  0  0  0  0  0  0  0  0  0  0
   -2.6896    3.3785   -0.7682 F   0  0  0  0  0  0  0  0  0  0  0  0
   -1.5845    1.3494   -0.7712 C   0  0  0  0  0  0  0  0  0  0  0  0
   -2.7905    0.5891   -0.9134 C   0  0  2  0  0  0  0  0  0  0  0  0
   -3.3808    0.9007   -2.3022 C   0  0  0  0  0  0  0  0  0  0  0  0
   -4.5525    0.1830   -2.4812 F   0  0  0  0  0  0  0  0  0  0  0  0
   -3.8847    0.8119    0.0659 C   0  0  0  0  0  0  0  0  0  0  0  0
   -3.7261    0.0702    1.3620 C   0  0  1  0  0  0  0  0  0  0  0  0
   -5.0700   -0.5224    1.8143 C   0  0  0  0  0  0  0  0  0  0  0  0
   -4.9438   -1.1983    2.9881 F   0  0  0  0  0  0  0  0  0  0  0  0
   -5.5569   -1.3756    0.8216 F   0  0  0  0  0  0  0  0  0  0  0  0
   -6.0165    0.4622    1.9840 F   0  0  0  0  0  0  0  0  0  0  0  0
   -2.8162   -0.9868    1.2943 O   0  0  0  0  0  0  0  0  0  0  0  0
   -2.5029   -1.5825    0.0808 C   0  0  0  0  0  0  0  0  0  0  0  0
   -2.1984   -2.9643   -0.0577 N   0  0  0  0  0  0  0  0  0  0  0  0
   -2.4944   -0.8266   -0.9545 N   0  0  0  0  0  0  0  0  0  0  0  0
   -0.3622    0.6827   -0.6973 C   0  0  0  0  0  0  0  0  0  0  0  0
    4.6067   -2.3794   -1.6268 H   0  0  0  0  0  0  0  0  0  0  0  0
    4.4195   -0.6261   -2.0186 H   0  0  0  0  0  0  0  0  0  0  0  0
    3.0502   -1.6641   -1.2720 H   0  0  0  0  0  0  0  0  0  0  0  0
    6.4102   -2.3043   -0.3005 H   0  0  0  0  0  0  0  0  0  0  0  0
    6.0223   -0.7317    3.5638 H   0  0  0  0  0  0  0  0  0  0  0  0
    2.5761    0.5337   -1.3707 H   0  0  0  0  0  0  0  0  0  0  0  0
    1.7236    3.3389   -0.3884 H   0  0  0  0  0  0  0  0  0  0  0  0
   -0.3858    4.5304   -0.5139 H   0  0  0  0  0  0  0  0  0  0  0  0
   -3.5568    1.9829   -2.3637 H   0  0  0  0  0  0  0  0  0  0  0  0
   -2.6342    0.5976   -3.0638 H   0  0  0  0  0  0  0  0  0  0  0  0
   -4.8125    0.3974   -0.4085 H   0  0  0  0  0  0  0  0  0  0  0  0
   -4.1292    1.8898    0.2206 H   0  0  0  0  0  0  0  0  0  0  0  0
   -3.4108    0.7293    2.2029 H   0  0  0  0  0  0  0  0  0  0  0  0
   -1.6019   -3.3808    0.7022 H   0  0  0  0  0  0  0  0  0  0  0  0
   -2.5333   -3.5503   -0.8538 H   0  0  0  0  0  0  0  0  0  0  0  0
   -0.3212   -0.4002   -0.7460 H   0  0  0  0  0  0  0  0  0  0  0  0
  1  2  1  0
  2  3  2  0
  3  4  1  0
  4  5  1  0
  4  6  2  0
  6  7  1  0
  7  8  2  0
  8  9  1  0
  9 10  2  0
  9 11  1  0
 11 12  1  0
 12 13  2  0
 13 14  1  0
 14 15  2  0
 15 16  1  0
 15 17  1  0
 17 18  1  0
 18 19  1  6
 19 20  1  0
 18 21  1  0
 21 22  1  0
 22 23  1  0
 23 24  1  0
 23 25  1  0
 23 26  1  0
 22 27  1  0
 27 28  1  0
 28 29  1  0
 28 30  2  0
 17 31  2  0
  8  2  1  0
 31 12  1  0
 30 18  1  0
  1 32  1  0
  1 33  1  0
  1 34  1  0
  3 35  1  0
  6 36  1  0
 11 37  1  0
 13 38  1  0
 14 39  1  0
 19 40  1  0
 19 41  1  0
 21 42  1  0
 21 43  1  0
 22 44  1  1
 29 45  1  0
 29 46  1  0
 31 47  1  0
M  END
$$$$
