
     RDKit          3D

107111  0  0  0  0  0  0  0  0999 V2000
    8.8989    0.5158    0.3796 C   0  0  0  0  0  0  0  0  0  0  0  0
    9.9746   -0.0845   -0.1119 C   0  0  0  0  0  0  0  0  0  0  0  0
   11.1713    0.5058   -0.6945 C   0  0  0  0  0  0  0  0  0  0  0  0
   11.3610    1.8584   -0.8068 C   0  0  0  0  0  0  0  0  0  0  0  0
   12.5126    2.4227   -1.3585 C   0  0  0  0  0  0  0  0  0  0  0  0
   12.7173    3.7838   -1.4769 O   0  0  0  0  0  0  0  0  0  0  0  0
   11.8219    4.7733   -1.0695 C   0  0  0  0  0  0  0  0  0  0  0  0
   13.4654    1.5280   -1.7918 C   0  0  0  0  0  0  0  0  0  0  0  0
   14.6353    2.0723   -2.3515 O   0  0  0  0  0  0  0  0  0  0  0  0
   13.3178    0.1608   -1.6994 C   0  0  0  0  0  0  0  0  0  0  0  0
   14.3126   -0.6902   -2.1543 O   0  0  0  0  0  0  0  0  0  0  0  0
   14.1136   -2.0983   -2.0375 C   0  0  0  0  0  0  0  0  0  0  0  0
   12.1578   -0.3423   -1.1445 C   0  0  0  0  0  0  0  0  0  0  0  0
    7.6776   -0.0788    0.9756 C   0  0  0  0  0  0  0  0  0  0  0  0
    6.8916    0.8663    1.3160 O   0  0  0  0  0  0  0  0  0  0  0  0
    7.7648   -1.8337    0.9923 S   0  0  0  0  0  0  0  0  0  0  0  0
    6.4457   -2.6779    1.8278 C   0  0  0  0  0  0  0  0  0  0  0  0
    5.0979   -2.6238    1.1822 C   0  0  0  0  0  0  0  0  0  0  0  0
    4.5885   -1.3425    1.0128 N   0  0  0  0  0  0  0  0  0  0  0  0
    4.0479   -0.4749    1.7271 C   0  0  0  0  0  0  0  0  0  0  0  0
    4.2600   -1.4796    2.6413 O   0  0  0  0  0  0  0  0  0  0  0  0
    3.6004    0.8460    1.2420 C   0  0  0  0  0  0  0  0  0  0  0  0
    2.1951    1.1019    1.7131 C   0  0  0  0  0  0  0  0  0  0  0  0
    1.2936    0.1180    1.2308 N   0  0  0  0  0  0  0  0  0  0  0  0
    0.8517   -0.9084    1.8727 C   0  0  0  0  0  0  0  0  0  0  0  0
    1.2199   -1.2057    3.1874 O   0  0  0  0  0  0  0  0  0  0  0  0
   -0.0867   -1.9737    1.4485 C   0  0  0  0  0  0  0  0  0  0  0  0
   -1.1311   -2.2451    2.3675 O   0  0  0  0  0  0  0  0  0  0  0  0
   -0.5845   -1.9932    0.0370 C   0  0  2  0  0  0  0  0  0  0  0  0
   -1.9455   -2.2433   -0.1895 O   0  0  0  0  0  0  0  0  0  0  0  0
   -2.5044   -1.1497   -1.3432 P   0  0  0  0  0  0  0  0  0  0  0  0
   -1.9933    0.4280   -0.9273 O   0  0  0  0  0  0  0  0  0  0  0  0
   -2.0218   -1.5601   -2.7068 O   0  0  0  0  0  0  0  0  0  0  0  0
   -4.2078   -1.0938   -1.2816 O   0  0  0  0  0  0  0  0  0  0  0  0
   -4.7362   -0.8069    0.2916 P   0  0  0  0  0  0  0  0  0  0  0  0
   -4.4971    0.8429    0.6180 O   0  0  0  0  0  0  0  0  0  0  0  0
   -4.0329   -1.6837    1.3058 O   0  0  0  0  0  0  0  0  0  0  0  0
   -6.3977   -1.0750    0.3690 O   0  0  0  0  0  0  0  0  0  0  0  0
   -6.9965   -0.4409   -0.7131 C   0  0  0  0  0  0  0  0  0  0  0  0
   -8.5078   -0.5026   -0.6158 C   0  0  1  0  0  0  0  0  0  0  0  0
   -9.0205    0.0975    0.5079 O   0  0  0  0  0  0  0  0  0  0  0  0
  -10.2476    0.6279    0.1224 C   0  0  1  0  0  0  0  0  0  0  0  0
  -10.8015    1.4945    1.1157 N   0  0  0  0  0  0  0  0  0  0  0  0
  -10.7237    1.0951    2.4054 C   0  0  0  0  0  0  0  0  0  0  0  0
  -11.2970    2.0355    3.1792 N   0  0  0  0  0  0  0  0  0  0  0  0
  -11.7392    3.0239    2.4198 C   0  0  0  0  0  0  0  0  0  0  0  0
  -12.3998    4.2409    2.6177 C   0  0  0  0  0  0  0  0  0  0  0  0
  -12.6915    4.5187    3.9922 N   0  0  0  0  0  0  0  0  0  0  0  0
  -12.7033    5.0270    1.5426 N   0  0  0  0  0  0  0  0  0  0  0  0
  -12.3653    4.6267    0.3034 C   0  0  0  0  0  0  0  0  0  0  0  0
  -11.7189    3.4435    0.0715 N   0  0  0  0  0  0  0  0  0  0  0  0
  -11.4278    2.6850    1.1220 C   0  0  0  0  0  0  0  0  0  0  0  0
   -9.8614    1.3430   -1.1545 C   0  0  1  0  0  0  0  0  0  0  0  0
   -8.9645    2.3484   -0.8358 O   0  0  0  0  0  0  0  0  0  0  0  0
   -9.0825    0.2193   -1.8252 C   0  0  2  0  0  0  0  0  0  0  0  0
   -9.9123   -0.7099   -2.4491 O   0  0  0  0  0  0  0  0  0  0  0  0
   -9.5014   -0.9968   -4.0585 P   0  0  0  0  0  0  0  0  0  0  0  0
   -9.3140   -2.6900   -4.1942 O   0  0  0  0  0  0  0  0  0  0  0  0
   -8.0291   -0.3214   -4.4702 O   0  0  0  0  0  0  0  0  0  0  0  0
  -10.6163   -0.6150   -5.0044 O   0  0  0  0  0  0  0  0  0  0  0  0
    0.2922   -3.0585    0.5419 C   0  0  0  0  0  0  0  0  0  0  0  0
    1.7324   -3.1404    0.0245 C   0  0  0  0  0  0  0  0  0  0  0  0
   -0.3258   -4.4268    0.7737 C   0  0  0  0  0  0  0  0  0  0  0  0
    9.0724    1.5894    0.2634 H   0  0  0  0  0  0  0  0  0  0  0  0
    9.8929   -1.1817   -0.0399 H   0  0  0  0  0  0  0  0  0  0  0  0
   10.6317    2.5653   -0.4747 H   0  0  0  0  0  0  0  0  0  0  0  0
   12.2931    5.7553   -1.2992 H   0  0  0  0  0  0  0  0  0  0  0  0
   11.6276    4.7271    0.0361 H   0  0  0  0  0  0  0  0  0  0  0  0
   10.8400    4.7279   -1.5677 H   0  0  0  0  0  0  0  0  0  0  0  0
   15.4325    1.4635   -2.5160 H   0  0  0  0  0  0  0  0  0  0  0  0
   13.9214   -2.3537   -0.9649 H   0  0  0  0  0  0  0  0  0  0  0  0
   13.1873   -2.3375   -2.5988 H   0  0  0  0  0  0  0  0  0  0  0  0
   14.9426   -2.6714   -2.4478 H   0  0  0  0  0  0  0  0  0  0  0  0
   12.0156   -1.4101   -1.0583 H   0  0  0  0  0  0  0  0  0  0  0  0
    6.7214   -3.7774    1.8772 H   0  0  0  0  0  0  0  0  0  0  0  0
    6.3402   -2.3795    2.9040 H   0  0  0  0  0  0  0  0  0  0  0  0
    4.3747   -3.2989    1.7414 H   0  0  0  0  0  0  0  0  0  0  0  0
    5.1339   -3.1235    0.1561 H   0  0  0  0  0  0  0  0  0  0  0  0
    4.1280   -1.4423    3.6324 H   0  0  0  0  0  0  0  0  0  0  0  0
    3.5900    0.7631    0.1149 H   0  0  0  0  0  0  0  0  0  0  0  0
    4.2925    1.6635    1.5612 H   0  0  0  0  0  0  0  0  0  0  0  0
    1.9298    2.1356    1.3328 H   0  0  0  0  0  0  0  0  0  0  0  0
    2.2214    1.1266    2.8216 H   0  0  0  0  0  0  0  0  0  0  0  0
    1.8969   -0.6245    3.6972 H   0  0  0  0  0  0  0  0  0  0  0  0
   -1.3886   -3.2056    2.2979 H   0  0  0  0  0  0  0  0  0  0  0  0
   -0.1485   -1.2483   -0.6546 H   0  0  0  0  0  0  0  0  0  0  0  0
   -1.5510    0.8511   -1.6860 H   0  0  0  0  0  0  0  0  0  0  0  0
   -4.6880    0.9724    1.5849 H   0  0  0  0  0  0  0  0  0  0  0  0
   -6.7375   -1.0547   -1.6043 H   0  0  0  0  0  0  0  0  0  0  0  0
   -6.6245    0.5719   -0.8828 H   0  0  0  0  0  0  0  0  0  0  0  0
   -8.7718   -1.5647   -0.5708 H   0  0  0  0  0  0  0  0  0  0  0  0
  -10.9140   -0.2224   -0.1380 H   0  0  0  0  0  0  0  0  0  0  0  0
  -10.3108    0.2180    2.8763 H   0  0  0  0  0  0  0  0  0  0  0  0
  -13.6357    4.5422    4.4457 H   0  0  0  0  0  0  0  0  0  0  0  0
  -11.9200    4.7261    4.6617 H   0  0  0  0  0  0  0  0  0  0  0  0
  -12.6482    5.3169   -0.4756 H   0  0  0  0  0  0  0  0  0  0  0  0
  -10.7294    1.6602   -1.7439 H   0  0  0  0  0  0  0  0  0  0  0  0
   -8.7558    2.4378    0.1195 H   0  0  0  0  0  0  0  0  0  0  0  0
   -8.3148    0.6566   -2.4592 H   0  0  0  0  0  0  0  0  0  0  0  0
  -10.0618   -3.1091   -4.6718 H   0  0  0  0  0  0  0  0  0  0  0  0
   -8.1963    0.3518   -5.2029 H   0  0  0  0  0  0  0  0  0  0  0  0
    1.6980   -3.5771   -1.0095 H   0  0  0  0  0  0  0  0  0  0  0  0
    2.1657   -2.1354   -0.0930 H   0  0  0  0  0  0  0  0  0  0  0  0
    2.3309   -3.8395    0.6406 H   0  0  0  0  0  0  0  0  0  0  0  0
    0.1916   -5.1469    0.1168 H   0  0  0  0  0  0  0  0  0  0  0  0
   -1.4157   -4.4206    0.6310 H   0  0  0  0  0  0  0  0  0  0  0  0
   -0.0924   -4.7810    1.8162 H   0  0  0  0  0  0  0  0  0  0  0  0
  1  2  2  0
  2  3  1  0
  3  4  2  0
  4  5  1  0
  5  6  1  0
  6  7  1  0
  5  8  2  0
  8  9  1  0
  8 10  1  0
 10 11  1  0
 11 12  1  0
 10 13  2  0
  1 14  1  0
 14 15  2  0
 14 16  1  0
 16 17  1  0
 17 18  1  0
 18 19  1  0
 19 20  2  3
 20 21  1  0
 20 22  1  0
 22 23  1  0
 23 24  1  0
 24 25  2  3
 25 26  1  0
 25 27  1  0
 27 28  1  0
 27 29  1  0
 29 30  1  0
 30 31  1  0
 31 32  1  0
 31 33  2  0
 31 34  1  0
 34 35  1  0
 35 36  1  0
 35 37  2  0
 35 38  1  0
 38 39  1  0
 39 40  1  0
 40 41  1  0
 41 42  1  0
 42 43  1  0
 43 44  1  0
 44 45  2  0
 45 46  1  0
 46 47  2  0
 47 48  1  0
 47 49  1  0
 49 50  2  0
 50 51  1  0
 51 52  2  0
 42 53  1  0
 53 54  1  0
 53 55  1  0
 55 56  1  0
 56 57  1  0
 57 58  1  0
 57 59  1  0
 57 60  2  0
 29 61  1  0
 61 62  1  0
 61 63  1  0
 13  3  1  0
 61 27  1  0
 55 40  1  0
 52 43  1  0
 52 46  1  0
  1 64  1  0
  2 65  1  0
  4 66  1  0
  7 67  1  0
  7 68  1  0
  7 69  1  0
  9 70  1  0
 12 71  1  0
 12 72  1  0
 12 73  1  0
 13 74  1  0
 17 75  1  0
 17 76  1  0
 18 77  1  0
 18 78  1  0
 21 79  1  0
 22 80  1  0
 22 81  1  0
 23 82  1  0
 23 83  1  0
 26 84  1  0
 28 85  1  0
 29 86  1  6
 32 87  1  0
 36 88  1  0
 39 89  1  0
 39 90  1  0
 40 91  1  6
 42 92  1  6
 44 93  1  0
 48 94  1  0
 48 95  1  0
 50 96  1  0
 53 97  1  6
 54 98  1  0
 55 99  1  6
 58100  1  0
 59101  1  0
 62102  1  0
 62103  1  0
 62104  1  0
 63105  1  0
 63106  1  0
 63107  1  0
M  END
$$$$
