@<TRIPOS>MOLECULE
*****
 107 111 0 0 0
SMALL
GASTEIGER

@<TRIPOS>ATOM
      1 C           8.8989    0.5158    0.3796 C.2     1  UNL1       -0.0077
      2 C           9.9746   -0.0845   -0.1119 C.2     1  UNL1       -0.0502
      3 C          11.1713    0.5058   -0.6945 C.ar    1  UNL1       -0.0178
      4 C          11.3610    1.8584   -0.8068 C.ar    1  UNL1       -0.0089
      5 C          12.5126    2.4227   -1.3585 C.ar    1  UNL1        0.1655
      6 O          12.7173    3.7838   -1.4769 O.3     1  UNL1       -0.4913
      7 C          11.8219    4.7733   -1.0695 C.3     1  UNL1        0.0790
      8 C          13.4654    1.5280   -1.7918 C.ar    1  UNL1        0.2010
      9 O          14.6353    2.0723   -2.3515 O.3     1  UNL1       -0.5009
     10 C          13.3178    0.1608   -1.6994 C.ar    1  UNL1        0.1655
     11 O          14.3126   -0.6902   -2.1543 O.3     1  UNL1       -0.4913
     12 C          14.1136   -2.0983   -2.0375 C.3     1  UNL1        0.0790
     13 C          12.1578   -0.3423   -1.1445 C.ar    1  UNL1       -0.0089
     14 C           7.6776   -0.0788    0.9756 C.2     1  UNL1        0.2126
     15 O           6.8916    0.8663    1.3160 O.2     1  UNL1       -0.2804
     16 S           7.7648   -1.8337    0.9923 S.3     1  UNL1       -0.0819
     17 C           6.4457   -2.6779    1.8278 C.3     1  UNL1        0.0209
     18 C           5.0979   -2.6238    1.1822 C.3     1  UNL1        0.0524
     19 N           4.5885   -1.3425    1.0128 N.2     1  UNL1       -0.2539
     20 C           4.0479   -0.4749    1.7271 C.2     1  UNL1        0.1842
     21 O           4.2600   -1.4796    2.6413 O.2     1  UNL1       -0.4956
     22 C           3.6004    0.8460    1.2420 C.3     1  UNL1        0.0426
     23 C           2.1951    1.1019    1.7131 C.3     1  UNL1        0.0515
     24 N           1.2936    0.1180    1.2308 N.2     1  UNL1       -0.2517
     25 C           0.8517   -0.9084    1.8727 C.2     1  UNL1        0.2186
     26 O           1.2199   -1.2057    3.1874 O.2     1  UNL1       -0.4936
     27 C          -0.0867   -1.9737    1.4485 C.3     1  UNL1        0.1750
     28 O          -1.1311   -2.2451    2.3675 O.3     1  UNL1       -0.3762
     29 C          -0.5845   -1.9932    0.0370 C.3     1  UNL1        0.1162
     30 O          -1.9455   -2.2433   -0.1895 O.3     1  UNL1       -0.2790
     31 P          -2.5044   -1.1497   -1.3432 P.3     1  UNL1        0.4837
     32 O          -1.9933    0.4280   -0.9273 O.3     1  UNL1       -0.3022
     33 O          -2.0218   -1.5601   -2.7068 O.2     1  UNL1       -0.2269
     34 O          -4.2078   -1.0938   -1.2816 O.3     1  UNL1       -0.1860
     35 P          -4.7362   -0.8069    0.2916 P.3     1  UNL1        0.4835
     36 O          -4.4971    0.8429    0.6180 O.3     1  UNL1       -0.3022
     37 O          -4.0329   -1.6837    1.3058 O.2     1  UNL1       -0.2269
     38 O          -6.3977   -1.0750    0.3690 O.3     1  UNL1       -0.2837
     39 C          -6.9965   -0.4409   -0.7131 C.3     1  UNL1        0.0879
     40 C          -8.5078   -0.5026   -0.6158 C.3     1  UNL1        0.1142
     41 O          -9.0205    0.0975    0.5079 O.3     1  UNL1       -0.3456
     42 C         -10.2476    0.6279    0.1224 C.3     1  UNL1        0.1667
     43 N         -10.8015    1.4945    1.1157 N.ar    1  UNL1       -0.2855
     44 C         -10.7237    1.0951    2.4054 C.ar    1  UNL1        0.1004
     45 N         -11.2970    2.0355    3.1792 N.ar    1  UNL1       -0.2306
     46 C         -11.7392    3.0239    2.4198 C.ar    1  UNL1        0.1473
     47 C         -12.3998    4.2409    2.6177 C.ar    1  UNL1        0.1472
     48 N         -12.6915    4.5187    3.9922 N.pl3   1  UNL1       -0.3413
     49 N         -12.7033    5.0270    1.5426 N.ar    1  UNL1       -0.2188
     50 C         -12.3653    4.6267    0.3034 C.ar    1  UNL1        0.1205
     51 N         -11.7189    3.4435    0.0715 N.ar    1  UNL1       -0.2159
     52 C         -11.4278    2.6850    1.1220 C.ar    1  UNL1        0.1674
     53 C          -9.8614    1.3430   -1.1545 C.3     1  UNL1        0.1294
     54 O          -8.9645    2.3484   -0.8358 O.3     1  UNL1       -0.3846
     55 C          -9.0825    0.2193   -1.8252 C.3     1  UNL1        0.1283
     56 O          -9.9123   -0.7099   -2.4491 O.3     1  UNL1       -0.2780
     57 P          -9.5014   -0.9968   -4.0585 P.3     1  UNL1        0.4728
     58 O          -9.3140   -2.6900   -4.1942 O.3     1  UNL1       -0.3026
     59 O          -8.0291   -0.3214   -4.4702 O.3     1  UNL1       -0.3026
     60 O         -10.6163   -0.6150   -5.0044 O.2     1  UNL1       -0.2275
     61 C           0.2922   -3.0585    0.5419 C.3     1  UNL1        0.0350
     62 C           1.7324   -3.1404    0.0245 C.3     1  UNL1       -0.0541
     63 C          -0.3258   -4.4268    0.7737 C.3     1  UNL1       -0.0541
     64 H           9.0724    1.5894    0.2634 H       1  UNL1        0.0661
     65 H           9.8929   -1.1817   -0.0399 H       1  UNL1        0.0625
     66 H          10.6317    2.5653   -0.4747 H       1  UNL1        0.0661
     67 H          12.2931    5.7553   -1.2992 H       1  UNL1        0.0660
     68 H          11.6276    4.7271    0.0361 H       1  UNL1        0.0660
     69 H          10.8400    4.7279   -1.5677 H       1  UNL1        0.0660
     70 H          15.4325    1.4635   -2.5160 H       1  UNL1        0.2924
     71 H          13.9214   -2.3537   -0.9649 H       1  UNL1        0.0660
     72 H          13.1873   -2.3375   -2.5988 H       1  UNL1        0.0660
     73 H          14.9426   -2.6714   -2.4478 H       1  UNL1        0.0660
     74 H          12.0156   -1.4101   -1.0583 H       1  UNL1        0.0661
     75 H           6.7214   -3.7774    1.8772 H       1  UNL1        0.0399
     76 H           6.3402   -2.3795    2.9040 H       1  UNL1        0.0399
     77 H           4.3747   -3.2989    1.7414 H       1  UNL1        0.0517
     78 H           5.1339   -3.1235    0.1561 H       1  UNL1        0.0517
     79 H           4.1280   -1.4423    3.6324 H       1  UNL1        0.2934
     80 H           3.5900    0.7631    0.1149 H       1  UNL1        0.0377
     81 H           4.2925    1.6635    1.5612 H       1  UNL1        0.0377
     82 H           1.9298    2.1356    1.3328 H       1  UNL1        0.0514
     83 H           2.2214    1.1266    2.8216 H       1  UNL1        0.0514
     84 H           1.8969   -0.6245    3.6972 H       1  UNL1        0.2935
     85 H          -1.3886   -3.2056    2.2979 H       1  UNL1        0.2110
     86 H          -0.1485   -1.2483   -0.6546 H       1  UNL1        0.0642
     87 H          -1.5510    0.8511   -1.6860 H       1  UNL1        0.2220
     88 H          -4.6880    0.9724    1.5849 H       1  UNL1        0.2220
     89 H          -6.7375   -1.0547   -1.6043 H       1  UNL1        0.0592
     90 H          -6.6245    0.5719   -0.8828 H       1  UNL1        0.0592
     91 H          -8.7718   -1.5647   -0.5708 H       1  UNL1        0.0647
     92 H         -10.9140   -0.2224   -0.1380 H       1  UNL1        0.0866
     93 H         -10.3108    0.2180    2.8763 H       1  UNL1        0.1030
     94 H         -13.6357    4.5422    4.4457 H       1  UNL1        0.1438
     95 H         -11.9200    4.7261    4.6617 H       1  UNL1        0.1438
     96 H         -12.6482    5.3169   -0.4756 H       1  UNL1        0.1048
     97 H         -10.7294    1.6602   -1.7439 H       1  UNL1        0.0666
     98 H          -8.7558    2.4378    0.1195 H       1  UNL1        0.2101
     99 H          -8.3148    0.6566   -2.4592 H       1  UNL1        0.0656
    100 H         -10.0618   -3.1091   -4.6718 H       1  UNL1        0.2220
    101 H          -8.1963    0.3518   -5.2029 H       1  UNL1        0.2220
    102 H           1.6980   -3.5771   -1.0095 H       1  UNL1        0.0237
    103 H           2.1657   -2.1354   -0.0930 H       1  UNL1        0.0237
    104 H           2.3309   -3.8395    0.6406 H       1  UNL1        0.0237
    105 H           0.1916   -5.1469    0.1168 H       1  UNL1        0.0237
    106 H          -1.4157   -4.4206    0.6310 H       1  UNL1        0.0237
    107 H          -0.0924   -4.7810    1.8162 H       1  UNL1        0.0237
@<TRIPOS>BOND
     1     1     2    2
     2     2     3    1
     3     3     4   ar
     4     4     5   ar
     5     5     6    1
     6     6     7    1
     7     5     8   ar
     8     8     9    1
     9     8    10   ar
    10    10    11    1
    11    11    12    1
    12    10    13   ar
    13     1    14    1
    14    14    15    2
    15    14    16    1
    16    16    17    1
    17    17    18    1
    18    18    19    1
    19    19    20    2
    20    20    21    1
    21    20    22    1
    22    22    23    1
    23    23    24    1
    24    24    25    2
    25    25    26    1
    26    25    27    1
    27    27    28    1
    28    27    29    1
    29    29    30    1
    30    30    31    1
    31    31    32    1
    32    31    33    2
    33    31    34    1
    34    34    35    1
    35    35    36    1
    36    35    37    2
    37    35    38    1
    38    38    39    1
    39    39    40    1
    40    40    41    1
    41    41    42    1
    42    42    43    1
    43    43    44   ar
    44    44    45   ar
    45    45    46   ar
    46    46    47   ar
    47    47    48    1
    48    47    49   ar
    49    49    50   ar
    50    50    51   ar
    51    51    52   ar
    52    42    53    1
    53    53    54    1
    54    53    55    1
    55    55    56    1
    56    56    57    1
    57    57    58    1
    58    57    59    1
    59    57    60    2
    60    29    61    1
    61    61    62    1
    62    61    63    1
    63    13     3   ar
    64    61    27    1
    65    55    40    1
    66    52    43   ar
    67    52    46   ar
    68     1    64    1
    69     2    65    1
    70     4    66    1
    71     7    67    1
    72     7    68    1
    73     7    69    1
    74     9    70    1
    75    12    71    1
    76    12    72    1
    77    12    73    1
    78    13    74    1
    79    17    75    1
    80    17    76    1
    81    18    77    1
    82    18    78    1
    83    21    79    1
    84    22    80    1
    85    22    81    1
    86    23    82    1
    87    23    83    1
    88    26    84    1
    89    28    85    1
    90    29    86    1
    91    32    87    1
    92    36    88    1
    93    39    89    1
    94    39    90    1
    95    40    91    1
    96    42    92    1
    97    44    93    1
    98    48    94    1
    99    48    95    1
   100    50    96    1
   101    53    97    1
   102    54    98    1
   103    55    99    1
   104    58   100    1
   105    59   101    1
   106    62   102    1
   107    62   103    1
   108    62   104    1
   109    63   105    1
   110    63   106    1
   111    63   107    1
