@<TRIPOS>MOLECULE
*****
 46 49 0 0 0
SMALL
GASTEIGER

@<TRIPOS>ATOM
      1 C           7.0942   -0.6706   -2.5235 C.3     1  UNL1       -0.0306
      2 C           6.2437    0.5614   -2.2570 C.3     1  UNL1        0.0900
      3 O           5.1729    0.1442   -1.4320 O.3     1  UNL1       -0.4614
      4 C           4.1687    0.9720   -0.9649 C.2     1  UNL1        0.3392
      5 O           4.1932    2.1747   -1.2846 O.2     1  UNL1       -0.2450
      6 C           3.1169    0.3942   -0.1113 C.ar    1  UNL1        0.0590
      7 C           2.0895    1.1703    0.3795 C.ar    1  UNL1       -0.0472
      8 C           1.0962    0.6189    1.1863 C.ar    1  UNL1       -0.0531
      9 C           1.1064   -0.7086    1.5183 C.ar    1  UNL1       -0.0138
     10 C           0.0200   -1.3024    2.3920 C.ar    1  UNL1        0.0322
     11 C           0.3431   -2.1431    3.4444 C.ar    1  UNL1       -0.0123
     12 S          -1.2842   -2.5656    4.1509 S.2     1  UNL1       -0.0891
     13 C          -2.2069   -1.6227    3.0263 C.ar    1  UNL1        0.1019
     14 C          -3.6021   -1.4386    2.9256 C.ar    1  UNL1        0.2009
     15 O          -4.3086   -2.0235    3.7502 O.2     1  UNL1       -0.2864
     16 C          -4.0763   -0.6152    1.9089 C.ar    1  UNL1        0.0439
     17 C          -3.1134   -0.0603    1.0989 C.ar    1  UNL1        0.1931
     18 N          -3.5301    0.8042    0.0277 N.pl3   1  UNL1       -0.2997
     19 C          -4.9083    1.1570   -0.0984 C.3     1  UNL1        0.0239
     20 C          -5.6168    0.2598   -1.1046 C.3     1  UNL1        0.0096
     21 S          -4.3855    0.0190   -2.4594 S.3     1  UNL1       -0.1577
     22 C          -3.2575    1.4582   -2.2941 C.3     1  UNL1        0.0096
     23 C          -2.5570    1.2995   -0.9428 C.3     1  UNL1        0.0239
     24 O          -1.8345   -0.2715    1.2459 O.2     1  UNL1       -0.4399
     25 C          -1.3083   -1.0567    2.2072 C.ar    1  UNL1        0.1556
     26 C           2.1245   -1.4867    1.0343 C.ar    1  UNL1       -0.0531
     27 C           3.1253   -0.9400    0.2234 C.ar    1  UNL1       -0.0472
     28 H           6.5521   -1.5896   -2.2718 H       1  UNL1        0.0262
     29 H           7.2796   -0.7205   -3.6281 H       1  UNL1        0.0262
     30 H           8.0933   -0.5995   -2.0579 H       1  UNL1        0.0262
     31 H           5.8678    0.9863   -3.2169 H       1  UNL1        0.0695
     32 H           6.8773    1.3369   -1.7357 H       1  UNL1        0.0695
     33 H           2.0710    2.2269    0.1225 H       1  UNL1        0.0626
     34 H           0.2891    1.2385    1.5698 H       1  UNL1        0.0624
     35 H           1.3065   -2.5090    3.8196 H       1  UNL1        0.0701
     36 H          -5.1326   -0.4884    1.8338 H       1  UNL1        0.0707
     37 H          -5.4306    1.1051    0.8510 H       1  UNL1        0.0473
     38 H          -5.0250    2.2138   -0.4628 H       1  UNL1        0.0473
     39 H          -5.9350   -0.6823   -0.6668 H       1  UNL1        0.0392
     40 H          -6.4444    0.8254   -1.5249 H       1  UNL1        0.0392
     41 H          -3.8819    2.3852   -2.1849 H       1  UNL1        0.0392
     42 H          -2.5601    1.5262   -3.1261 H       1  UNL1        0.0392
     43 H          -2.1018    2.2182   -0.5802 H       1  UNL1        0.0473
     44 H          -1.7914    0.5136   -1.0963 H       1  UNL1        0.0473
     45 H           2.1313   -2.5398    1.2988 H       1  UNL1        0.0624
     46 H           3.9296   -1.5749   -0.1536 H       1  UNL1        0.0626
@<TRIPOS>BOND
     1     1     2    1
     2     2     3    1
     3     3     4    1
     4     4     5    2
     5     4     6    1
     6     6     7   ar
     7     7     8   ar
     8     8     9   ar
     9     9    10    1
    10    10    11   ar
    11    11    12   ar
    12    12    13   ar
    13    13    14   ar
    14    14    15    2
    15    14    16   ar
    16    16    17   ar
    17    17    18    1
    18    18    19    1
    19    19    20    1
    20    20    21    1
    21    21    22    1
    22    22    23    1
    23    17    24   ar
    24    24    25   ar
    25     9    26   ar
    26    26    27   ar
    27    27     6   ar
    28    25    10   ar
    29    25    13   ar
    30    23    18    1
    31     1    28    1
    32     1    29    1
    33     1    30    1
    34     2    31    1
    35     2    32    1
    36     7    33    1
    37     8    34    1
    38    11    35    1
    39    16    36    1
    40    19    37    1
    41    19    38    1
    42    20    39    1
    43    20    40    1
    44    22    41    1
    45    22    42    1
    46    23    43    1
    47    23    44    1
    48    26    45    1
    49    27    46    1
