
     RDKit          3D

 46 49  0  0  0  0  0  0  0  0999 V2000
    7.0942   -0.6706   -2.5235 C   0  0  0  0  0  0  0  0  0  0  0  0
    6.2437    0.5614   -2.2570 C   0  0  0  0  0  0  0  0  0  0  0  0
    5.1729    0.1442   -1.4320 O   0  0  0  0  0  0  0  0  0  0  0  0
    4.1687    0.9720   -0.9649 C   0  0  0  0  0  0  0  0  0  0  0  0
    4.1932    2.1747   -1.2846 O   0  0  0  0  0  0  0  0  0  0  0  0
    3.1169    0.3942   -0.1113 C   0  0  0  0  0  0  0  0  0  0  0  0
    2.0895    1.1703    0.3795 C   0  0  0  0  0  0  0  0  0  0  0  0
    1.0962    0.6189    1.1863 C   0  0  0  0  0  0  0  0  0  0  0  0
    1.1064   -0.7086    1.5183 C   0  0  0  0  0  0  0  0  0  0  0  0
    0.0200   -1.3024    2.3920 C   0  0  0  0  0  0  0  0  0  0  0  0
    0.3431   -2.1431    3.4444 C   0  0  0  0  0  0  0  0  0  0  0  0
   -1.2842   -2.5656    4.1509 S   0  0  0  0  0  0  0  0  0  0  0  0
   -2.2069   -1.6227    3.0263 C   0  0  0  0  0  0  0  0  0  0  0  0
   -3.6021   -1.4386    2.9256 C   0  0  0  0  0  0  0  0  0  0  0  0
   -4.3086   -2.0235    3.7502 O   0  0  0  0  0  0  0  0  0  0  0  0
   -4.0763   -0.6152    1.9089 C   0  0  0  0  0  0  0  0  0  0  0  0
   -3.1134   -0.0603    1.0989 C   0  0  0  0  0  0  0  0  0  0  0  0
   -3.5301    0.8042    0.0277 N   0  0  0  0  0  0  0  0  0  0  0  0
   -4.9083    1.1570   -0.0984 C   0  0  0  0  0  0  0  0  0  0  0  0
   -5.6168    0.2598   -1.1046 C   0  0  0  0  0  0  0  0  0  0  0  0
   -4.3855    0.0190   -2.4594 S   0  0  0  0  0  0  0  0  0  0  0  0
   -3.2575    1.4582   -2.2941 C   0  0  0  0  0  0  0  0  0  0  0  0
   -2.5570    1.2995   -0.9428 C   0  0  0  0  0  0  0  0  0  0  0  0
   -1.8345   -0.2715    1.2459 O   0  0  0  0  0  0  0  0  0  0  0  0
   -1.3083   -1.0567    2.2072 C   0  0  0  0  0  0  0  0  0  0  0  0
    2.1245   -1.4867    1.0343 C   0  0  0  0  0  0  0  0  0  0  0  0
    3.1253   -0.9400    0.2234 C   0  0  0  0  0  0  0  0  0  0  0  0
    6.5521   -1.5896   -2.2718 H   0  0  0  0  0  0  0  0  0  0  0  0
    7.2796   -0.7205   -3.6281 H   0  0  0  0  0  0  0  0  0  0  0  0
    8.0933   -0.5995   -2.0579 H   0  0  0  0  0  0  0  0  0  0  0  0
    5.8678    0.9863   -3.2169 H   0  0  0  0  0  0  0  0  0  0  0  0
    6.8773    1.3369   -1.7357 H   0  0  0  0  0  0  0  0  0  0  0  0
    2.0710    2.2269    0.1225 H   0  0  0  0  0  0  0  0  0  0  0  0
    0.2891    1.2385    1.5698 H   0  0  0  0  0  0  0  0  0  0  0  0
    1.3065   -2.5090    3.8196 H   0  0  0  0  0  0  0  0  0  0  0  0
   -5.1326   -0.4884    1.8338 H   0  0  0  0  0  0  0  0  0  0  0  0
   -5.4306    1.1051    0.8510 H   0  0  0  0  0  0  0  0  0  0  0  0
   -5.0250    2.2138   -0.4628 H   0  0  0  0  0  0  0  0  0  0  0  0
   -5.9350   -0.6823   -0.6668 H   0  0  0  0  0  0  0  0  0  0  0  0
   -6.4444    0.8254   -1.5249 H   0  0  0  0  0  0  0  0  0  0  0  0
   -3.8819    2.3852   -2.1849 H   0  0  0  0  0  0  0  0  0  0  0  0
   -2.5601    1.5262   -3.1261 H   0  0  0  0  0  0  0  0  0  0  0  0
   -2.1018    2.2182   -0.5802 H   0  0  0  0  0  0  0  0  0  0  0  0
   -1.7914    0.5136   -1.0963 H   0  0  0  0  0  0  0  0  0  0  0  0
    2.1313   -2.5398    1.2988 H   0  0  0  0  0  0  0  0  0  0  0  0
    3.9296   -1.5749   -0.1536 H   0  0  0  0  0  0  0  0  0  0  0  0
  1  2  1  0
  2  3  1  0
  3  4  1  0
  4  5  2  0
  4  6  1  0
  6  7  2  0
  7  8  1  0
  8  9  2  0
  9 10  1  0
 10 11  2  0
 11 12  1  0
 12 13  1  0
 13 14  1  0
 14 15  2  0
 14 16  1  0
 16 17  2  0
 17 18  1  0
 18 19  1  0
 19 20  1  0
 20 21  1  0
 21 22  1  0
 22 23  1  0
 17 24  1  0
 24 25  1  0
  9 26  1  0
 26 27  2  0
 27  6  1  0
 25 10  1  0
 25 13  2  0
 23 18  1  0
  1 28  1  0
  1 29  1  0
  1 30  1  0
  2 31  1  0
  2 32  1  0
  7 33  1  0
  8 34  1  0
 11 35  1  0
 16 36  1  0
 19 37  1  0
 19 38  1  0
 20 39  1  0
 20 40  1  0
 22 41  1  0
 22 42  1  0
 23 43  1  0
 23 44  1  0
 26 45  1  0
 27 46  1  0
M  END
$$$$
