
     RDKit          3D

 64 67  0  0  0  0  0  0  0  0999 V2000
   -1.5623   -5.6610    0.2564 C   0  0  0  0  0  0  0  0  0  0  0  0
   -1.7039   -4.6298    1.3232 C   0  0  0  0  0  0  0  0  0  0  0  0
   -1.8380   -3.3176    0.8950 O   0  0  0  0  0  0  0  0  0  0  0  0
   -0.9584   -2.5625    0.1574 C   0  0  0  0  0  0  0  0  0  0  0  0
    0.2311   -3.1649   -0.2173 C   0  0  0  0  0  0  0  0  0  0  0  0
    1.1569   -2.4816   -0.9502 C   0  0  0  0  0  0  0  0  0  0  0  0
    0.8740   -1.1696   -1.3084 C   0  0  0  0  0  0  0  0  0  0  0  0
    1.8990   -0.4528   -2.1036 C   0  0  0  0  0  0  0  0  0  0  0  0
    2.8373    0.2403   -1.1407 C   0  0  1  0  0  0  0  0  0  0  0  0
    3.5124   -0.7498   -0.2346 C   0  0  0  0  0  0  0  0  0  0  0  0
    4.6030   -0.0726    0.5562 C   0  0  0  0  0  0  0  0  0  0  0  0
    4.4047    1.4253    0.5780 C   0  0  1  0  0  0  0  0  0  0  0  0
    5.4555    2.0378    1.4336 C   0  0  0  0  0  0  0  0  0  0  0  0
    5.1404    2.7123    2.4574 O   0  0  0  0  0  0  0  0  0  0  0  0
    6.8264    1.8677    1.1039 N   0  0  0  0  0  0  0  0  0  0  0  0
    7.8041    2.4126    1.8632 O   0  0  0  0  0  0  0  0  0  0  0  0
    4.4692    2.0125   -0.8099 C   0  0  0  0  0  0  0  0  0  0  0  0
    3.8919    1.0494   -1.8486 C   0  0  0  0  0  0  0  0  0  0  0  0
   -0.3101   -0.5947   -0.9257 C   0  0  0  0  0  0  0  0  0  0  0  0
   -1.2788   -1.2791   -0.1707 C   0  0  0  0  0  0  0  0  0  0  0  0
   -2.5110   -0.5730    0.1865 C   0  0  0  0  0  0  0  0  0  0  0  0
   -2.6615    0.7228   -0.2329 N   0  0  0  0  0  0  0  0  0  0  0  0
   -3.7635    1.4163    0.0627 C   0  0  0  0  0  0  0  0  0  0  0  0
   -4.1319    2.7301   -0.2527 C   0  0  0  0  0  0  0  0  0  0  0  0
   -3.2866    3.6663   -1.0411 C   0  0  0  0  0  0  0  0  0  0  0  0
   -3.3865    3.2505   -2.4987 C   0  0  0  0  0  0  0  0  0  0  0  0
   -5.3387    2.9104    0.2926 N   0  0  0  0  0  0  0  0  0  0  0  0
   -5.7493    1.8304    0.9150 N   0  0  0  0  0  0  0  0  0  0  0  0
   -7.0093    1.6162    1.6381 C   0  0  0  0  0  0  0  0  0  0  0  0
   -4.8058    0.8847    0.7968 C   0  0  0  0  0  0  0  0  0  0  0  0
   -4.6542   -0.4150    1.2171 C   0  0  0  0  0  0  0  0  0  0  0  0
   -5.5695   -0.9368    1.8827 O   0  0  0  0  0  0  0  0  0  0  0  0
   -3.5163   -1.0737    0.8900 N   0  0  0  0  0  0  0  0  0  0  0  0
   -1.5108   -5.2621   -0.7776 H   0  0  0  0  0  0  0  0  0  0  0  0
   -2.4049   -6.4062    0.2824 H   0  0  0  0  0  0  0  0  0  0  0  0
   -0.6560   -6.2640    0.4267 H   0  0  0  0  0  0  0  0  0  0  0  0
   -2.6540   -4.8700    1.8932 H   0  0  0  0  0  0  0  0  0  0  0  0
   -0.8410   -4.7409    2.0356 H   0  0  0  0  0  0  0  0  0  0  0  0
    0.4314   -4.1763    0.0730 H   0  0  0  0  0  0  0  0  0  0  0  0
    2.0927   -2.9355   -1.2530 H   0  0  0  0  0  0  0  0  0  0  0  0
    1.4292    0.2769   -2.7750 H   0  0  0  0  0  0  0  0  0  0  0  0
    2.4593   -1.1637   -2.7220 H   0  0  0  0  0  0  0  0  0  0  0  0
    2.2077    0.9438   -0.5491 H   0  0  0  0  0  0  0  0  0  0  0  0
    2.7730   -1.2282    0.4250 H   0  0  0  0  0  0  0  0  0  0  0  0
    3.9939   -1.5156   -0.9068 H   0  0  0  0  0  0  0  0  0  0  0  0
    4.5309   -0.4123    1.6265 H   0  0  0  0  0  0  0  0  0  0  0  0
    5.5956   -0.3766    0.1935 H   0  0  0  0  0  0  0  0  0  0  0  0
    3.4042    1.6157    0.9926 H   0  0  0  0  0  0  0  0  0  0  0  0
    7.0775    1.3144    0.2644 H   0  0  0  0  0  0  0  0  0  0  0  0
    7.7205    3.4046    1.7330 H   0  0  0  0  0  0  0  0  0  0  0  0
    5.4799    2.3340   -1.0621 H   0  0  0  0  0  0  0  0  0  0  0  0
    3.8103    2.9076   -0.8112 H   0  0  0  0  0  0  0  0  0  0  0  0
    3.3767    1.6467   -2.6299 H   0  0  0  0  0  0  0  0  0  0  0  0
    4.6914    0.4474   -2.2825 H   0  0  0  0  0  0  0  0  0  0  0  0
   -0.5233    0.4255   -1.2077 H   0  0  0  0  0  0  0  0  0  0  0  0
   -2.2183    3.5760   -0.7525 H   0  0  0  0  0  0  0  0  0  0  0  0
   -3.6630    4.7024   -0.9545 H   0  0  0  0  0  0  0  0  0  0  0  0
   -3.4741    4.1511   -3.1734 H   0  0  0  0  0  0  0  0  0  0  0  0
   -2.5224    2.6179   -2.8107 H   0  0  0  0  0  0  0  0  0  0  0  0
   -4.2977    2.6522   -2.7045 H   0  0  0  0  0  0  0  0  0  0  0  0
   -7.7816    1.2004    0.9677 H   0  0  0  0  0  0  0  0  0  0  0  0
   -7.2845    2.6002    2.0672 H   0  0  0  0  0  0  0  0  0  0  0  0
   -6.8461    0.9279    2.5029 H   0  0  0  0  0  0  0  0  0  0  0  0
   -3.4667   -2.0443    1.2364 H   0  0  0  0  0  0  0  0  0  0  0  0
  1  2  1  0
  2  3  1  0
  3  4  1  0
  4  5  2  0
  5  6  1  0
  6  7  2  0
  7  8  1  0
  8  9  1  0
  9 10  1  0
 10 11  1  0
 11 12  1  0
 12 13  1  0
 13 14  2  0
 13 15  1  0
 15 16  1  0
 12 17  1  0
 17 18  1  0
  7 19  1  0
 19 20  2  0
 20 21  1  0
 21 22  2  0
 22 23  1  0
 23 24  1  0
 24 25  1  0
 25 26  1  0
 24 27  2  0
 27 28  1  0
 28 29  1  0
 28 30  1  0
 30 31  1  0
 31 32  2  0
 31 33  1  0
 20  4  1  0
 33 21  1  0
 18  9  1  0
 30 23  2  0
  1 34  1  0
  1 35  1  0
  1 36  1  0
  2 37  1  0
  2 38  1  0
  5 39  1  0
  6 40  1  0
  8 41  1  0
  8 42  1  0
  9 43  1  1
 10 44  1  0
 10 45  1  0
 11 46  1  0
 11 47  1  0
 12 48  1  1
 15 49  1  0
 16 50  1  0
 17 51  1  0
 17 52  1  0
 18 53  1  0
 18 54  1  0
 19 55  1  0
 25 56  1  0
 25 57  1  0
 26 58  1  0
 26 59  1  0
 26 60  1  0
 29 61  1  0
 29 62  1  0
 29 63  1  0
 33 64  1  0
M  END
$$$$
