@<TRIPOS>MOLECULE
*****
 64 67 0 0 0
SMALL
GASTEIGER

@<TRIPOS>ATOM
      1 C          -1.5623   -5.6610    0.2564 C.3     1  UNL1       -0.0307
      2 C          -1.7039   -4.6298    1.3232 C.3     1  UNL1        0.0868
      3 O          -1.8380   -3.3176    0.8950 O.3     1  UNL1       -0.4915
      4 C          -0.9584   -2.5625    0.1574 C.ar    1  UNL1        0.1311
      5 C           0.2311   -3.1649   -0.2173 C.ar    1  UNL1       -0.0190
      6 C           1.1569   -2.4816   -0.9502 C.ar    1  UNL1       -0.0551
      7 C           0.8740   -1.1696   -1.3084 C.ar    1  UNL1       -0.0462
      8 C           1.8990   -0.4528   -2.1036 C.3     1  UNL1       -0.0248
      9 C           2.8373    0.2403   -1.1407 C.3     1  UNL1       -0.0370
     10 C           3.5124   -0.7498   -0.2346 C.3     1  UNL1       -0.0492
     11 C           4.6030   -0.0726    0.5562 C.3     1  UNL1       -0.0416
     12 C           4.4047    1.4253    0.5780 C.3     1  UNL1        0.0375
     13 C           5.4555    2.0378    1.4336 C.2     1  UNL1        0.2385
     14 O           5.1404    2.7123    2.4574 O.2     1  UNL1       -0.2734
     15 N           6.8264    1.8677    1.1039 N.am    1  UNL1       -0.1973
     16 O           7.8041    2.4126    1.8632 O.3     1  UNL1       -0.2952
     17 C           4.4692    2.0125   -0.8099 C.3     1  UNL1       -0.0416
     18 C           3.8919    1.0494   -1.8486 C.3     1  UNL1       -0.0492
     19 C          -0.3101   -0.5947   -0.9257 C.ar    1  UNL1       -0.0444
     20 C          -1.2788   -1.2791   -0.1707 C.ar    1  UNL1        0.0592
     21 C          -2.5110   -0.5730    0.1865 C.ar    1  UNL1        0.1451
     22 N          -2.6615    0.7228   -0.2329 N.ar    1  UNL1       -0.2254
     23 C          -3.7635    1.4163    0.0627 C.ar    1  UNL1        0.1192
     24 C          -4.1319    2.7301   -0.2527 C.ar    1  UNL1        0.0889
     25 C          -3.2866    3.6663   -1.0411 C.3     1  UNL1       -0.0094
     26 C          -3.3865    3.2505   -2.4987 C.3     1  UNL1       -0.0597
     27 N          -5.3387    2.9104    0.2926 N.ar    1  UNL1       -0.1736
     28 N          -5.7493    1.8304    0.9150 N.ar    1  UNL1       -0.2598
     29 C          -7.0093    1.6162    1.6381 C.3     1  UNL1        0.0311
     30 C          -4.8058    0.8847    0.7968 C.ar    1  UNL1        0.1513
     31 C          -4.6542   -0.4150    1.2171 C.ar    1  UNL1        0.2775
     32 O          -5.5695   -0.9368    1.8827 O.2     1  UNL1       -0.2655
     33 N          -3.5163   -1.0737    0.8900 N.ar    1  UNL1       -0.3051
     34 H          -1.5108   -5.2621   -0.7776 H       1  UNL1        0.0262
     35 H          -2.4049   -6.4062    0.2824 H       1  UNL1        0.0262
     36 H          -0.6560   -6.2640    0.4267 H       1  UNL1        0.0262
     37 H          -2.6540   -4.8700    1.8932 H       1  UNL1        0.0694
     38 H          -0.8410   -4.7409    2.0356 H       1  UNL1        0.0694
     39 H           0.4314   -4.1763    0.0730 H       1  UNL1        0.0654
     40 H           2.0927   -2.9355   -1.2530 H       1  UNL1        0.0621
     41 H           1.4292    0.2769   -2.7750 H       1  UNL1        0.0316
     42 H           2.4593   -1.1637   -2.7220 H       1  UNL1        0.0316
     43 H           2.2077    0.9438   -0.5491 H       1  UNL1        0.0304
     44 H           2.7730   -1.2282    0.4250 H       1  UNL1        0.0268
     45 H           3.9939   -1.5156   -0.9068 H       1  UNL1        0.0268
     46 H           4.5309   -0.4123    1.6265 H       1  UNL1        0.0273
     47 H           5.5956   -0.3766    0.1935 H       1  UNL1        0.0273
     48 H           3.4042    1.6157    0.9926 H       1  UNL1        0.0395
     49 H           7.0775    1.3144    0.2644 H       1  UNL1        0.1822
     50 H           7.7205    3.4046    1.7330 H       1  UNL1        0.2414
     51 H           5.4799    2.3340   -1.0621 H       1  UNL1        0.0273
     52 H           3.8103    2.9076   -0.8112 H       1  UNL1        0.0273
     53 H           3.3767    1.6467   -2.6299 H       1  UNL1        0.0268
     54 H           4.6914    0.4474   -2.2825 H       1  UNL1        0.0268
     55 H          -0.5233    0.4255   -1.2077 H       1  UNL1        0.0628
     56 H          -2.2183    3.5760   -0.7525 H       1  UNL1        0.0327
     57 H          -3.6630    4.7024   -0.9545 H       1  UNL1        0.0327
     58 H          -3.4741    4.1511   -3.1734 H       1  UNL1        0.0233
     59 H          -2.5224    2.6179   -2.8107 H       1  UNL1        0.0233
     60 H          -4.2977    2.6522   -2.7045 H       1  UNL1        0.0233
     61 H          -7.7816    1.2004    0.9677 H       1  UNL1        0.0473
     62 H          -7.2845    2.6002    2.0672 H       1  UNL1        0.0473
     63 H          -6.8461    0.9279    2.5029 H       1  UNL1        0.0473
     64 H          -3.4667   -2.0443    1.2364 H       1  UNL1        0.1704
@<TRIPOS>BOND
     1     1     2    1
     2     2     3    1
     3     3     4    1
     4     4     5   ar
     5     5     6   ar
     6     6     7   ar
     7     7     8    1
     8     8     9    1
     9     9    10    1
    10    10    11    1
    11    11    12    1
    12    12    13    1
    13    13    14    2
    14    13    15   am
    15    15    16    1
    16    12    17    1
    17    17    18    1
    18     7    19   ar
    19    19    20   ar
    20    20    21    1
    21    21    22   ar
    22    22    23   ar
    23    23    24   ar
    24    24    25    1
    25    25    26    1
    26    24    27   ar
    27    27    28   ar
    28    28    29    1
    29    28    30   ar
    30    30    31   ar
    31    31    32    2
    32    31    33   ar
    33    20     4   ar
    34    33    21   ar
    35    18     9    1
    36    30    23   ar
    37     1    34    1
    38     1    35    1
    39     1    36    1
    40     2    37    1
    41     2    38    1
    42     5    39    1
    43     6    40    1
    44     8    41    1
    45     8    42    1
    46     9    43    1
    47    10    44    1
    48    10    45    1
    49    11    46    1
    50    11    47    1
    51    12    48    1
    52    15    49    1
    53    16    50    1
    54    17    51    1
    55    17    52    1
    56    18    53    1
    57    18    54    1
    58    19    55    1
    59    25    56    1
    60    25    57    1
    61    26    58    1
    62    26    59    1
    63    26    60    1
    64    29    61    1
    65    29    62    1
    66    29    63    1
    67    33    64    1
