@<TRIPOS>MOLECULE
*****
 49 51 0 0 0
SMALL
GASTEIGER

@<TRIPOS>ATOM
      1 C           4.0334   -2.5415    1.0524 C.3     1  UNL1        0.0365
      2 O           3.1705   -2.7931    0.0079 O.3     1  UNL1       -0.3811
      3 C           2.2923   -1.7627   -0.2111 C.3     1  UNL1        0.0658
      4 C           2.9703   -0.4865   -0.5540 C.3     1  UNL1        0.0482
      5 C           3.7170   -0.5080   -1.8688 C.3     1  UNL1       -0.0308
      6 C           4.0234    0.9636   -2.0625 C.3     1  UNL1       -0.0354
      7 C           2.8234    1.6471   -1.4764 C.3     1  UNL1        0.0139
      8 N           2.0410    0.6149   -0.8111 N.pl3   1  UNL1       -0.3098
      9 C           0.6773    0.7168   -0.5082 C.ar    1  UNL1        0.1287
     10 C          -0.0023    1.8759   -0.8308 C.ar    1  UNL1        0.0186
     11 C          -1.3456    2.0092   -0.5483 C.ar    1  UNL1        0.1320
     12 N          -1.9969    3.2222   -0.9010 N.am    1  UNL1       -0.2704
     13 C          -2.0922    4.3444   -0.0431 C.2     1  UNL1        0.2152
     14 C          -2.7905    5.5753   -0.4882 C.3     1  UNL1        0.0125
     15 O          -1.5837    4.2826    1.0849 O.2     1  UNL1       -0.2757
     16 N          -1.9859    0.9792    0.0526 N.ar    1  UNL1       -0.1954
     17 C          -1.3413   -0.1610    0.3759 C.ar    1  UNL1        0.2549
     18 N          -2.0174   -1.2479    1.0101 N.ar    1  UNL1       -0.2024
     19 N          -1.6706   -1.9055    2.0922 N.ar    1  UNL1       -0.1689
     20 C          -2.5553   -2.8701    2.3919 C.ar    1  UNL1        0.0607
     21 C          -2.5072   -3.8189    3.5353 C.3     1  UNL1       -0.0206
     22 C          -3.5427   -2.8270    1.4295 C.ar    1  UNL1       -0.0178
     23 C          -3.1851   -1.8045    0.5756 C.ar    1  UNL1        0.0453
     24 C          -3.9159   -1.3406   -0.6369 C.3     1  UNL1       -0.0221
     25 N          -0.0338   -0.2633    0.0893 N.ar    1  UNL1       -0.1956
     26 H           4.6810   -1.6600    0.9257 H       1  UNL1        0.0523
     27 H           3.4568   -2.4775    2.0135 H       1  UNL1        0.0523
     28 H           4.7308   -3.4175    1.1989 H       1  UNL1        0.0523
     29 H           1.4604   -2.0237   -0.8853 H       1  UNL1        0.0578
     30 H           1.7855   -1.5867    0.7886 H       1  UNL1        0.0578
     31 H           3.6342   -0.1040    0.2470 H       1  UNL1        0.0523
     32 H           3.0144   -0.8553   -2.6585 H       1  UNL1        0.0284
     33 H           4.6283   -1.1293   -1.8216 H       1  UNL1        0.0284
     34 H           4.9444    1.1769   -1.4632 H       1  UNL1        0.0281
     35 H           4.1780    1.2140   -3.1335 H       1  UNL1        0.0281
     36 H           3.1170    2.4201   -0.7077 H       1  UNL1        0.0464
     37 H           2.2597    2.1205   -2.3091 H       1  UNL1        0.0464
     38 H           0.5295    2.7068   -1.3194 H       1  UNL1        0.0686
     39 H          -2.4439    3.3228   -1.8478 H       1  UNL1        0.1562
     40 H          -2.5814    5.8069   -1.5417 H       1  UNL1        0.0323
     41 H          -2.4518    6.4316    0.1119 H       1  UNL1        0.0323
     42 H          -3.8841    5.3989   -0.3834 H       1  UNL1        0.0323
     43 H          -3.5679   -4.0736    3.7895 H       1  UNL1        0.0293
     44 H          -1.9871   -4.7620    3.2472 H       1  UNL1        0.0293
     45 H          -2.0146   -3.3404    4.4009 H       1  UNL1        0.0293
     46 H          -4.4224   -3.4658    1.3565 H       1  UNL1        0.0654
     47 H          -4.5229   -0.4495   -0.3773 H       1  UNL1        0.0293
     48 H          -3.1534   -1.0113   -1.3731 H       1  UNL1        0.0293
     49 H          -4.5728   -2.1426   -1.0152 H       1  UNL1        0.0293
@<TRIPOS>BOND
     1     1     2    1
     2     2     3    1
     3     3     4    1
     4     4     5    1
     5     5     6    1
     6     6     7    1
     7     7     8    1
     8     8     9    1
     9     9    10   ar
    10    10    11   ar
    11    11    12    1
    12    12    13   am
    13    13    14    1
    14    13    15    2
    15    11    16   ar
    16    16    17   ar
    17    17    18    1
    18    18    19   ar
    19    19    20   ar
    20    20    21    1
    21    20    22   ar
    22    22    23   ar
    23    23    24    1
    24    17    25   ar
    25     8     4    1
    26    25     9   ar
    27    23    18   ar
    28     1    26    1
    29     1    27    1
    30     1    28    1
    31     3    29    1
    32     3    30    1
    33     4    31    1
    34     5    32    1
    35     5    33    1
    36     6    34    1
    37     6    35    1
    38     7    36    1
    39     7    37    1
    40    10    38    1
    41    12    39    1
    42    14    40    1
    43    14    41    1
    44    14    42    1
    45    21    43    1
    46    21    44    1
    47    21    45    1
    48    22    46    1
    49    24    47    1
    50    24    48    1
    51    24    49    1
