
     RDKit          3D

 49 51  0  0  0  0  0  0  0  0999 V2000
    4.0334   -2.5415    1.0524 C   0  0  0  0  0  0  0  0  0  0  0  0
    3.1705   -2.7931    0.0079 O   0  0  0  0  0  0  0  0  0  0  0  0
    2.2923   -1.7627   -0.2111 C   0  0  0  0  0  0  0  0  0  0  0  0
    2.9703   -0.4865   -0.5540 C   0  0  1  0  0  0  0  0  0  0  0  0
    3.7170   -0.5080   -1.8688 C   0  0  0  0  0  0  0  0  0  0  0  0
    4.0234    0.9636   -2.0625 C   0  0  0  0  0  0  0  0  0  0  0  0
    2.8234    1.6471   -1.4764 C   0  0  0  0  0  0  0  0  0  0  0  0
    2.0410    0.6149   -0.8111 N   0  0  0  0  0  0  0  0  0  0  0  0
    0.6773    0.7168   -0.5082 C   0  0  0  0  0  0  0  0  0  0  0  0
   -0.0023    1.8759   -0.8308 C   0  0  0  0  0  0  0  0  0  0  0  0
   -1.3456    2.0092   -0.5483 C   0  0  0  0  0  0  0  0  0  0  0  0
   -1.9969    3.2222   -0.9010 N   0  0  0  0  0  0  0  0  0  0  0  0
   -2.0922    4.3444   -0.0431 C   0  0  0  0  0  0  0  0  0  0  0  0
   -2.7905    5.5753   -0.4882 C   0  0  0  0  0  0  0  0  0  0  0  0
   -1.5837    4.2826    1.0849 O   0  0  0  0  0  0  0  0  0  0  0  0
   -1.9859    0.9792    0.0526 N   0  0  0  0  0  0  0  0  0  0  0  0
   -1.3413   -0.1610    0.3759 C   0  0  0  0  0  0  0  0  0  0  0  0
   -2.0174   -1.2479    1.0101 N   0  0  0  0  0  0  0  0  0  0  0  0
   -1.6706   -1.9055    2.0922 N   0  0  0  0  0  0  0  0  0  0  0  0
   -2.5553   -2.8701    2.3919 C   0  0  0  0  0  0  0  0  0  0  0  0
   -2.5072   -3.8189    3.5353 C   0  0  0  0  0  0  0  0  0  0  0  0
   -3.5427   -2.8270    1.4295 C   0  0  0  0  0  0  0  0  0  0  0  0
   -3.1851   -1.8045    0.5756 C   0  0  0  0  0  0  0  0  0  0  0  0
   -3.9159   -1.3406   -0.6369 C   0  0  0  0  0  0  0  0  0  0  0  0
   -0.0338   -0.2633    0.0893 N   0  0  0  0  0  0  0  0  0  0  0  0
    4.6810   -1.6600    0.9257 H   0  0  0  0  0  0  0  0  0  0  0  0
    3.4568   -2.4775    2.0135 H   0  0  0  0  0  0  0  0  0  0  0  0
    4.7308   -3.4175    1.1989 H   0  0  0  0  0  0  0  0  0  0  0  0
    1.4604   -2.0237   -0.8853 H   0  0  0  0  0  0  0  0  0  0  0  0
    1.7855   -1.5867    0.7886 H   0  0  0  0  0  0  0  0  0  0  0  0
    3.6342   -0.1040    0.2470 H   0  0  0  0  0  0  0  0  0  0  0  0
    3.0144   -0.8553   -2.6585 H   0  0  0  0  0  0  0  0  0  0  0  0
    4.6283   -1.1293   -1.8216 H   0  0  0  0  0  0  0  0  0  0  0  0
    4.9444    1.1769   -1.4632 H   0  0  0  0  0  0  0  0  0  0  0  0
    4.1780    1.2140   -3.1335 H   0  0  0  0  0  0  0  0  0  0  0  0
    3.1170    2.4201   -0.7077 H   0  0  0  0  0  0  0  0  0  0  0  0
    2.2597    2.1205   -2.3091 H   0  0  0  0  0  0  0  0  0  0  0  0
    0.5295    2.7068   -1.3194 H   0  0  0  0  0  0  0  0  0  0  0  0
   -2.4439    3.3228   -1.8478 H   0  0  0  0  0  0  0  0  0  0  0  0
   -2.5814    5.8069   -1.5417 H   0  0  0  0  0  0  0  0  0  0  0  0
   -2.4518    6.4316    0.1119 H   0  0  0  0  0  0  0  0  0  0  0  0
   -3.8841    5.3989   -0.3834 H   0  0  0  0  0  0  0  0  0  0  0  0
   -3.5679   -4.0736    3.7895 H   0  0  0  0  0  0  0  0  0  0  0  0
   -1.9871   -4.7620    3.2472 H   0  0  0  0  0  0  0  0  0  0  0  0
   -2.0146   -3.3404    4.4009 H   0  0  0  0  0  0  0  0  0  0  0  0
   -4.4224   -3.4658    1.3565 H   0  0  0  0  0  0  0  0  0  0  0  0
   -4.5229   -0.4495   -0.3773 H   0  0  0  0  0  0  0  0  0  0  0  0
   -3.1534   -1.0113   -1.3731 H   0  0  0  0  0  0  0  0  0  0  0  0
   -4.5728   -2.1426   -1.0152 H   0  0  0  0  0  0  0  0  0  0  0  0
  1  2  1  0
  2  3  1  0
  3  4  1  0
  4  5  1  0
  5  6  1  0
  6  7  1  0
  7  8  1  0
  8  9  1  0
  9 10  2  0
 10 11  1  0
 11 12  1  0
 12 13  1  0
 13 14  1  0
 13 15  2  0
 11 16  2  0
 16 17  1  0
 17 18  1  0
 18 19  1  0
 19 20  2  0
 20 21  1  0
 20 22  1  0
 22 23  2  0
 23 24  1  0
 17 25  2  0
  8  4  1  0
 25  9  1  0
 23 18  1  0
  1 26  1  0
  1 27  1  0
  1 28  1  0
  3 29  1  0
  3 30  1  0
  4 31  1  1
  5 32  1  0
  5 33  1  0
  6 34  1  0
  6 35  1  0
  7 36  1  0
  7 37  1  0
 10 38  1  0
 12 39  1  0
 14 40  1  0
 14 41  1  0
 14 42  1  0
 21 43  1  0
 21 44  1  0
 21 45  1  0
 22 46  1  0
 24 47  1  0
 24 48  1  0
 24 49  1  0
M  END
$$$$
