
     RDKit          3D

 29 31  0  0  0  0  0  0  0  0999 V2000
    0.2213    2.4753   -0.2289 N   0  0  0  0  0  0  0  0  0  0  0  0
    0.3390    1.0769   -0.0216 C   0  0  0  0  0  0  0  0  0  0  0  0
   -0.8338    0.3376    0.1097 C   0  0  0  0  0  0  0  0  0  0  0  0
   -0.6852   -1.0154    0.3096 C   0  0  0  0  0  0  0  0  0  0  0  0
    0.5371   -1.5816    0.3730 N   0  0  0  0  0  0  0  0  0  0  0  0
    1.6806   -0.8917    0.2497 C   0  0  0  0  0  0  0  0  0  0  0  0
    2.9282   -1.4889    0.3172 C   0  0  0  0  0  0  0  0  0  0  0  0
    4.1020   -0.7473    0.1856 C   0  0  0  0  0  0  0  0  0  0  0  0
    4.0004    0.6116   -0.0160 C   0  0  0  0  0  0  0  0  0  0  0  0
    2.7560    1.2036   -0.0829 C   0  0  0  0  0  0  0  0  0  0  0  0
    1.5759    0.4734    0.0471 C   0  0  0  0  0  0  0  0  0  0  0  0
   -1.9253   -1.8230    0.4483 C   0  0  0  0  0  0  0  0  0  0  0  0
   -2.8462   -1.3121   -0.6711 C   0  0  0  0  0  0  0  0  0  0  0  0
   -3.2937    0.0571   -0.2159 C   0  0  0  0  0  0  0  0  0  0  0  0
   -2.1592    0.9929    0.0376 C   0  0  0  0  0  0  0  0  0  0  0  0
    0.5842    2.9510   -1.1023 H   0  0  0  0  0  0  0  0  0  0  0  0
   -0.2271    3.0936    0.4693 H   0  0  0  0  0  0  0  0  0  0  0  0
    2.9591   -2.5415    0.4743 H   0  0  0  0  0  0  0  0  0  0  0  0
    5.0417   -1.2760    0.2484 H   0  0  0  0  0  0  0  0  0  0  0  0
    4.9306    1.1564   -0.1139 H   0  0  0  0  0  0  0  0  0  0  0  0
    2.6869    2.2527   -0.2387 H   0  0  0  0  0  0  0  0  0  0  0  0
   -2.4397   -1.6324    1.4160 H   0  0  0  0  0  0  0  0  0  0  0  0
   -1.7308   -2.9090    0.2790 H   0  0  0  0  0  0  0  0  0  0  0  0
   -2.2682   -1.2011   -1.5978 H   0  0  0  0  0  0  0  0  0  0  0  0
   -3.7229   -1.9641   -0.7613 H   0  0  0  0  0  0  0  0  0  0  0  0
   -3.8037   -0.1081    0.7785 H   0  0  0  0  0  0  0  0  0  0  0  0
   -4.0174    0.4836   -0.9480 H   0  0  0  0  0  0  0  0  0  0  0  0
   -2.1172    1.7821   -0.7624 H   0  0  0  0  0  0  0  0  0  0  0  0
   -2.2726    1.5443    1.0174 H   0  0  0  0  0  0  0  0  0  0  0  0
  1  2  1  0
  2  3  2  0
  3  4  1  0
  4  5  2  0
  5  6  1  0
  6  7  2  0
  7  8  1  0
  8  9  2  0
  9 10  1  0
 10 11  2  0
  4 12  1  0
 12 13  1  0
 13 14  1  0
 14 15  1  0
 11  2  1  0
 15  3  1  0
 11  6  1  0
  1 16  1  0
  1 17  1  0
  7 18  1  0
  8 19  1  0
  9 20  1  0
 10 21  1  0
 12 22  1  0
 12 23  1  0
 13 24  1  0
 13 25  1  0
 14 26  1  0
 14 27  1  0
 15 28  1  0
 15 29  1  0
M  END
$$$$
