@<TRIPOS>MOLECULE
*****
 29 31 0 0 0
SMALL
GASTEIGER

@<TRIPOS>ATOM
      1 N           0.2213    2.4753   -0.2289 N.pl3   1  UNL1       -0.3572
      2 C           0.3390    1.0769   -0.0216 C.ar    1  UNL1        0.0388
      3 C          -0.8338    0.3376    0.1097 C.ar    1  UNL1       -0.0049
      4 C          -0.6852   -1.0154    0.3096 C.ar    1  UNL1        0.0469
      5 N           0.5371   -1.5816    0.3730 N.ar    1  UNL1       -0.2512
      6 C           1.6806   -0.8917    0.2497 C.ar    1  UNL1        0.0730
      7 C           2.9282   -1.4889    0.3172 C.ar    1  UNL1       -0.0357
      8 C           4.1020   -0.7473    0.1856 C.ar    1  UNL1       -0.0597
      9 C           4.0004    0.6116   -0.0160 C.ar    1  UNL1       -0.0610
     10 C           2.7560    1.2036   -0.0829 C.ar    1  UNL1       -0.0508
     11 C           1.5759    0.4734    0.0471 C.ar    1  UNL1        0.0213
     12 C          -1.9253   -1.8230    0.4483 C.3     1  UNL1       -0.0101
     13 C          -2.8462   -1.3121   -0.6711 C.3     1  UNL1       -0.0473
     14 C          -3.2937    0.0571   -0.2159 C.3     1  UNL1       -0.0486
     15 C          -2.1592    0.9929    0.0376 C.3     1  UNL1       -0.0242
     16 H           0.5842    2.9510   -1.1023 H       1  UNL1        0.1423
     17 H          -0.2271    3.0936    0.4693 H       1  UNL1        0.1423
     18 H           2.9591   -2.5415    0.4743 H       1  UNL1        0.0639
     19 H           5.0417   -1.2760    0.2484 H       1  UNL1        0.0618
     20 H           4.9306    1.1564   -0.1139 H       1  UNL1        0.0618
     21 H           2.6869    2.2527   -0.2387 H       1  UNL1        0.0625
     22 H          -2.4397   -1.6324    1.4160 H       1  UNL1        0.0328
     23 H          -1.7308   -2.9090    0.2790 H       1  UNL1        0.0328
     24 H          -2.2682   -1.2011   -1.5978 H       1  UNL1        0.0269
     25 H          -3.7229   -1.9641   -0.7613 H       1  UNL1        0.0269
     26 H          -3.8037   -0.1081    0.7785 H       1  UNL1        0.0269
     27 H          -4.0174    0.4836   -0.9480 H       1  UNL1        0.0269
     28 H          -2.1172    1.7821   -0.7624 H       1  UNL1        0.0314
     29 H          -2.2726    1.5443    1.0174 H       1  UNL1        0.0314
@<TRIPOS>BOND
     1     1     2    1
     2     2     3   ar
     3     3     4   ar
     4     4     5   ar
     5     5     6   ar
     6     6     7   ar
     7     7     8   ar
     8     8     9   ar
     9     9    10   ar
    10    10    11   ar
    11     4    12    1
    12    12    13    1
    13    13    14    1
    14    14    15    1
    15    11     2   ar
    16    15     3    1
    17    11     6   ar
    18     1    16    1
    19     1    17    1
    20     7    18    1
    21     8    19    1
    22     9    20    1
    23    10    21    1
    24    12    22    1
    25    12    23    1
    26    13    24    1
    27    13    25    1
    28    14    26    1
    29    14    27    1
    30    15    28    1
    31    15    29    1
