@<TRIPOS>MOLECULE
*****
 25 25 0 0 0
SMALL
GASTEIGER

@<TRIPOS>ATOM
      1 N          -2.7528    0.1238   -0.4824 N.3     1  UNL1       -0.3211
      2 C          -1.5432    0.0901    0.2811 C.3     1  UNL1        0.0851
      3 C          -0.9622   -1.2884    0.2058 C.3     1  UNL1        0.1744
      4 O          -1.7103   -2.1940    0.9053 O.3     1  UNL1       -0.3656
      5 O           0.3746   -1.2326    0.6285 O.3     1  UNL1       -0.3417
      6 C           1.0479   -0.6854   -0.4785 C.3     1  UNL1        0.1129
      7 C           2.5311   -0.9284   -0.4033 C.3     1  UNL1        0.0730
      8 O           3.1048   -0.3725    0.7225 O.3     1  UNL1       -0.3924
      9 C           0.7823    0.7926   -0.4250 C.3     1  UNL1        0.1109
     10 O           1.3161    1.3531   -1.5845 O.3     1  UNL1       -0.3865
     11 C          -0.6362    1.1685   -0.2024 C.3     1  UNL1        0.1033
     12 O          -0.6692    2.2564    0.6980 O.3     1  UNL1       -0.3874
     13 H          -3.3183    0.9768   -0.3735 H       1  UNL1        0.1187
     14 H          -3.2700   -0.7497   -0.5737 H       1  UNL1        0.1187
     15 H          -1.7709    0.2751    1.3717 H       1  UNL1        0.0535
     16 H          -0.9663   -1.6064   -0.8629 H       1  UNL1        0.0925
     17 H          -1.9376   -1.9615    1.8267 H       1  UNL1        0.2125
     18 H           0.6445   -1.1386   -1.3866 H       1  UNL1        0.0647
     19 H           2.6628   -2.0461   -0.3103 H       1  UNL1        0.0584
     20 H           2.9776   -0.6025   -1.3483 H       1  UNL1        0.0584
     21 H           3.4235    0.5534    0.5015 H       1  UNL1        0.2095
     22 H           1.4186    1.1821    0.4104 H       1  UNL1        0.0646
     23 H           1.7558    2.2227   -1.4143 H       1  UNL1        0.2100
     24 H          -1.0212    1.6296   -1.1595 H       1  UNL1        0.0637
     25 H          -1.4813    2.1820    1.2920 H       1  UNL1        0.2100
@<TRIPOS>BOND
     1     1     2    1
     2     2     3    1
     3     3     4    1
     4     3     5    1
     5     5     6    1
     6     6     7    1
     7     7     8    1
     8     6     9    1
     9     9    10    1
    10     9    11    1
    11    11    12    1
    12    11     2    1
    13     1    13    1
    14     1    14    1
    15     2    15    1
    16     3    16    1
    17     4    17    1
    18     6    18    1
    19     7    19    1
    20     7    20    1
    21     8    21    1
    22     9    22    1
    23    10    23    1
    24    11    24    1
    25    12    25    1
