
     RDKit          3D

 25 25  0  0  0  0  0  0  0  0999 V2000
   -2.7528    0.1238   -0.4824 N   0  0  0  0  0  0  0  0  0  0  0  0
   -1.5432    0.0901    0.2811 C   0  0  1  0  0  0  0  0  0  0  0  0
   -0.9622   -1.2884    0.2058 C   0  0  0  0  0  0  0  0  0  0  0  0
   -1.7103   -2.1940    0.9053 O   0  0  0  0  0  0  0  0  0  0  0  0
    0.3746   -1.2326    0.6285 O   0  0  0  0  0  0  0  0  0  0  0  0
    1.0479   -0.6854   -0.4785 C   0  0  2  0  0  0  0  0  0  0  0  0
    2.5311   -0.9284   -0.4033 C   0  0  0  0  0  0  0  0  0  0  0  0
    3.1048   -0.3725    0.7225 O   0  0  0  0  0  0  0  0  0  0  0  0
    0.7823    0.7926   -0.4250 C   0  0  1  0  0  0  0  0  0  0  0  0
    1.3161    1.3531   -1.5845 O   0  0  0  0  0  0  0  0  0  0  0  0
   -0.6362    1.1685   -0.2024 C   0  0  2  0  0  0  0  0  0  0  0  0
   -0.6692    2.2564    0.6980 O   0  0  0  0  0  0  0  0  0  0  0  0
   -3.3183    0.9768   -0.3735 H   0  0  0  0  0  0  0  0  0  0  0  0
   -3.2700   -0.7497   -0.5737 H   0  0  0  0  0  0  0  0  0  0  0  0
   -1.7709    0.2751    1.3717 H   0  0  0  0  0  0  0  0  0  0  0  0
   -0.9663   -1.6064   -0.8629 H   0  0  0  0  0  0  0  0  0  0  0  0
   -1.9376   -1.9615    1.8267 H   0  0  0  0  0  0  0  0  0  0  0  0
    0.6445   -1.1386   -1.3866 H   0  0  0  0  0  0  0  0  0  0  0  0
    2.6628   -2.0461   -0.3103 H   0  0  0  0  0  0  0  0  0  0  0  0
    2.9776   -0.6025   -1.3483 H   0  0  0  0  0  0  0  0  0  0  0  0
    3.4235    0.5534    0.5015 H   0  0  0  0  0  0  0  0  0  0  0  0
    1.4186    1.1821    0.4104 H   0  0  0  0  0  0  0  0  0  0  0  0
    1.7558    2.2227   -1.4143 H   0  0  0  0  0  0  0  0  0  0  0  0
   -1.0212    1.6296   -1.1595 H   0  0  0  0  0  0  0  0  0  0  0  0
   -1.4813    2.1820    1.2920 H   0  0  0  0  0  0  0  0  0  0  0  0
  1  2  1  0
  2  3  1  0
  3  4  1  0
  3  5  1  0
  5  6  1  0
  6  7  1  0
  7  8  1  0
  6  9  1  0
  9 10  1  0
  9 11  1  0
 11 12  1  0
 11  2  1  0
  1 13  1  0
  1 14  1  0
  2 15  1  1
  3 16  1  0
  4 17  1  0
  6 18  1  6
  7 19  1  0
  7 20  1  0
  8 21  1  0
  9 22  1  1
 10 23  1  0
 11 24  1  6
 12 25  1  0
M  END
$$$$
