@<TRIPOS>MOLECULE
*****
 24 24 0 0 0
SMALL
GASTEIGER

@<TRIPOS>ATOM
      1 CA         -1.8054   -0.0360    0.3033 C.3     1  UNL1        0.1072
      2 N          -1.3603   -1.4155    0.2336 N.3     1  UNL1       -0.3181
      3 C          -0.9985    0.7317   -0.7352 C.3     1  UNL1       -0.0020
      4 C           0.4450    0.5860   -0.3610 C.ar    1  UNL1       -0.0432
      5 C           1.0552    1.5119    0.4939 C.ar    1  UNL1       -0.0418
      6 C           2.3915    1.3650    0.8318 C.ar    1  UNL1        0.0560
      7 I           3.3847    2.7027    2.1038 I       1  UNL1       -0.0400
      8 C           3.0212    0.2737    0.2700 C.ar    1  UNL1        0.1430
      9 O           4.3760    0.0850    0.5845 O.3     1  UNL1       -0.5047
     10 C           2.4622   -0.6626   -0.5753 C.ar    1  UNL1        0.0560
     11 I           3.6010   -2.2677   -1.3315 I       1  UNL1       -0.0400
     12 C           1.1294   -0.4881   -0.8926 C.ar    1  UNL1       -0.0418
     13 C          -3.2467    0.0178   -0.0343 C.2     1  UNL1        0.3220
     14 O          -3.9520   -1.1586   -0.3530 O.3     1  UNL1       -0.4795
     15 OXT        -3.9754    1.0348   -0.0786 O.2     1  UNL1       -0.2492
     16 HA         -1.6196    0.4148    1.2839 H       1  UNL1        0.0577
     17 H1         -2.0013   -1.9283   -0.4175 H       1  UNL1        0.1190
     18 H2         -1.3470   -1.8828    1.1650 H       1  UNL1        0.1190
     19 H          -1.3102    1.7874   -0.8275 H       1  UNL1        0.0334
     20 H          -1.1810    0.2298   -1.7068 H       1  UNL1        0.0334
     21 H           0.4889    2.3528    0.9000 H       1  UNL1        0.0632
     22 H           4.7149   -0.8111    0.8655 H       1  UNL1        0.2922
     23 H           0.6672   -1.2036   -1.5502 H       1  UNL1        0.0632
     24 H          -4.9400   -1.2392   -0.1716 H       1  UNL1        0.2951
@<TRIPOS>BOND
     1     1     2    1
     2     1     3    1
     3     3     4    1
     4     4     5   ar
     5     5     6   ar
     6     6     7    1
     7     6     8   ar
     8     8     9    1
     9     8    10   ar
    10    10    11    1
    11    10    12   ar
    12     1    13    1
    13    13    14    1
    14    13    15    2
    15    12     4   ar
    16     1    16    1
    17     2    17    1
    18     2    18    1
    19     3    19    1
    20     3    20    1
    21     5    21    1
    22     9    22    1
    23    12    23    1
    24    14    24    1
