
     RDKit          3D

 37 39  0  0  0  0  0  0  0  0999 V2000
    7.2547    0.8478    0.4782 Cl  0  0  0  0  0  0  0  0  0  0  0  0
    5.4966    0.8424    0.4785 C   0  0  0  0  0  0  0  0  0  0  0  0
    4.7667    1.5669   -0.4549 C   0  0  0  0  0  0  0  0  0  0  0  0
    3.4011    1.5368   -0.4213 C   0  0  0  0  0  0  0  0  0  0  0  0
    2.7177    0.8020    0.5201 C   0  0  0  0  0  0  0  0  0  0  0  0
    0.9330    0.7408    0.5919 S   0  0  0  0  0  0  0  0  0  0  0  0
    0.3577   -0.6137   -0.4237 C   0  0  0  0  0  0  0  0  0  0  0  0
    1.2457   -1.4274   -1.1162 C   0  0  0  0  0  0  0  0  0  0  0  0
    0.7957   -2.4710   -1.8981 C   0  0  0  0  0  0  0  0  0  0  0  0
   -0.5694   -2.6621   -1.9556 C   0  0  0  0  0  0  0  0  0  0  0  0
   -1.4552   -1.8572   -1.2701 C   0  0  0  0  0  0  0  0  0  0  0  0
   -1.0065   -0.8129   -0.4875 C   0  0  0  0  0  0  0  0  0  0  0  0
   -1.9206    0.0195    0.2213 N   0  0  0  0  0  0  0  0  0  0  0  0
   -2.0182    1.4498    0.0058 C   0  0  0  0  0  0  0  0  0  0  0  0
   -3.4262    1.8682    0.2939 C   0  0  0  0  0  0  0  0  0  0  0  0
   -4.4017    0.8534   -0.0420 N   0  0  0  0  0  0  0  0  0  0  0  0
   -4.2226   -0.3690    0.6881 C   0  0  0  0  0  0  0  0  0  0  0  0
   -2.8299   -0.5394    1.2274 C   0  0  0  0  0  0  0  0  0  0  0  0
    3.4647    0.0776    1.4533 C   0  0  0  0  0  0  0  0  0  0  0  0
    4.8404    0.0987    1.4313 C   0  0  0  0  0  0  0  0  0  0  0  0
    5.3182    2.1453   -1.1956 H   0  0  0  0  0  0  0  0  0  0  0  0
    2.8025    2.0917   -1.1362 H   0  0  0  0  0  0  0  0  0  0  0  0
    2.3272   -1.2343   -1.0383 H   0  0  0  0  0  0  0  0  0  0  0  0
    1.5020   -3.0944   -2.4305 H   0  0  0  0  0  0  0  0  0  0  0  0
   -0.9434   -3.4772   -2.5649 H   0  0  0  0  0  0  0  0  0  0  0  0
   -2.5313   -2.0087   -1.3160 H   0  0  0  0  0  0  0  0  0  0  0  0
   -1.3377    1.9642    0.7205 H   0  0  0  0  0  0  0  0  0  0  0  0
   -1.6740    1.7306   -1.0086 H   0  0  0  0  0  0  0  0  0  0  0  0
   -3.6581    2.7469   -0.3678 H   0  0  0  0  0  0  0  0  0  0  0  0
   -3.5888    2.1961    1.3237 H   0  0  0  0  0  0  0  0  0  0  0  0
   -5.3390    1.2463    0.2516 H   0  0  0  0  0  0  0  0  0  0  0  0
   -4.9372   -0.4727    1.5384 H   0  0  0  0  0  0  0  0  0  0  0  0
   -4.4055   -1.2138   -0.0136 H   0  0  0  0  0  0  0  0  0  0  0  0
   -2.6880    0.0007    2.2015 H   0  0  0  0  0  0  0  0  0  0  0  0
   -2.5718   -1.6091    1.3677 H   0  0  0  0  0  0  0  0  0  0  0  0
    2.8926   -0.5010    2.1943 H   0  0  0  0  0  0  0  0  0  0  0  0
    5.4087   -0.4618    2.1534 H   0  0  0  0  0  0  0  0  0  0  0  0
  1  2  1  0
  2  3  2  0
  3  4  1  0
  4  5  2  0
  5  6  1  0
  6  7  1  0
  7  8  2  0
  8  9  1  0
  9 10  2  0
 10 11  1  0
 11 12  2  0
 12 13  1  0
 13 14  1  0
 14 15  1  0
 15 16  1  0
 16 17  1  0
 17 18  1  0
  5 19  1  0
 19 20  2  0
 20  2  1  0
 12  7  1  0
 18 13  1  0
  3 21  1  0
  4 22  1  0
  8 23  1  0
  9 24  1  0
 10 25  1  0
 11 26  1  0
 14 27  1  0
 14 28  1  0
 15 29  1  0
 15 30  1  0
 16 31  1  0
 17 32  1  0
 17 33  1  0
 18 34  1  0
 18 35  1  0
 19 36  1  0
 20 37  1  0
M  END
$$$$
