@<TRIPOS>MOLECULE
*****
 37 39 0 0 0
SMALL
GASTEIGER

@<TRIPOS>ATOM
      1 CL          7.2547    0.8478    0.4782 Cl      1  UNL1       -0.0835
      2 C           5.4966    0.8424    0.4785 C.ar    1  UNL1        0.0410
      3 C           4.7667    1.5669   -0.4549 C.ar    1  UNL1       -0.0423
      4 C           3.4011    1.5368   -0.4213 C.ar    1  UNL1       -0.0466
      5 C           2.7177    0.8020    0.5201 C.ar    1  UNL1        0.0129
      6 S           0.9330    0.7408    0.5919 S.3     1  UNL1       -0.0876
      7 C           0.3577   -0.6137   -0.4237 C.ar    1  UNL1        0.0337
      8 C           1.2457   -1.4274   -1.1162 C.ar    1  UNL1       -0.0462
      9 C           0.7957   -2.4710   -1.8981 C.ar    1  UNL1       -0.0606
     10 C          -0.5694   -2.6621   -1.9556 C.ar    1  UNL1       -0.0599
     11 C          -1.4552   -1.8572   -1.2701 C.ar    1  UNL1       -0.0396
     12 C          -1.0065   -0.8129   -0.4875 C.ar    1  UNL1        0.0437
     13 N          -1.9206    0.0195    0.2213 N.pl3   1  UNL1       -0.3266
     14 C          -2.0182    1.4498    0.0058 C.3     1  UNL1        0.0248
     15 C          -3.4262    1.8682    0.2939 C.3     1  UNL1        0.0117
     16 N          -4.4017    0.8534   -0.0420 N.3     1  UNL1       -0.3130
     17 C          -4.2226   -0.3690    0.6881 C.3     1  UNL1        0.0117
     18 C          -2.8299   -0.5394    1.2274 C.3     1  UNL1        0.0248
     19 C           3.4647    0.0776    1.4533 C.ar    1  UNL1       -0.0466
     20 C           4.8404    0.0987    1.4313 C.ar    1  UNL1       -0.0423
     21 H           5.3182    2.1453   -1.1956 H       1  UNL1        0.0632
     22 H           2.8025    2.0917   -1.1362 H       1  UNL1        0.0629
     23 H           2.3272   -1.2343   -1.0383 H       1  UNL1        0.0629
     24 H           1.5020   -3.0944   -2.4305 H       1  UNL1        0.0618
     25 H          -0.9434   -3.4772   -2.5649 H       1  UNL1        0.0618
     26 H          -2.5313   -2.0087   -1.3160 H       1  UNL1        0.0636
     27 H          -1.3377    1.9642    0.7205 H       1  UNL1        0.0476
     28 H          -1.6740    1.7306   -1.0086 H       1  UNL1        0.0476
     29 H          -3.6581    2.7469   -0.3678 H       1  UNL1        0.0439
     30 H          -3.5888    2.1961    1.3237 H       1  UNL1        0.0439
     31 H          -5.3390    1.2463    0.2516 H       1  UNL1        0.1220
     32 H          -4.9372   -0.4727    1.5384 H       1  UNL1        0.0439
     33 H          -4.4055   -1.2138   -0.0136 H       1  UNL1        0.0439
     34 H          -2.6880    0.0007    2.2015 H       1  UNL1        0.0476
     35 H          -2.5718   -1.6091    1.3677 H       1  UNL1        0.0476
     36 H           2.8926   -0.5010    2.1943 H       1  UNL1        0.0629
     37 H           5.4087   -0.4618    2.1534 H       1  UNL1        0.0632
@<TRIPOS>BOND
     1     1     2    1
     2     2     3   ar
     3     3     4   ar
     4     4     5   ar
     5     5     6    1
     6     6     7    1
     7     7     8   ar
     8     8     9   ar
     9     9    10   ar
    10    10    11   ar
    11    11    12   ar
    12    12    13    1
    13    13    14    1
    14    14    15    1
    15    15    16    1
    16    16    17    1
    17    17    18    1
    18     5    19   ar
    19    19    20   ar
    20    20     2   ar
    21    12     7   ar
    22    18    13    1
    23     3    21    1
    24     4    22    1
    25     8    23    1
    26     9    24    1
    27    10    25    1
    28    11    26    1
    29    14    27    1
    30    14    28    1
    31    15    29    1
    32    15    30    1
    33    16    31    1
    34    17    32    1
    35    17    33    1
    36    18    34    1
    37    18    35    1
    38    19    36    1
    39    20    37    1
