
     RDKit          3D

 70 75  0  0  0  0  0  0  0  0999 V2000
   -2.4402    7.2130    1.9826 C   0  0  0  0  0  0  0  0  0  0  0  0
   -1.7907    5.9829    1.8837 O   0  0  0  0  0  0  0  0  0  0  0  0
   -1.6427    5.2522    0.7399 C   0  0  0  0  0  0  0  0  0  0  0  0
   -0.9923    4.0342    0.6751 C   0  0  0  0  0  0  0  0  0  0  0  0
   -0.8684    3.3330   -0.5055 C   0  0  0  0  0  0  0  0  0  0  0  0
   -0.2046    2.1034   -0.5368 N   0  0  0  0  0  0  0  0  0  0  0  0
    1.2093    1.9483   -0.7808 C   0  0  0  0  0  0  0  0  0  0  0  0
    1.9490    2.7977   -1.3296 O   0  0  0  0  0  0  0  0  0  0  0  0
    1.6328    0.6761   -0.2992 N   0  0  0  0  0  0  0  0  0  0  0  0
    2.9372    0.0924   -0.3207 C   0  0  0  0  0  0  0  0  0  0  0  0
    3.1548   -1.1896    0.1355 C   0  0  0  0  0  0  0  0  0  0  0  0
    4.4309   -1.7373    0.1151 C   0  0  0  0  0  0  0  0  0  0  0  0
    5.5140   -1.0244   -0.3582 C   0  0  0  0  0  0  0  0  0  0  0  0
    6.8396   -1.6557   -0.3560 C   0  0  0  0  0  0  0  0  0  0  0  0
    7.8770   -1.4602   -1.2194 C   0  0  0  0  0  0  0  0  0  0  0  0
    8.8834   -2.2348   -0.8483 O   0  0  0  0  0  0  0  0  0  0  0  0
    8.5600   -2.9267    0.2118 C   0  0  0  0  0  0  0  0  0  0  0  0
    9.4129   -3.8808    0.8992 C   0  0  0  0  0  0  0  0  0  0  0  0
   10.5875   -4.1046    0.4791 O   0  0  0  0  0  0  0  0  0  0  0  0
    8.9816   -4.5696    2.0203 O   0  0  0  0  0  0  0  0  0  0  0  0
    7.2728   -2.5954    0.5637 C   0  0  0  0  0  0  0  0  0  0  0  0
    5.3072    0.2581   -0.8169 C   0  0  0  0  0  0  0  0  0  0  0  0
    4.0102    0.7987   -0.7896 C   0  0  0  0  0  0  0  0  0  0  0  0
    0.4891    0.0582    0.2365 C   0  0  0  0  0  0  0  0  0  0  0  0
    0.4440   -0.8951    1.0385 O   0  0  0  0  0  0  0  0  0  0  0  0
   -0.7045    0.7800   -0.3510 C   0  0  0  0  0  0  0  0  0  0  0  0
   -1.2063    0.1156   -1.5888 C   0  0  0  0  0  0  0  0  0  0  0  0
   -2.7100    0.2857   -1.6759 C   0  0  0  0  0  0  0  0  0  0  0  0
   -3.3962   -0.4634   -0.6412 N   0  0  0  0  0  0  0  0  0  0  0  0
   -3.8542   -1.6958   -1.2053 C   0  0  0  0  0  0  0  0  0  0  0  0
   -4.5657   -2.5619   -0.2615 C   0  0  0  0  0  0  0  0  0  0  0  0
   -3.9264   -3.6345    0.2341 N   0  0  0  0  0  0  0  0  0  0  0  0
   -4.4735   -4.4953    1.1019 C   0  0  0  0  0  0  0  0  0  0  0  0
   -5.7700   -4.2742    1.5159 C   0  0  0  0  0  0  0  0  0  0  0  0
   -6.4447   -3.1799    1.0201 C   0  0  0  0  0  0  0  0  0  0  0  0
   -5.8710   -2.3006    0.1272 C   0  0  0  0  0  0  0  0  0  0  0  0
   -6.5640   -1.1208   -0.4224 C   0  0  0  0  0  0  0  0  0  0  0  0
   -2.4946   -0.6381    0.4812 C   0  0  0  0  0  0  0  0  0  0  0  0
   -1.7850    0.6999    0.7090 C   0  0  0  0  0  0  0  0  0  0  0  0
   -1.4062    3.8754   -1.6088 N   0  0  0  0  0  0  0  0  0  0  0  0
   -2.0477    5.0603   -1.5857 C   0  0  0  0  0  0  0  0  0  0  0  0
   -2.1491    5.7163   -0.4150 N   0  0  0  0  0  0  0  0  0  0  0  0
   -3.5285    7.0282    1.7894 H   0  0  0  0  0  0  0  0  0  0  0  0
   -2.2920    7.5817    3.0349 H   0  0  0  0  0  0  0  0  0  0  0  0
   -2.0653    7.9344    1.2562 H   0  0  0  0  0  0  0  0  0  0  0  0
   -0.5650    3.6184    1.5890 H   0  0  0  0  0  0  0  0  0  0  0  0
    2.3854   -1.8357    0.5197 H   0  0  0  0  0  0  0  0  0  0  0  0
    4.6160   -2.7442    0.4710 H   0  0  0  0  0  0  0  0  0  0  0  0
    7.8941   -0.7899   -2.0699 H   0  0  0  0  0  0  0  0  0  0  0  0
    9.2473   -5.5575    2.1419 H   0  0  0  0  0  0  0  0  0  0  0  0
    6.7108   -2.9895    1.3925 H   0  0  0  0  0  0  0  0  0  0  0  0
    6.1429    0.8345   -1.1923 H   0  0  0  0  0  0  0  0  0  0  0  0
    3.9419    1.8000   -1.1634 H   0  0  0  0  0  0  0  0  0  0  0  0
   -0.7472    0.5091   -2.5124 H   0  0  0  0  0  0  0  0  0  0  0  0
   -1.0188   -0.9896   -1.5874 H   0  0  0  0  0  0  0  0  0  0  0  0
   -3.0046    1.3549   -1.6745 H   0  0  0  0  0  0  0  0  0  0  0  0
   -3.0033   -0.1091   -2.6784 H   0  0  0  0  0  0  0  0  0  0  0  0
   -2.9799   -2.2411   -1.6115 H   0  0  0  0  0  0  0  0  0  0  0  0
   -4.5384   -1.4292   -2.0476 H   0  0  0  0  0  0  0  0  0  0  0  0
   -3.9465   -5.3566    1.4940 H   0  0  0  0  0  0  0  0  0  0  0  0
   -6.2639   -4.9351    2.2150 H   0  0  0  0  0  0  0  0  0  0  0  0
   -7.4795   -2.9535    1.3145 H   0  0  0  0  0  0  0  0  0  0  0  0
   -6.5365   -1.0830   -1.5318 H   0  0  0  0  0  0  0  0  0  0  0  0
   -6.2416   -0.1701    0.0447 H   0  0  0  0  0  0  0  0  0  0  0  0
   -7.6509   -1.2310   -0.1593 H   0  0  0  0  0  0  0  0  0  0  0  0
   -3.0434   -0.9425    1.4060 H   0  0  0  0  0  0  0  0  0  0  0  0
   -1.8046   -1.4466    0.2371 H   0  0  0  0  0  0  0  0  0  0  0  0
   -2.5542    1.4723    0.5852 H   0  0  0  0  0  0  0  0  0  0  0  0
   -1.3951    0.7784    1.7332 H   0  0  0  0  0  0  0  0  0  0  0  0
   -2.4647    5.4495   -2.5180 H   0  0  0  0  0  0  0  0  0  0  0  0
  1  2  1  0
  2  3  1  0
  3  4  2  0
  4  5  1  0
  5  6  1  0
  6  7  1  0
  7  8  2  0
  7  9  1  0
  9 10  1  0
 10 11  2  0
 11 12  1  0
 12 13  2  0
 13 14  1  0
 14 15  2  0
 15 16  1  0
 16 17  1  0
 17 18  1  0
 18 19  2  0
 18 20  1  0
 17 21  2  0
 13 22  1  0
 22 23  2  0
  9 24  1  0
 24 25  2  0
 24 26  1  0
 26 27  1  0
 27 28  1  0
 28 29  1  0
 29 30  1  0
 30 31  1  0
 31 32  2  0
 32 33  1  0
 33 34  2  0
 34 35  1  0
 35 36  2  0
 36 37  1  0
 29 38  1  0
 38 39  1  0
  5 40  2  0
 40 41  1  0
 41 42  2  0
 42  3  1  0
 26  6  1  0
 36 31  1  0
 23 10  1  0
 39 26  1  0
 21 14  1  0
  1 43  1  0
  1 44  1  0
  1 45  1  0
  4 46  1  0
 11 47  1  0
 12 48  1  0
 15 49  1  0
 20 50  1  0
 21 51  1  0
 22 52  1  0
 23 53  1  0
 27 54  1  0
 27 55  1  0
 28 56  1  0
 28 57  1  0
 30 58  1  0
 30 59  1  0
 33 60  1  0
 34 61  1  0
 35 62  1  0
 37 63  1  0
 37 64  1  0
 37 65  1  0
 38 66  1  0
 38 67  1  0
 39 68  1  0
 39 69  1  0
 41 70  1  0
M  END
$$$$
