@<TRIPOS>MOLECULE
*****
 70 75 0 0 0
SMALL
GASTEIGER

@<TRIPOS>ATOM
      1 C          -2.4402    7.2130    1.9826 C.3     1  UNL1        0.0804
      2 O          -1.7907    5.9829    1.8837 O.3     1  UNL1       -0.4795
      3 C          -1.6427    5.2522    0.7399 C.ar    1  UNL1        0.2191
      4 C          -0.9923    4.0342    0.6751 C.ar    1  UNL1        0.0404
      5 C          -0.8684    3.3330   -0.5055 C.ar    1  UNL1        0.1364
      6 N          -0.2046    2.1034   -0.5368 N.am    1  UNL1       -0.2240
      7 C           1.2093    1.9483   -0.7808 C.2     1  UNL1        0.3219
      8 O           1.9490    2.7977   -1.3296 O.2     1  UNL1       -0.2512
      9 N           1.6328    0.6761   -0.2992 N.am    1  UNL1       -0.1920
     10 C           2.9372    0.0924   -0.3207 C.ar    1  UNL1        0.0455
     11 C           3.1548   -1.1896    0.1355 C.ar    1  UNL1       -0.0392
     12 C           4.4309   -1.7373    0.1151 C.ar    1  UNL1       -0.0522
     13 C           5.5140   -1.0244   -0.3582 C.ar    1  UNL1       -0.0147
     14 C           6.8396   -1.6557   -0.3560 C.ar    1  UNL1        0.0207
     15 C           7.8770   -1.4602   -1.2194 C.ar    1  UNL1        0.1006
     16 O           8.8834   -2.2348   -0.8483 O.2     1  UNL1       -0.4557
     17 C           8.5600   -2.9267    0.2118 C.ar    1  UNL1        0.2116
     18 C           9.4129   -3.8808    0.8992 C.2     1  UNL1        0.3725
     19 O          10.5875   -4.1046    0.4791 O.2     1  UNL1       -0.2417
     20 O           8.9816   -4.5696    2.0203 O.3     1  UNL1       -0.4750
     21 C           7.2728   -2.5954    0.5637 C.ar    1  UNL1       -0.0016
     22 C           5.3072    0.2581   -0.8169 C.ar    1  UNL1       -0.0522
     23 C           4.0102    0.7987   -0.7896 C.ar    1  UNL1       -0.0392
     24 C           0.4891    0.0582    0.2365 C.2     1  UNL1        0.2516
     25 O           0.4440   -0.8951    1.0385 O.2     1  UNL1       -0.2724
     26 C          -0.7045    0.7800   -0.3510 C.3     1  UNL1        0.1240
     27 C          -1.2063    0.1156   -1.5888 C.3     1  UNL1       -0.0095
     28 C          -2.7100    0.2857   -1.6759 C.3     1  UNL1        0.0017
     29 N          -3.3962   -0.4634   -0.6412 N.3     1  UNL1       -0.2965
     30 C          -3.8542   -1.6958   -1.2053 C.3     1  UNL1        0.0415
     31 C          -4.5657   -2.5619   -0.2615 C.ar    1  UNL1        0.0581
     32 N          -3.9264   -3.6345    0.2341 N.ar    1  UNL1       -0.2583
     33 C          -4.4735   -4.4953    1.1019 C.ar    1  UNL1        0.0279
     34 C          -5.7700   -4.2742    1.5159 C.ar    1  UNL1       -0.0433
     35 C          -6.4447   -3.1799    1.0201 C.ar    1  UNL1       -0.0557
     36 C          -5.8710   -2.3006    0.1272 C.ar    1  UNL1       -0.0279
     37 C          -6.5640   -1.1208   -0.4224 C.3     1  UNL1       -0.0380
     38 C          -2.4946   -0.6381    0.4812 C.3     1  UNL1        0.0017
     39 C          -1.7850    0.6999    0.7090 C.3     1  UNL1       -0.0095
     40 N          -1.4062    3.8754   -1.6088 N.ar    1  UNL1       -0.2200
     41 C          -2.0477    5.0603   -1.5857 C.ar    1  UNL1        0.1219
     42 N          -2.1491    5.7163   -0.4150 N.ar    1  UNL1       -0.2013
     43 H          -3.5285    7.0282    1.7894 H       1  UNL1        0.0660
     44 H          -2.2920    7.5817    3.0349 H       1  UNL1        0.0660
     45 H          -2.0653    7.9344    1.2562 H       1  UNL1        0.0660
     46 H          -0.5650    3.6184    1.5890 H       1  UNL1        0.0705
     47 H           2.3854   -1.8357    0.5197 H       1  UNL1        0.0636
     48 H           4.6160   -2.7442    0.4710 H       1  UNL1        0.0624
     49 H           7.8941   -0.7899   -2.0699 H       1  UNL1        0.1036
     50 H           9.2473   -5.5575    2.1419 H       1  UNL1        0.2955
     51 H           6.7108   -2.9895    1.3925 H       1  UNL1        0.0664
     52 H           6.1429    0.8345   -1.1923 H       1  UNL1        0.0624
     53 H           3.9419    1.8000   -1.1634 H       1  UNL1        0.0636
     54 H          -0.7472    0.5091   -2.5124 H       1  UNL1        0.0303
     55 H          -1.0188   -0.9896   -1.5874 H       1  UNL1        0.0303
     56 H          -3.0046    1.3549   -1.6745 H       1  UNL1        0.0427
     57 H          -3.0033   -0.1091   -2.6784 H       1  UNL1        0.0427
     58 H          -2.9799   -2.2411   -1.6115 H       1  UNL1        0.0491
     59 H          -4.5384   -1.4292   -2.0476 H       1  UNL1        0.0491
     60 H          -3.9465   -5.3566    1.4940 H       1  UNL1        0.0829
     61 H          -6.2639   -4.9351    2.2150 H       1  UNL1        0.0633
     62 H          -7.4795   -2.9535    1.3145 H       1  UNL1        0.0621
     63 H          -6.5365   -1.0830   -1.5318 H       1  UNL1        0.0278
     64 H          -6.2416   -0.1701    0.0447 H       1  UNL1        0.0278
     65 H          -7.6509   -1.2310   -0.1593 H       1  UNL1        0.0278
     66 H          -3.0434   -0.9425    1.4060 H       1  UNL1        0.0427
     67 H          -1.8046   -1.4466    0.2371 H       1  UNL1        0.0427
     68 H          -2.5542    1.4723    0.5852 H       1  UNL1        0.0303
     69 H          -1.3951    0.7784    1.7332 H       1  UNL1        0.0303
     70 H          -2.4647    5.4495   -2.5180 H       1  UNL1        0.1049
@<TRIPOS>BOND
     1     1     2    1
     2     2     3    1
     3     3     4   ar
     4     4     5   ar
     5     5     6    1
     6     6     7   am
     7     7     8    2
     8     7     9   am
     9     9    10    1
    10    10    11   ar
    11    11    12   ar
    12    12    13   ar
    13    13    14    1
    14    14    15   ar
    15    15    16   ar
    16    16    17   ar
    17    17    18    1
    18    18    19    2
    19    18    20    1
    20    17    21   ar
    21    13    22   ar
    22    22    23   ar
    23     9    24   am
    24    24    25    2
    25    24    26    1
    26    26    27    1
    27    27    28    1
    28    28    29    1
    29    29    30    1
    30    30    31    1
    31    31    32   ar
    32    32    33   ar
    33    33    34   ar
    34    34    35   ar
    35    35    36   ar
    36    36    37    1
    37    29    38    1
    38    38    39    1
    39     5    40   ar
    40    40    41   ar
    41    41    42   ar
    42    42     3   ar
    43    26     6    1
    44    36    31   ar
    45    23    10   ar
    46    39    26    1
    47    21    14   ar
    48     1    43    1
    49     1    44    1
    50     1    45    1
    51     4    46    1
    52    11    47    1
    53    12    48    1
    54    15    49    1
    55    20    50    1
    56    21    51    1
    57    22    52    1
    58    23    53    1
    59    27    54    1
    60    27    55    1
    61    28    56    1
    62    28    57    1
    63    30    58    1
    64    30    59    1
    65    33    60    1
    66    34    61    1
    67    35    62    1
    68    37    63    1
    69    37    64    1
    70    37    65    1
    71    38    66    1
    72    38    67    1
    73    39    68    1
    74    39    69    1
    75    41    70    1
