@<TRIPOS>MOLECULE
*****
 63 68 0 0 0
SMALL
GASTEIGER

@<TRIPOS>ATOM
      1 O           1.3036    2.2508   -0.4596 O.2     1  UNL1       -0.2696
      2 C           0.6644    1.2111   -0.1872 C.2     1  UNL1        0.2529
      3 N           1.3451   -0.0187    0.0290 N.am    1  UNL1       -0.3075
      4 C           2.7874   -0.1078   -0.0579 C.3     1  UNL1        0.0293
      5 C           3.4110   -0.5159    1.2464 C.3     1  UNL1       -0.0195
      6 C           3.1417   -1.9650    1.5529 C.3     1  UNL1       -0.0455
      7 C           3.7137   -2.8398    0.4464 C.3     1  UNL1       -0.0378
      8 C           3.0147   -2.4763   -0.8420 C.3     1  UNL1       -0.0455
      9 C           3.2520   -1.0340   -1.1521 C.3     1  UNL1       -0.0195
     10 C           4.7436   -0.8300   -1.3090 C.3     1  UNL1       -0.0195
     11 C           5.4263   -1.1347   -0.0142 C.3     1  UNL1        0.0670
     12 O           6.7963   -0.9214   -0.1447 O.3     1  UNL1       -0.3885
     13 C           5.1815   -2.5845    0.3334 C.3     1  UNL1       -0.0211
     14 C           4.9046   -0.2992    1.1240 C.3     1  UNL1       -0.0195
     15 C          -0.7471    1.2294   -0.0871 C.ar    1  UNL1        0.1025
     16 S          -1.8330   -0.1406    0.2890 S.2     1  UNL1       -0.0244
     17 C          -3.3927    0.9161    0.1731 C.ar    1  UNL1        0.2575
     18 O          -4.6332    0.3238    0.3916 O.3     1  UNL1       -0.4679
     19 C          -4.7650   -1.0546    0.7003 C.3     1  UNL1        0.1065
     20 C          -5.4910   -1.1976    2.0249 C.3     1  UNL1        0.0079
     21 C          -6.2698   -2.5090    1.9991 C.3     1  UNL1        0.0510
     22 O          -5.5705   -3.4815    1.3119 O.3     1  UNL1       -0.3795
     23 C          -5.5646   -3.2441   -0.0595 C.3     1  UNL1        0.0510
     24 C          -5.6212   -1.7494   -0.3408 C.3     1  UNL1        0.0079
     25 N          -2.9121    1.9805   -0.0926 N.ar    1  UNL1       -0.2076
     26 C          -1.6749    2.3022   -0.2523 C.ar    1  UNL1        0.0931
     27 C          -1.1475    3.6663   -0.5819 C.3     1  UNL1        0.1018
     28 C          -0.9872    3.8910   -2.0614 C.3     1  UNL1       -0.0189
     29 C          -0.9026    5.4227   -2.1156 C.3     1  UNL1       -0.0267
     30 C          -1.4216    5.7998   -0.7368 C.3     1  UNL1        0.0486
     31 O          -2.0851    4.6556   -0.2564 O.3     1  UNL1       -0.3704
     32 H           0.8102   -0.8848    0.2560 H       1  UNL1        0.1493
     33 H           3.2157    0.9044   -0.3083 H       1  UNL1        0.0504
     34 H           2.9744    0.0967    2.0545 H       1  UNL1        0.0320
     35 H           2.0606   -2.1531    1.6014 H       1  UNL1        0.0271
     36 H           3.5931   -2.2328    2.5213 H       1  UNL1        0.0271
     37 H           3.5201   -3.9001    0.6675 H       1  UNL1        0.0302
     38 H           3.4852   -3.0780   -1.6441 H       1  UNL1        0.0271
     39 H           1.9442   -2.7222   -0.7869 H       1  UNL1        0.0271
     40 H           2.7695   -0.7671   -2.1115 H       1  UNL1        0.0320
     41 H           4.9124    0.2103   -1.6426 H       1  UNL1        0.0296
     42 H           5.1033   -1.5200   -2.0841 H       1  UNL1        0.0296
     43 H           7.0556   -0.0809    0.2781 H       1  UNL1        0.2102
     44 H           5.6126   -3.2864   -0.3968 H       1  UNL1        0.0296
     45 H           5.6424   -2.7659    1.3329 H       1  UNL1        0.0296
     46 H           5.4056   -0.6011    2.0581 H       1  UNL1        0.0296
     47 H           5.0631    0.7659    0.8596 H       1  UNL1        0.0296
     48 H          -3.8018   -1.5687    0.7420 H       1  UNL1        0.0735
     49 H          -6.2757   -0.3983    2.1349 H       1  UNL1        0.0323
     50 H          -4.8303   -1.1289    2.8913 H       1  UNL1        0.0323
     51 H          -6.4204   -2.8392    3.0318 H       1  UNL1        0.0561
     52 H          -7.2375   -2.3383    1.4890 H       1  UNL1        0.0561
     53 H          -4.6783   -3.7061   -0.4990 H       1  UNL1        0.0561
     54 H          -6.4852   -3.7029   -0.5233 H       1  UNL1        0.0561
     55 H          -6.6513   -1.4037   -0.2478 H       1  UNL1        0.0323
     56 H          -5.2110   -1.5455   -1.3406 H       1  UNL1        0.0323
     57 H          -0.2304    3.9298   -0.0726 H       1  UNL1        0.0662
     58 H          -0.0971    3.4442   -2.5004 H       1  UNL1        0.0295
     59 H          -1.9283    3.5465   -2.5615 H       1  UNL1        0.0295
     60 H          -1.5233    5.8388   -2.9201 H       1  UNL1        0.0288
     61 H           0.1768    5.6715   -2.2200 H       1  UNL1        0.0288
     62 H          -2.0968    6.6595   -0.8406 H       1  UNL1        0.0560
     63 H          -0.5442    6.0111   -0.0892 H       1  UNL1        0.0560
@<TRIPOS>BOND
     1     1     2    2
     2     2     3   am
     3     3     4    1
     4     4     5    1
     5     5     6    1
     6     6     7    1
     7     7     8    1
     8     8     9    1
     9     9    10    1
    10    10    11    1
    11    11    12    1
    12    11    13    1
    13    11    14    1
    14     2    15    1
    15    15    16   ar
    16    16    17   ar
    17    17    18    1
    18    18    19    1
    19    19    20    1
    20    20    21    1
    21    21    22    1
    22    22    23    1
    23    23    24    1
    24    17    25   ar
    25    25    26   ar
    26    26    27    1
    27    27    28    1
    28    28    29    1
    29    29    30    1
    30    30    31    1
    31     9     4    1
    32    26    15   ar
    33    31    27    1
    34    14     5    1
    35    24    19    1
    36    13     7    1
    37     3    32    1
    38     4    33    1
    39     5    34    1
    40     6    35    1
    41     6    36    1
    42     7    37    1
    43     8    38    1
    44     8    39    1
    45     9    40    1
    46    10    41    1
    47    10    42    1
    48    12    43    1
    49    13    44    1
    50    13    45    1
    51    14    46    1
    52    14    47    1
    53    19    48    1
    54    20    49    1
    55    20    50    1
    56    21    51    1
    57    21    52    1
    58    23    53    1
    59    23    54    1
    60    24    55    1
    61    24    56    1
    62    27    57    1
    63    28    58    1
    64    28    59    1
    65    29    60    1
    66    29    61    1
    67    30    62    1
    68    30    63    1
