
     RDKit          3D

 63 68  0  0  0  0  0  0  0  0999 V2000
    1.3036    2.2508   -0.4596 O   0  0  0  0  0  0  0  0  0  0  0  0
    0.6644    1.2111   -0.1872 C   0  0  0  0  0  0  0  0  0  0  0  0
    1.3451   -0.0187    0.0290 N   0  0  0  0  0  0  0  0  0  0  0  0
    2.7874   -0.1078   -0.0579 C   0  0  1  0  0  0  0  0  0  0  0  0
    3.4110   -0.5159    1.2464 C   0  0  0  0  0  0  0  0  0  0  0  0
    3.1417   -1.9650    1.5529 C   0  0  0  0  0  0  0  0  0  0  0  0
    3.7137   -2.8398    0.4464 C   0  0  0  0  0  0  0  0  0  0  0  0
    3.0147   -2.4763   -0.8420 C   0  0  0  0  0  0  0  0  0  0  0  0
    3.2520   -1.0340   -1.1521 C   0  0  0  0  0  0  0  0  0  0  0  0
    4.7436   -0.8300   -1.3090 C   0  0  0  0  0  0  0  0  0  0  0  0
    5.4263   -1.1347   -0.0142 C   0  0  2  0  0  0  0  0  0  0  0  0
    6.7963   -0.9214   -0.1447 O   0  0  0  0  0  0  0  0  0  0  0  0
    5.1815   -2.5845    0.3334 C   0  0  0  0  0  0  0  0  0  0  0  0
    4.9046   -0.2992    1.1240 C   0  0  0  0  0  0  0  0  0  0  0  0
   -0.7471    1.2294   -0.0871 C   0  0  0  0  0  0  0  0  0  0  0  0
   -1.8330   -0.1406    0.2890 S   0  0  0  0  0  0  0  0  0  0  0  0
   -3.3927    0.9161    0.1731 C   0  0  0  0  0  0  0  0  0  0  0  0
   -4.6332    0.3238    0.3916 O   0  0  0  0  0  0  0  0  0  0  0  0
   -4.7650   -1.0546    0.7003 C   0  0  0  0  0  0  0  0  0  0  0  0
   -5.4910   -1.1976    2.0249 C   0  0  0  0  0  0  0  0  0  0  0  0
   -6.2698   -2.5090    1.9991 C   0  0  0  0  0  0  0  0  0  0  0  0
   -5.5705   -3.4815    1.3119 O   0  0  0  0  0  0  0  0  0  0  0  0
   -5.5646   -3.2441   -0.0595 C   0  0  0  0  0  0  0  0  0  0  0  0
   -5.6212   -1.7494   -0.3408 C   0  0  0  0  0  0  0  0  0  0  0  0
   -2.9121    1.9805   -0.0926 N   0  0  0  0  0  0  0  0  0  0  0  0
   -1.6749    2.3022   -0.2523 C   0  0  0  0  0  0  0  0  0  0  0  0
   -1.1475    3.6663   -0.5819 C   0  0  1  0  0  0  0  0  0  0  0  0
   -0.9872    3.8910   -2.0614 C   0  0  0  0  0  0  0  0  0  0  0  0
   -0.9026    5.4227   -2.1156 C   0  0  0  0  0  0  0  0  0  0  0  0
   -1.4216    5.7998   -0.7368 C   0  0  0  0  0  0  0  0  0  0  0  0
   -2.0851    4.6556   -0.2564 O   0  0  0  0  0  0  0  0  0  0  0  0
    0.8102   -0.8848    0.2560 H   0  0  0  0  0  0  0  0  0  0  0  0
    3.2157    0.9044   -0.3083 H   0  0  0  0  0  0  0  0  0  0  0  0
    2.9744    0.0967    2.0545 H   0  0  0  0  0  0  0  0  0  0  0  0
    2.0606   -2.1531    1.6014 H   0  0  0  0  0  0  0  0  0  0  0  0
    3.5931   -2.2328    2.5213 H   0  0  0  0  0  0  0  0  0  0  0  0
    3.5201   -3.9001    0.6675 H   0  0  0  0  0  0  0  0  0  0  0  0
    3.4852   -3.0780   -1.6441 H   0  0  0  0  0  0  0  0  0  0  0  0
    1.9442   -2.7222   -0.7869 H   0  0  0  0  0  0  0  0  0  0  0  0
    2.7695   -0.7671   -2.1115 H   0  0  0  0  0  0  0  0  0  0  0  0
    4.9124    0.2103   -1.6426 H   0  0  0  0  0  0  0  0  0  0  0  0
    5.1033   -1.5200   -2.0841 H   0  0  0  0  0  0  0  0  0  0  0  0
    7.0556   -0.0809    0.2781 H   0  0  0  0  0  0  0  0  0  0  0  0
    5.6126   -3.2864   -0.3968 H   0  0  0  0  0  0  0  0  0  0  0  0
    5.6424   -2.7659    1.3329 H   0  0  0  0  0  0  0  0  0  0  0  0
    5.4056   -0.6011    2.0581 H   0  0  0  0  0  0  0  0  0  0  0  0
    5.0631    0.7659    0.8596 H   0  0  0  0  0  0  0  0  0  0  0  0
   -3.8018   -1.5687    0.7420 H   0  0  0  0  0  0  0  0  0  0  0  0
   -6.2757   -0.3983    2.1349 H   0  0  0  0  0  0  0  0  0  0  0  0
   -4.8303   -1.1289    2.8913 H   0  0  0  0  0  0  0  0  0  0  0  0
   -6.4204   -2.8392    3.0318 H   0  0  0  0  0  0  0  0  0  0  0  0
   -7.2375   -2.3383    1.4890 H   0  0  0  0  0  0  0  0  0  0  0  0
   -4.6783   -3.7061   -0.4990 H   0  0  0  0  0  0  0  0  0  0  0  0
   -6.4852   -3.7029   -0.5233 H   0  0  0  0  0  0  0  0  0  0  0  0
   -6.6513   -1.4037   -0.2478 H   0  0  0  0  0  0  0  0  0  0  0  0
   -5.2110   -1.5455   -1.3406 H   0  0  0  0  0  0  0  0  0  0  0  0
   -0.2304    3.9298   -0.0726 H   0  0  0  0  0  0  0  0  0  0  0  0
   -0.0971    3.4442   -2.5004 H   0  0  0  0  0  0  0  0  0  0  0  0
   -1.9283    3.5465   -2.5615 H   0  0  0  0  0  0  0  0  0  0  0  0
   -1.5233    5.8388   -2.9201 H   0  0  0  0  0  0  0  0  0  0  0  0
    0.1768    5.6715   -2.2200 H   0  0  0  0  0  0  0  0  0  0  0  0
   -2.0968    6.6595   -0.8406 H   0  0  0  0  0  0  0  0  0  0  0  0
   -0.5442    6.0111   -0.0892 H   0  0  0  0  0  0  0  0  0  0  0  0
  1  2  2  0
  2  3  1  0
  3  4  1  0
  4  5  1  0
  5  6  1  0
  6  7  1  0
  7  8  1  0
  8  9  1  0
  9 10  1  0
 10 11  1  0
 11 12  1  6
 11 13  1  0
 11 14  1  0
  2 15  1  0
 15 16  1  0
 16 17  1  0
 17 18  1  0
 18 19  1  0
 19 20  1  0
 20 21  1  0
 21 22  1  0
 22 23  1  0
 23 24  1  0
 17 25  2  0
 25 26  1  0
 26 27  1  0
 27 28  1  0
 28 29  1  0
 29 30  1  0
 30 31  1  0
  9  4  1  0
 26 15  2  0
 31 27  1  0
 14  5  1  0
 24 19  1  0
 13  7  1  0
  3 32  1  0
  4 33  1  6
  5 34  1  0
  6 35  1  0
  6 36  1  0
  7 37  1  0
  8 38  1  0
  8 39  1  0
  9 40  1  0
 10 41  1  0
 10 42  1  0
 12 43  1  0
 13 44  1  0
 13 45  1  0
 14 46  1  0
 14 47  1  0
 19 48  1  0
 20 49  1  0
 20 50  1  0
 21 51  1  0
 21 52  1  0
 23 53  1  0
 23 54  1  0
 24 55  1  0
 24 56  1  0
 27 57  1  1
 28 58  1  0
 28 59  1  0
 29 60  1  0
 29 61  1  0
 30 62  1  0
 30 63  1  0
M  END
$$$$
