@<TRIPOS>MOLECULE
*****
 36 39 0 0 0
SMALL
GASTEIGER

@<TRIPOS>ATOM
      1 C           0.4350    0.0439    1.2197 C.3     1  UNL1        0.0304
      2 N          -0.2872    1.0795    1.9586 N.3     1  UNL1       -0.3253
      3 C          -0.6091   -1.0646    1.0494 C.3     1  UNL1        0.0407
      4 N          -1.6420   -0.5488    0.1812 N.ar    1  UNL1       -0.3259
      5 C          -1.2471   -0.0001   -0.9968 C.ar    1  UNL1        0.1115
      6 C           0.2288    0.0262   -1.3008 C.3     1  UNL1        0.0140
      7 C           0.9789    0.5383   -0.0689 C.3     1  UNL1        0.0106
      8 C           2.4114    0.3492   -0.2900 C.ar    1  UNL1       -0.0043
      9 C           3.2081    1.3429   -0.8557 C.ar    1  UNL1       -0.0174
     10 C           4.5649    1.2510   -1.0985 C.ar    1  UNL1        0.1588
     11 F           5.2077    2.3061   -1.6572 F       1  UNL1       -0.2025
     12 C           5.1939    0.0800   -0.7554 C.ar    1  UNL1        0.1611
     13 F           6.5192    0.0116   -1.0013 F       1  UNL1       -0.2024
     14 C           4.4630   -0.9557   -0.1864 C.ar    1  UNL1        0.0119
     15 C           3.1218   -0.7871    0.0222 C.ar    1  UNL1        0.1298
     16 F           2.4913   -1.8305    0.5712 F       1  UNL1       -0.2051
     17 N          -2.3451    0.4160   -1.6524 N.ar    1  UNL1       -0.2307
     18 C          -3.4465    0.1451   -0.9166 C.ar    1  UNL1        0.1073
     19 C          -2.9897   -0.4701    0.2511 C.ar    1  UNL1        0.0718
     20 C          -3.8855   -0.8792    1.2318 C.ar    1  UNL1       -0.0179
     21 C          -5.2300   -0.6360    0.9683 C.ar    1  UNL1        0.0296
     22 N          -5.6393   -0.0395   -0.1698 N.ar    1  UNL1       -0.2610
     23 C          -4.7951    0.3653   -1.1329 C.ar    1  UNL1        0.0550
     24 H           1.2415   -0.3989    1.8357 H       1  UNL1        0.0482
     25 H          -0.6842    1.8135    1.3604 H       1  UNL1        0.1185
     26 H          -0.8911    0.6954    2.6888 H       1  UNL1        0.1185
     27 H          -0.9820   -1.3217    2.0505 H       1  UNL1        0.0508
     28 H          -0.1999   -1.9580    0.5439 H       1  UNL1        0.0508
     29 H           0.5769   -0.9553   -1.6298 H       1  UNL1        0.0350
     30 H           0.3586    0.7587   -2.1093 H       1  UNL1        0.0350
     31 H           0.8056    1.6543   -0.0808 H       1  UNL1        0.0369
     32 H           2.7139    2.2861   -1.1346 H       1  UNL1        0.0651
     33 H           4.9979   -1.8553    0.0665 H       1  UNL1        0.0676
     34 H          -3.5389   -1.3573    2.1408 H       1  UNL1        0.0654
     35 H          -5.9534   -0.9472    1.7214 H       1  UNL1        0.0830
     36 H          -5.1524    0.8422   -2.0375 H       1  UNL1        0.0852
@<TRIPOS>BOND
     1     1     2    1
     2     1     3    1
     3     3     4    1
     4     4     5   ar
     5     5     6    1
     6     6     7    1
     7     7     8    1
     8     8     9   ar
     9     9    10   ar
    10    10    11    1
    11    10    12   ar
    12    12    13    1
    13    12    14   ar
    14    14    15   ar
    15    15    16    1
    16     5    17   ar
    17    17    18   ar
    18    18    19   ar
    19    19    20   ar
    20    20    21   ar
    21    21    22   ar
    22    22    23   ar
    23     7     1    1
    24    15     8   ar
    25    23    18   ar
    26    19     4   ar
    27     1    24    1
    28     2    25    1
    29     2    26    1
    30     3    27    1
    31     3    28    1
    32     6    29    1
    33     6    30    1
    34     7    31    1
    35     9    32    1
    36    14    33    1
    37    20    34    1
    38    21    35    1
    39    23    36    1
