@<TRIPOS>MOLECULE
*****
 75 79 0 0 0
SMALL
GASTEIGER

@<TRIPOS>ATOM
      1 C           1.2965   -0.1992   -3.7640 C.3     1  UNL1        0.0789
      2 O           0.4876   -0.2888   -2.6039 O.3     1  UNL1       -0.4932
      3 C           1.1177   -0.2931   -1.3660 C.ar    1  UNL1        0.1429
      4 C           2.4869   -0.2136   -1.2457 C.ar    1  UNL1        0.0029
      5 C           3.1294   -0.2163   -0.0365 C.ar    1  UNL1        0.0334
      6 N           4.5437   -0.1403    0.0030 N.pl3   1  UNL1       -0.3274
      7 C           5.2842   -0.1791   -1.2201 C.3     1  UNL1        0.0250
      8 C           6.7052   -0.5674   -0.9229 C.3     1  UNL1        0.0148
      9 N           7.2431    0.2621    0.0771 N.3     1  UNL1       -0.2969
     10 C           8.1904    1.2460   -0.2822 C.3     1  UNL1        0.0248
     11 C           9.4835    0.6031   -0.7199 C.3     1  UNL1        0.0651
     12 C          10.0593   -0.3025    0.3331 C.3     1  UNL1       -0.0377
     13 O          10.3883    1.6370   -1.0589 O.3     1  UNL1       -0.3908
     14 C           6.5681    0.3860    1.3047 C.3     1  UNL1        0.0148
     15 C           5.1402   -0.0225    1.3150 C.3     1  UNL1        0.0250
     16 C           2.3483   -0.3025    1.0838 C.ar    1  UNL1       -0.0387
     17 C           0.9518   -0.3843    0.9833 C.ar    1  UNL1       -0.0351
     18 C           0.3028   -0.3824   -0.2236 C.ar    1  UNL1        0.0759
     19 N          -1.0863   -0.4742   -0.3329 N.pl3   1  UNL1       -0.2795
     20 C          -2.0408   -0.5422    0.7106 C.ar    1  UNL1        0.2377
     21 N          -1.7430   -0.4824    1.9819 N.ar    1  UNL1       -0.2194
     22 C          -2.6430   -0.5517    2.9571 C.ar    1  UNL1        0.0566
     23 C          -3.9609   -0.6949    2.5916 C.ar    1  UNL1        0.0843
     24 C          -5.1207   -0.7981    3.3245 C.ar    1  UNL1       -0.0327
     25 C          -6.2020   -0.9301    2.4517 C.ar    1  UNL1       -0.0336
     26 C          -5.6852   -0.9052    1.1918 C.ar    1  UNL1        0.0752
     27 C          -6.3359   -0.9929   -0.1038 C.ar    1  UNL1        0.0230
     28 C          -5.8363   -1.9112   -1.0568 C.ar    1  UNL1       -0.0507
     29 C          -6.4107   -1.9818   -2.2891 C.ar    1  UNL1       -0.0610
     30 C          -7.4716   -1.1820   -2.6427 C.ar    1  UNL1       -0.0599
     31 C          -7.9432   -0.2976   -1.7066 C.ar    1  UNL1       -0.0385
     32 C          -7.3837   -0.1894   -0.4248 C.ar    1  UNL1        0.0597
     33 N          -7.9372    0.7451    0.4637 N.pl3   1  UNL1       -0.2100
     34 C          -9.0412    0.4187    1.3227 C.3     1  UNL1        0.0232
     35 S          -7.3040    2.3447    0.4942 S.O2    1  UNL1        0.0424
     36 C          -5.5895    2.3592    0.9590 C.3     1  UNL1        0.0738
     37 O          -7.3601    2.8545   -0.9396 O.2     1  UNL1       -0.1553
     38 O          -8.1173    3.2753    1.3133 O.2     1  UNL1       -0.1553
     39 N          -4.3239   -0.7624    1.2832 N.ar    1  UNL1       -0.2274
     40 N          -3.3662   -0.6850    0.3927 N.ar    1  UNL1       -0.1295
     41 H           2.0751   -1.0092   -3.7148 H       1  UNL1        0.0660
     42 H           0.6992   -0.3862   -4.6848 H       1  UNL1        0.0660
     43 H           1.7756    0.7997   -3.8474 H       1  UNL1        0.0660
     44 H           3.0887   -0.1412   -2.1689 H       1  UNL1        0.0673
     45 H           5.1938    0.7833   -1.7484 H       1  UNL1        0.0476
     46 H           4.8976   -0.9731   -1.9234 H       1  UNL1        0.0476
     47 H           7.3387   -0.5230   -1.8300 H       1  UNL1        0.0442
     48 H           6.6845   -1.6133   -0.5517 H       1  UNL1        0.0442
     49 H           8.3465    1.9508    0.5661 H       1  UNL1        0.0452
     50 H           7.8681    1.8926   -1.1315 H       1  UNL1        0.0452
     51 H           9.2815   -0.0147   -1.6088 H       1  UNL1        0.0603
     52 H          11.1127   -0.5344    0.0681 H       1  UNL1        0.0255
     53 H           9.5129   -1.2811    0.2412 H       1  UNL1        0.0255
     54 H           9.9670    0.0950    1.3441 H       1  UNL1        0.0255
     55 H          10.3677    2.2659   -0.2844 H       1  UNL1        0.2098
     56 H           7.1080   -0.2523    2.0637 H       1  UNL1        0.0442
     57 H           6.7045    1.4335    1.6995 H       1  UNL1        0.0442
     58 H           4.9628   -0.9755    1.8503 H       1  UNL1        0.0476
     59 H           4.5529    0.7820    1.8455 H       1  UNL1        0.0476
     60 H           2.8445   -0.3057    2.0479 H       1  UNL1        0.0637
     61 H           0.4533   -0.4495    1.9397 H       1  UNL1        0.0638
     62 H          -1.4548   -0.4946   -1.3479 H       1  UNL1        0.1552
     63 H          -2.3138   -0.4943    3.9788 H       1  UNL1        0.0852
     64 H          -5.1422   -0.7753    4.4087 H       1  UNL1        0.0640
     65 H          -7.2028   -1.0358    2.8200 H       1  UNL1        0.0640
     66 H          -5.0012   -2.5379   -0.7727 H       1  UNL1        0.0625
     67 H          -6.0587   -2.6735   -3.0531 H       1  UNL1        0.0618
     68 H          -7.9161   -1.2586   -3.6414 H       1  UNL1        0.0618
     69 H          -8.7739    0.3493   -1.9403 H       1  UNL1        0.0637
     70 H          -9.1858   -0.6962    1.4162 H       1  UNL1        0.0446
     71 H         -10.0084    0.8132    0.9904 H       1  UNL1        0.0446
     72 H          -8.8939    0.8139    2.3693 H       1  UNL1        0.0446
     73 H          -5.2372    3.4055    1.0639 H       1  UNL1        0.0482
     74 H          -4.9744    1.8972    0.1677 H       1  UNL1        0.0482
     75 H          -5.4963    1.8849    1.9456 H       1  UNL1        0.0482
@<TRIPOS>BOND
     1     1     2    1
     2     2     3    1
     3     3     4   ar
     4     4     5   ar
     5     5     6    1
     6     6     7    1
     7     7     8    1
     8     8     9    1
     9     9    10    1
    10    10    11    1
    11    11    12    1
    12    11    13    1
    13     9    14    1
    14    14    15    1
    15     5    16   ar
    16    16    17   ar
    17    17    18   ar
    18    18    19    1
    19    19    20    1
    20    20    21   ar
    21    21    22   ar
    22    22    23   ar
    23    23    24   ar
    24    24    25   ar
    25    25    26   ar
    26    26    27    1
    27    27    28   ar
    28    28    29   ar
    29    29    30   ar
    30    30    31   ar
    31    31    32   ar
    32    32    33    1
    33    33    34    1
    34    33    35    1
    35    35    36    1
    36    35    37    2
    37    35    38    2
    38    26    39   ar
    39    39    40   ar
    40    18     3   ar
    41    40    20   ar
    42    15     6    1
    43    39    23   ar
    44    32    27   ar
    45     1    41    1
    46     1    42    1
    47     1    43    1
    48     4    44    1
    49     7    45    1
    50     7    46    1
    51     8    47    1
    52     8    48    1
    53    10    49    1
    54    10    50    1
    55    11    51    1
    56    12    52    1
    57    12    53    1
    58    12    54    1
    59    13    55    1
    60    14    56    1
    61    14    57    1
    62    15    58    1
    63    15    59    1
    64    16    60    1
    65    17    61    1
    66    19    62    1
    67    22    63    1
    68    24    64    1
    69    25    65    1
    70    28    66    1
    71    29    67    1
    72    30    68    1
    73    31    69    1
    74    34    70    1
    75    34    71    1
    76    34    72    1
    77    36    73    1
    78    36    74    1
    79    36    75    1
