@<TRIPOS>MOLECULE
*****
 42 44 0 0 0
SMALL
GASTEIGER

@<TRIPOS>ATOM
      1 C          -1.2714   -2.0128    0.7800 C.3     1  UNL1        0.0100
      2 N          -2.0519   -0.8792    0.3304 N.am    1  UNL1       -0.2549
      3 C          -1.3850    0.2903   -0.1196 C.2     1  UNL1        0.3437
      4 O          -2.0692    1.2669   -0.5070 O.2     1  UNL1       -0.2471
      5 N           0.0286    0.3857   -0.1436 N.ar    1  UNL1       -0.1571
      6 N           0.8692   -0.5802    0.2411 N.ar    1  UNL1       -0.1403
      7 C           2.1416   -0.1716    0.0936 C.ar    1  UNL1        0.1829
      8 C           3.3597   -0.9269    0.3996 C.ar    1  UNL1        0.0210
      9 C           4.2755   -0.4499    1.3313 C.ar    1  UNL1       -0.0496
     10 C           5.4313   -1.1385    1.6407 C.ar    1  UNL1       -0.0427
     11 C           5.6634   -2.3339    0.9929 C.ar    1  UNL1        0.0410
     12 CL          7.1473   -3.1873    1.4106 Cl      1  UNL1       -0.0835
     13 C           4.7806   -2.8499    0.0570 C.ar    1  UNL1       -0.0427
     14 C           3.6459   -2.1200   -0.2105 C.ar    1  UNL1       -0.0496
     15 N           2.0450    1.0864   -0.3981 N.ar    1  UNL1       -0.2003
     16 C           0.7630    1.4324   -0.5451 C.ar    1  UNL1        0.1965
     17 S           0.0627    2.9696   -1.1513 S.3     1  UNL1       -0.0769
     18 C           1.3905    4.1225   -1.5887 C.3     1  UNL1        0.0965
     19 C           0.7526    5.4012   -2.0934 C.3     1  UNL1        0.3992
     20 F           1.7479    6.2947   -2.4326 F       1  UNL1       -0.1698
     21 F          -0.0574    5.1041   -3.1917 F       1  UNL1       -0.1698
     22 F          -0.0756    5.9632   -1.1484 F       1  UNL1       -0.1698
     23 C          -3.4696   -0.9779    0.3557 C.ar    1  UNL1        0.0377
     24 C          -4.1697   -1.4587   -0.7372 C.ar    1  UNL1       -0.0402
     25 C          -5.5328   -1.5622   -0.7346 C.ar    1  UNL1       -0.0600
     26 C          -6.2601   -1.1883    0.3648 C.ar    1  UNL1       -0.0616
     27 C          -5.5917   -0.7048    1.4709 C.ar    1  UNL1       -0.0600
     28 C          -4.2278   -0.6083    1.4503 C.ar    1  UNL1       -0.0402
     29 H          -1.9184   -2.8511    1.0820 H       1  UNL1        0.0433
     30 H          -0.6383   -2.4039   -0.0637 H       1  UNL1        0.0433
     31 H          -0.6322   -1.7728    1.6557 H       1  UNL1        0.0433
     32 H           4.0493    0.4927    1.8134 H       1  UNL1        0.0625
     33 H           6.1525   -0.7574    2.3781 H       1  UNL1        0.0632
     34 H           4.9996   -3.7767   -0.4192 H       1  UNL1        0.0632
     35 H           2.9211   -2.4879   -0.9415 H       1  UNL1        0.0625
     36 H           1.9665    3.6524   -2.4073 H       1  UNL1        0.0469
     37 H           2.0402    4.3764   -0.7486 H       1  UNL1        0.0469
     38 H          -3.6172   -1.7577   -1.6107 H       1  UNL1        0.0636
     39 H          -6.0140   -1.9536   -1.6416 H       1  UNL1        0.0618
     40 H          -7.3444   -1.2732    0.3603 H       1  UNL1        0.0618
     41 H          -6.2065   -0.4201    2.3200 H       1  UNL1        0.0618
     42 H          -3.7011   -0.2335    2.3060 H       1  UNL1        0.0636
@<TRIPOS>BOND
     1     1     2    1
     2     2     3   am
     3     3     4    2
     4     3     5   am
     5     5     6   ar
     6     6     7   ar
     7     7     8    1
     8     8     9   ar
     9     9    10   ar
    10    10    11   ar
    11    11    12    1
    12    11    13   ar
    13    13    14   ar
    14     7    15   ar
    15    15    16   ar
    16    16    17    1
    17    17    18    1
    18    18    19    1
    19    19    20    1
    20    19    21    1
    21    19    22    1
    22     2    23    1
    23    23    24   ar
    24    24    25   ar
    25    25    26   ar
    26    26    27   ar
    27    27    28   ar
    28    16     5   ar
    29    28    23   ar
    30    14     8   ar
    31     1    29    1
    32     1    30    1
    33     1    31    1
    34     9    32    1
    35    10    33    1
    36    13    34    1
    37    14    35    1
    38    18    36    1
    39    18    37    1
    40    24    38    1
    41    25    39    1
    42    26    40    1
    43    27    41    1
    44    28    42    1
