@<TRIPOS>MOLECULE
*****
 72 75 0 0 0
SMALL
GASTEIGER

@<TRIPOS>ATOM
      1 C           9.7614   -0.4952   -0.1929 C.3     1  UNL1       -0.0470
      2 C           8.8455   -0.1838   -1.3762 C.3     1  UNL1        0.0235
      3 N           7.4787   -0.1505   -0.8842 N.ar    1  UNL1       -0.3129
      4 C           6.7092   -1.2403   -0.8562 C.ar    1  UNL1        0.0195
      5 C           7.2472   -2.5459   -1.3417 C.3     1  UNL1       -0.0241
      6 C           5.4219   -1.2062   -0.3914 C.ar    1  UNL1       -0.0346
      7 C           4.9037   -0.0207    0.0593 C.ar    1  UNL1       -0.0111
      8 C           3.5164    0.0324    0.5653 C.ar    1  UNL1       -0.0176
      9 C           2.9516   -1.0507    1.2003 C.ar    1  UNL1       -0.0537
     10 C           1.6358   -0.9973    1.6777 C.ar    1  UNL1       -0.0562
     11 C           0.8670    0.1334    1.5292 C.ar    1  UNL1       -0.0271
     12 C          -0.5129    0.1419    2.0488 C.3     1  UNL1        0.0515
     13 C          -0.9111   -1.2457    2.4566 C.3     1  UNL1       -0.0421
     14 N          -1.4606    0.7020    1.1189 N.am    1  UNL1       -0.2605
     15 C          -1.6668    0.0700   -0.1477 C.3     1  UNL1        0.0224
     16 C          -2.9320    0.4098   -0.8566 C.3     1  UNL1        0.0076
     17 C          -3.9828    1.0237   -0.0020 C.3     1  UNL1        0.1440
     18 C          -4.6113    0.1909    1.0432 C.3     1  UNL1        0.0199
     19 C          -5.3665   -1.0162    0.6552 C.3     1  UNL1        0.0645
     20 C          -4.6615   -2.1050   -0.0629 C.3     1  UNL1       -0.0362
     21 C          -5.9495   -1.6588    1.9340 C.3     1  UNL1       -0.0362
     22 O          -6.5029   -0.6836   -0.1374 O.3     1  UNL1       -0.3890
     23 C          -5.0290    1.6346   -0.8875 C.ar    1  UNL1       -0.0040
     24 C          -5.0201    1.5177   -2.2533 C.ar    1  UNL1       -0.0548
     25 C          -6.0169    2.1197   -2.9903 C.ar    1  UNL1       -0.0614
     26 C          -7.0356    2.8429   -2.4143 C.ar    1  UNL1       -0.0617
     27 C          -7.0439    2.9592   -1.0517 C.ar    1  UNL1       -0.0614
     28 C          -6.0337    2.3503   -0.2922 C.ar    1  UNL1       -0.0548
     29 O          -3.3829    2.1569    0.6621 O.3     1  UNL1       -0.4387
     30 C          -2.2129    1.8746    1.4056 C.2     1  UNL1        0.4042
     31 O          -1.8013    2.6261    2.3238 O.2     1  UNL1       -0.2262
     32 C           1.4410    1.2169    0.8907 C.ar    1  UNL1       -0.0562
     33 C           2.7491    1.1654    0.4154 C.ar    1  UNL1       -0.0537
     34 C           5.6837    1.1067    0.0359 C.ar    1  UNL1        0.0107
     35 C           6.9712    1.0107   -0.4428 C.ar    1  UNL1        0.2520
     36 O           7.6980    2.0646   -0.4639 O.2     1  UNL1       -0.2677
     37 H          10.1427    0.4630    0.2384 H       1  UNL1        0.0247
     38 H          10.6129   -1.0785   -0.5912 H       1  UNL1        0.0247
     39 H           9.1888   -1.0545    0.5705 H       1  UNL1        0.0247
     40 H           8.9552   -0.9638   -2.1460 H       1  UNL1        0.0490
     41 H           9.1553    0.7859   -1.7982 H       1  UNL1        0.0490
     42 H           7.5337   -2.4022   -2.4075 H       1  UNL1        0.0292
     43 H           6.5175   -3.3522   -1.2067 H       1  UNL1        0.0292
     44 H           8.1366   -2.7911   -0.7067 H       1  UNL1        0.0292
     45 H           4.8095   -2.1021   -0.3755 H       1  UNL1        0.0641
     46 H           3.5583   -1.9386    1.3159 H       1  UNL1        0.0624
     47 H           1.2470   -1.8795    2.1678 H       1  UNL1        0.0621
     48 H          -0.4656    0.7547    2.9991 H       1  UNL1        0.0549
     49 H          -1.9806   -1.2449    2.8025 H       1  UNL1        0.0251
     50 H          -0.3250   -1.4957    3.3890 H       1  UNL1        0.0251
     51 H          -0.7260   -2.0170    1.7042 H       1  UNL1        0.0251
     52 H          -0.8056    0.3248   -0.8468 H       1  UNL1        0.0467
     53 H          -1.5502   -1.0254    0.0022 H       1  UNL1        0.0467
     54 H          -2.6386    1.2582   -1.5831 H       1  UNL1        0.0322
     55 H          -3.2298   -0.4408   -1.4710 H       1  UNL1        0.0322
     56 H          -5.3341    0.8703    1.5986 H       1  UNL1        0.0335
     57 H          -3.8221   -0.0966    1.7953 H       1  UNL1        0.0335
     58 H          -5.0520   -3.1292    0.2429 H       1  UNL1        0.0257
     59 H          -3.5935   -2.1380    0.1298 H       1  UNL1        0.0257
     60 H          -4.8199   -2.1156   -1.1716 H       1  UNL1        0.0257
     61 H          -5.0553   -1.9217    2.5651 H       1  UNL1        0.0257
     62 H          -6.6487   -0.9936    2.4386 H       1  UNL1        0.0257
     63 H          -6.4494   -2.6146    1.6902 H       1  UNL1        0.0257
     64 H          -6.3528   -0.9535   -1.0761 H       1  UNL1        0.2101
     65 H          -4.2609    0.9705   -2.7506 H       1  UNL1        0.0622
     66 H          -6.0092    2.0255   -4.0796 H       1  UNL1        0.0618
     67 H          -7.8275    3.3206   -3.0043 H       1  UNL1        0.0618
     68 H          -7.8400    3.5260   -0.5812 H       1  UNL1        0.0618
     69 H          -6.1375    2.5102    0.7739 H       1  UNL1        0.0622
     70 H           0.8403    2.1053    0.7728 H       1  UNL1        0.0621
     71 H           3.1944    2.0170   -0.0841 H       1  UNL1        0.0624
     72 H           5.2850    2.0661    0.3932 H       1  UNL1        0.0678
@<TRIPOS>BOND
     1     1     2    1
     2     2     3    1
     3     3     4   ar
     4     4     5    1
     5     4     6   ar
     6     6     7   ar
     7     7     8    1
     8     8     9   ar
     9     9    10   ar
    10    10    11   ar
    11    11    12    1
    12    12    13    1
    13    12    14    1
    14    14    15    1
    15    15    16    1
    16    16    17    1
    17    17    18    1
    18    18    19    1
    19    19    20    1
    20    19    21    1
    21    19    22    1
    22    17    23    1
    23    23    24   ar
    24    24    25   ar
    25    25    26   ar
    26    26    27   ar
    27    27    28   ar
    28    17    29    1
    29    29    30    1
    30    30    31    2
    31    11    32   ar
    32    32    33   ar
    33     7    34   ar
    34    34    35   ar
    35    35    36    2
    36    35     3   ar
    37    33     8   ar
    38    30    14   am
    39    28    23   ar
    40     1    37    1
    41     1    38    1
    42     1    39    1
    43     2    40    1
    44     2    41    1
    45     5    42    1
    46     5    43    1
    47     5    44    1
    48     6    45    1
    49     9    46    1
    50    10    47    1
    51    12    48    1
    52    13    49    1
    53    13    50    1
    54    13    51    1
    55    15    52    1
    56    15    53    1
    57    16    54    1
    58    16    55    1
    59    18    56    1
    60    18    57    1
    61    20    58    1
    62    20    59    1
    63    20    60    1
    64    21    61    1
    65    21    62    1
    66    21    63    1
    67    22    64    1
    68    24    65    1
    69    25    66    1
    70    26    67    1
    71    27    68    1
    72    28    69    1
    73    32    70    1
    74    33    71    1
    75    34    72    1
