
     RDKit          3D

 72 75  0  0  0  0  0  0  0  0999 V2000
    9.7614   -0.4952   -0.1929 C   0  0  0  0  0  0  0  0  0  0  0  0
    8.8455   -0.1838   -1.3762 C   0  0  0  0  0  0  0  0  0  0  0  0
    7.4787   -0.1505   -0.8842 N   0  0  0  0  0  0  0  0  0  0  0  0
    6.7092   -1.2403   -0.8562 C   0  0  0  0  0  0  0  0  0  0  0  0
    7.2472   -2.5459   -1.3417 C   0  0  0  0  0  0  0  0  0  0  0  0
    5.4219   -1.2062   -0.3914 C   0  0  0  0  0  0  0  0  0  0  0  0
    4.9037   -0.0207    0.0593 C   0  0  0  0  0  0  0  0  0  0  0  0
    3.5164    0.0324    0.5653 C   0  0  0  0  0  0  0  0  0  0  0  0
    2.9516   -1.0507    1.2003 C   0  0  0  0  0  0  0  0  0  0  0  0
    1.6358   -0.9973    1.6777 C   0  0  0  0  0  0  0  0  0  0  0  0
    0.8670    0.1334    1.5292 C   0  0  0  0  0  0  0  0  0  0  0  0
   -0.5129    0.1419    2.0488 C   0  0  2  0  0  0  0  0  0  0  0  0
   -0.9111   -1.2457    2.4566 C   0  0  0  0  0  0  0  0  0  0  0  0
   -1.4606    0.7020    1.1189 N   0  0  0  0  0  0  0  0  0  0  0  0
   -1.6668    0.0700   -0.1477 C   0  0  0  0  0  0  0  0  0  0  0  0
   -2.9320    0.4098   -0.8566 C   0  0  0  0  0  0  0  0  0  0  0  0
   -3.9828    1.0237   -0.0020 C   0  0  2  0  0  0  0  0  0  0  0  0
   -4.6113    0.1909    1.0432 C   0  0  0  0  0  0  0  0  0  0  0  0
   -5.3665   -1.0162    0.6552 C   0  0  0  0  0  0  0  0  0  0  0  0
   -4.6615   -2.1050   -0.0629 C   0  0  0  0  0  0  0  0  0  0  0  0
   -5.9495   -1.6588    1.9340 C   0  0  0  0  0  0  0  0  0  0  0  0
   -6.5029   -0.6836   -0.1374 O   0  0  0  0  0  0  0  0  0  0  0  0
   -5.0290    1.6346   -0.8875 C   0  0  0  0  0  0  0  0  0  0  0  0
   -5.0201    1.5177   -2.2533 C   0  0  0  0  0  0  0  0  0  0  0  0
   -6.0169    2.1197   -2.9903 C   0  0  0  0  0  0  0  0  0  0  0  0
   -7.0356    2.8429   -2.4143 C   0  0  0  0  0  0  0  0  0  0  0  0
   -7.0439    2.9592   -1.0517 C   0  0  0  0  0  0  0  0  0  0  0  0
   -6.0337    2.3503   -0.2922 C   0  0  0  0  0  0  0  0  0  0  0  0
   -3.3829    2.1569    0.6621 O   0  0  0  0  0  0  0  0  0  0  0  0
   -2.2129    1.8746    1.4056 C   0  0  0  0  0  0  0  0  0  0  0  0
   -1.8013    2.6261    2.3238 O   0  0  0  0  0  0  0  0  0  0  0  0
    1.4410    1.2169    0.8907 C   0  0  0  0  0  0  0  0  0  0  0  0
    2.7491    1.1654    0.4154 C   0  0  0  0  0  0  0  0  0  0  0  0
    5.6837    1.1067    0.0359 C   0  0  0  0  0  0  0  0  0  0  0  0
    6.9712    1.0107   -0.4428 C   0  0  0  0  0  0  0  0  0  0  0  0
    7.6980    2.0646   -0.4639 O   0  0  0  0  0  0  0  0  0  0  0  0
   10.1427    0.4630    0.2384 H   0  0  0  0  0  0  0  0  0  0  0  0
   10.6129   -1.0785   -0.5912 H   0  0  0  0  0  0  0  0  0  0  0  0
    9.1888   -1.0545    0.5705 H   0  0  0  0  0  0  0  0  0  0  0  0
    8.9552   -0.9638   -2.1460 H   0  0  0  0  0  0  0  0  0  0  0  0
    9.1553    0.7859   -1.7982 H   0  0  0  0  0  0  0  0  0  0  0  0
    7.5337   -2.4022   -2.4075 H   0  0  0  0  0  0  0  0  0  0  0  0
    6.5175   -3.3522   -1.2067 H   0  0  0  0  0  0  0  0  0  0  0  0
    8.1366   -2.7911   -0.7067 H   0  0  0  0  0  0  0  0  0  0  0  0
    4.8095   -2.1021   -0.3755 H   0  0  0  0  0  0  0  0  0  0  0  0
    3.5583   -1.9386    1.3159 H   0  0  0  0  0  0  0  0  0  0  0  0
    1.2470   -1.8795    2.1678 H   0  0  0  0  0  0  0  0  0  0  0  0
   -0.4656    0.7547    2.9991 H   0  0  0  0  0  0  0  0  0  0  0  0
   -1.9806   -1.2449    2.8025 H   0  0  0  0  0  0  0  0  0  0  0  0
   -0.3250   -1.4957    3.3890 H   0  0  0  0  0  0  0  0  0  0  0  0
   -0.7260   -2.0170    1.7042 H   0  0  0  0  0  0  0  0  0  0  0  0
   -0.8056    0.3248   -0.8468 H   0  0  0  0  0  0  0  0  0  0  0  0
   -1.5502   -1.0254    0.0022 H   0  0  0  0  0  0  0  0  0  0  0  0
   -2.6386    1.2582   -1.5831 H   0  0  0  0  0  0  0  0  0  0  0  0
   -3.2298   -0.4408   -1.4710 H   0  0  0  0  0  0  0  0  0  0  0  0
   -5.3341    0.8703    1.5986 H   0  0  0  0  0  0  0  0  0  0  0  0
   -3.8221   -0.0966    1.7953 H   0  0  0  0  0  0  0  0  0  0  0  0
   -5.0520   -3.1292    0.2429 H   0  0  0  0  0  0  0  0  0  0  0  0
   -3.5935   -2.1380    0.1298 H   0  0  0  0  0  0  0  0  0  0  0  0
   -4.8199   -2.1156   -1.1716 H   0  0  0  0  0  0  0  0  0  0  0  0
   -5.0553   -1.9217    2.5651 H   0  0  0  0  0  0  0  0  0  0  0  0
   -6.6487   -0.9936    2.4386 H   0  0  0  0  0  0  0  0  0  0  0  0
   -6.4494   -2.6146    1.6902 H   0  0  0  0  0  0  0  0  0  0  0  0
   -6.3528   -0.9535   -1.0761 H   0  0  0  0  0  0  0  0  0  0  0  0
   -4.2609    0.9705   -2.7506 H   0  0  0  0  0  0  0  0  0  0  0  0
   -6.0092    2.0255   -4.0796 H   0  0  0  0  0  0  0  0  0  0  0  0
   -7.8275    3.3206   -3.0043 H   0  0  0  0  0  0  0  0  0  0  0  0
   -7.8400    3.5260   -0.5812 H   0  0  0  0  0  0  0  0  0  0  0  0
   -6.1375    2.5102    0.7739 H   0  0  0  0  0  0  0  0  0  0  0  0
    0.8403    2.1053    0.7728 H   0  0  0  0  0  0  0  0  0  0  0  0
    3.1944    2.0170   -0.0841 H   0  0  0  0  0  0  0  0  0  0  0  0
    5.2850    2.0661    0.3932 H   0  0  0  0  0  0  0  0  0  0  0  0
  1  2  1  0
  2  3  1  0
  3  4  1  0
  4  5  1  0
  4  6  2  0
  6  7  1  0
  7  8  1  0
  8  9  2  0
  9 10  1  0
 10 11  2  0
 11 12  1  0
 12 13  1  0
 12 14  1  0
 14 15  1  0
 15 16  1  0
 16 17  1  0
 17 18  1  1
 18 19  1  0
 19 20  1  0
 19 21  1  0
 19 22  1  0
 17 23  1  0
 23 24  2  0
 24 25  1  0
 25 26  2  0
 26 27  1  0
 27 28  2  0
 17 29  1  0
 29 30  1  0
 30 31  2  0
 11 32  1  0
 32 33  2  0
  7 34  2  0
 34 35  1  0
 35 36  2  0
 35  3  1  0
 33  8  1  0
 30 14  1  0
 28 23  1  0
  1 37  1  0
  1 38  1  0
  1 39  1  0
  2 40  1  0
  2 41  1  0
  5 42  1  0
  5 43  1  0
  5 44  1  0
  6 45  1  0
  9 46  1  0
 10 47  1  0
 12 48  1  1
 13 49  1  0
 13 50  1  0
 13 51  1  0
 15 52  1  0
 15 53  1  0
 16 54  1  0
 16 55  1  0
 18 56  1  0
 18 57  1  0
 20 58  1  0
 20 59  1  0
 20 60  1  0
 21 61  1  0
 21 62  1  0
 21 63  1  0
 22 64  1  0
 24 65  1  0
 25 66  1  0
 26 67  1  0
 27 68  1  0
 28 69  1  0
 32 70  1  0
 33 71  1  0
 34 72  1  0
M  END
$$$$
