@<TRIPOS>MOLECULE
*****
 61 68 0 0 0
SMALL
GASTEIGER

@<TRIPOS>ATOM
      1 C           5.2519   -0.1129    1.1303 C.3     1  UNL1       -0.0155
      2 N           4.1172    0.7822    1.2050 N.3     1  UNL1       -0.3136
      3 C           3.1987    0.6735    0.1151 C.3     1  UNL1        0.0423
      4 C           2.1115    1.7318    0.3773 C.3     1  UNL1        0.0107
      5 C           1.2247    1.6987   -0.8530 C.3     1  UNL1        0.1402
      6 O           1.4087    0.6298   -1.6557 O.3     1  UNL1       -0.3282
      7 C           1.4960   -0.6349   -1.0464 C.3     1  UNL1        0.1741
      8 C           2.1268   -1.4485   -2.1647 C.3     1  UNL1       -0.0136
      9 C           2.4152   -0.6346    0.1501 C.3     1  UNL1        0.1214
     10 O           1.6836   -0.5886    1.3528 O.3     1  UNL1       -0.3735
     11 C           2.0982   -1.6796    2.1135 C.3     1  UNL1        0.0371
     12 N           0.1634   -1.1095   -0.6790 N.ar    1  UNL1       -0.3070
     13 C          -0.2192   -2.4180   -0.5966 C.ar    1  UNL1        0.0527
     14 C           0.5059   -3.5805   -0.7757 C.ar    1  UNL1       -0.0375
     15 C          -0.1505   -4.8018   -0.6157 C.ar    1  UNL1       -0.0598
     16 C          -1.4862   -4.8589   -0.2869 C.ar    1  UNL1       -0.0611
     17 C          -2.2158   -3.7039   -0.1055 C.ar    1  UNL1       -0.0520
     18 C          -1.5657   -2.4977   -0.2642 C.ar    1  UNL1        0.0081
     19 C          -2.0182   -1.1935   -0.1354 C.ar    1  UNL1        0.0151
     20 C          -3.2635   -0.6896    0.1885 C.ar    1  UNL1       -0.0078
     21 C          -3.3982    0.6946    0.2503 C.ar    1  UNL1        0.0518
     22 C          -2.3157    1.5150   -0.0049 C.ar    1  UNL1        0.0221
     23 C          -2.1377    2.8815   -0.0045 C.ar    1  UNL1        0.0085
     24 C          -2.9680    3.9298    0.2332 C.ar    1  UNL1       -0.0520
     25 C          -2.4376    5.2299    0.1454 C.ar    1  UNL1       -0.0611
     26 C          -1.1124    5.4163   -0.1736 C.ar    1  UNL1       -0.0598
     27 C          -0.2752    4.3475   -0.4137 C.ar    1  UNL1       -0.0375
     28 C          -0.7951    3.0681   -0.3278 C.ar    1  UNL1        0.0524
     29 N          -0.1759    1.9169   -0.5175 N.ar    1  UNL1       -0.3115
     30 C          -1.0908    0.9601   -0.3254 C.ar    1  UNL1        0.0774
     31 C          -0.9547   -0.4048   -0.3897 C.ar    1  UNL1        0.0772
     32 C          -4.7857    0.9386    0.6032 C.2     1  UNL1        0.2453
     33 O          -5.4058    2.0131    0.7803 O.2     1  UNL1       -0.2702
     34 N          -5.4589   -0.3286    0.7464 N.am    1  UNL1       -0.3072
     35 C          -4.5338   -1.3785    0.4947 C.3     1  UNL1        0.0385
     36 H           4.9476   -1.1297    0.8793 H       1  UNL1        0.0388
     37 H           5.7671   -0.0520    2.1141 H       1  UNL1        0.0388
     38 H           5.9049    0.2790    0.3131 H       1  UNL1        0.0388
     39 H           4.4902    1.7451    1.3424 H       1  UNL1        0.1220
     40 H           3.6922    0.8427   -0.8507 H       1  UNL1        0.0489
     41 H           1.5389    1.3954    1.2569 H       1  UNL1        0.0325
     42 H           2.5471    2.7203    0.5661 H       1  UNL1        0.0325
     43 H           1.5245    2.6076   -1.4505 H       1  UNL1        0.0839
     44 H           3.0220   -1.9708   -1.7550 H       1  UNL1        0.0277
     45 H           2.6064   -0.7515   -2.9372 H       1  UNL1        0.0277
     46 H           1.4416   -2.0422   -2.7532 H       1  UNL1        0.0277
     47 H           3.1078   -1.4710    0.0935 H       1  UNL1        0.0660
     48 H           1.5457   -1.7038    3.0983 H       1  UNL1        0.0524
     49 H           3.1554   -1.6773    2.3729 H       1  UNL1        0.0524
     50 H           1.8302   -2.6558    1.6319 H       1  UNL1        0.0524
     51 H           1.5439   -3.5431   -1.0124 H       1  UNL1        0.0638
     52 H           0.4355   -5.6926   -0.7611 H       1  UNL1        0.0618
     53 H          -1.9919   -5.8179   -0.1639 H       1  UNL1        0.0618
     54 H          -3.2766   -3.7232    0.1560 H       1  UNL1        0.0624
     55 H          -4.0031    3.8205    0.4832 H       1  UNL1        0.0624
     56 H          -3.1144    6.0458    0.3380 H       1  UNL1        0.0618
     57 H          -0.6997    6.4226   -0.2420 H       1  UNL1        0.0618
     58 H           0.7680    4.4847   -0.6651 H       1  UNL1        0.0638
     59 H          -6.4633   -0.4816    0.9942 H       1  UNL1        0.1493
     60 H          -4.4589   -2.0313    1.3907 H       1  UNL1        0.0512
     61 H          -4.8980   -1.9829   -0.3857 H       1  UNL1        0.0512
@<TRIPOS>BOND
     1     1     2    1
     2     2     3    1
     3     3     4    1
     4     4     5    1
     5     5     6    1
     6     6     7    1
     7     7     8    1
     8     7     9    1
     9     9    10    1
    10    10    11    1
    11     7    12    1
    12    12    13   ar
    13    13    14   ar
    14    14    15   ar
    15    15    16   ar
    16    16    17   ar
    17    17    18   ar
    18    18    19   ar
    19    19    20   ar
    20    20    21   ar
    21    21    22   ar
    22    22    23   ar
    23    23    24   ar
    24    24    25   ar
    25    25    26   ar
    26    26    27   ar
    27    27    28   ar
    28    28    29   ar
    29    29    30   ar
    30    30    31   ar
    31    21    32    1
    32    32    33    2
    33    32    34   am
    34    34    35    1
    35     9     3    1
    36    31    12   ar
    37    29     5    1
    38    18    13   ar
    39    31    19   ar
    40    35    20    1
    41    30    22   ar
    42    28    23   ar
    43     1    36    1
    44     1    37    1
    45     1    38    1
    46     2    39    1
    47     3    40    1
    48     4    41    1
    49     4    42    1
    50     5    43    1
    51     8    44    1
    52     8    45    1
    53     8    46    1
    54     9    47    1
    55    11    48    1
    56    11    49    1
    57    11    50    1
    58    14    51    1
    59    15    52    1
    60    16    53    1
    61    17    54    1
    62    24    55    1
    63    25    56    1
    64    26    57    1
    65    27    58    1
    66    34    59    1
    67    35    60    1
    68    35    61    1
