
     RDKit          3D

 61 68  0  0  0  0  0  0  0  0999 V2000
    5.2519   -0.1129    1.1303 C   0  0  0  0  0  0  0  0  0  0  0  0
    4.1172    0.7822    1.2050 N   0  0  0  0  0  0  0  0  0  0  0  0
    3.1987    0.6735    0.1151 C   0  0  2  0  0  0  0  0  0  0  0  0
    2.1115    1.7318    0.3773 C   0  0  0  0  0  0  0  0  0  0  0  0
    1.2247    1.6987   -0.8530 C   0  0  1  0  0  0  0  0  0  0  0  0
    1.4087    0.6298   -1.6557 O   0  0  0  0  0  0  0  0  0  0  0  0
    1.4960   -0.6349   -1.0464 C   0  0  1  0  0  0  0  0  0  0  0  0
    2.1268   -1.4485   -2.1647 C   0  0  0  0  0  0  0  0  0  0  0  0
    2.4152   -0.6346    0.1501 C   0  0  2  0  0  0  0  0  0  0  0  0
    1.6836   -0.5886    1.3528 O   0  0  0  0  0  0  0  0  0  0  0  0
    2.0982   -1.6796    2.1135 C   0  0  0  0  0  0  0  0  0  0  0  0
    0.1634   -1.1095   -0.6790 N   0  0  0  0  0  0  0  0  0  0  0  0
   -0.2192   -2.4180   -0.5966 C   0  0  0  0  0  0  0  0  0  0  0  0
    0.5059   -3.5805   -0.7757 C   0  0  0  0  0  0  0  0  0  0  0  0
   -0.1505   -4.8018   -0.6157 C   0  0  0  0  0  0  0  0  0  0  0  0
   -1.4862   -4.8589   -0.2869 C   0  0  0  0  0  0  0  0  0  0  0  0
   -2.2158   -3.7039   -0.1055 C   0  0  0  0  0  0  0  0  0  0  0  0
   -1.5657   -2.4977   -0.2642 C   0  0  0  0  0  0  0  0  0  0  0  0
   -2.0182   -1.1935   -0.1354 C   0  0  0  0  0  0  0  0  0  0  0  0
   -3.2635   -0.6896    0.1885 C   0  0  0  0  0  0  0  0  0  0  0  0
   -3.3982    0.6946    0.2503 C   0  0  0  0  0  0  0  0  0  0  0  0
   -2.3157    1.5150   -0.0049 C   0  0  0  0  0  0  0  0  0  0  0  0
   -2.1377    2.8815   -0.0045 C   0  0  0  0  0  0  0  0  0  0  0  0
   -2.9680    3.9298    0.2332 C   0  0  0  0  0  0  0  0  0  0  0  0
   -2.4376    5.2299    0.1454 C   0  0  0  0  0  0  0  0  0  0  0  0
   -1.1124    5.4163   -0.1736 C   0  0  0  0  0  0  0  0  0  0  0  0
   -0.2752    4.3475   -0.4137 C   0  0  0  0  0  0  0  0  0  0  0  0
   -0.7951    3.0681   -0.3278 C   0  0  0  0  0  0  0  0  0  0  0  0
   -0.1759    1.9169   -0.5175 N   0  0  0  0  0  0  0  0  0  0  0  0
   -1.0908    0.9601   -0.3254 C   0  0  0  0  0  0  0  0  0  0  0  0
   -0.9547   -0.4048   -0.3897 C   0  0  0  0  0  0  0  0  0  0  0  0
   -4.7857    0.9386    0.6032 C   0  0  0  0  0  0  0  0  0  0  0  0
   -5.4058    2.0131    0.7803 O   0  0  0  0  0  0  0  0  0  0  0  0
   -5.4589   -0.3286    0.7464 N   0  0  0  0  0  0  0  0  0  0  0  0
   -4.5338   -1.3785    0.4947 C   0  0  0  0  0  0  0  0  0  0  0  0
    4.9476   -1.1297    0.8793 H   0  0  0  0  0  0  0  0  0  0  0  0
    5.7671   -0.0520    2.1141 H   0  0  0  0  0  0  0  0  0  0  0  0
    5.9049    0.2790    0.3131 H   0  0  0  0  0  0  0  0  0  0  0  0
    4.4902    1.7451    1.3424 H   0  0  0  0  0  0  0  0  0  0  0  0
    3.6922    0.8427   -0.8507 H   0  0  0  0  0  0  0  0  0  0  0  0
    1.5389    1.3954    1.2569 H   0  0  0  0  0  0  0  0  0  0  0  0
    2.5471    2.7203    0.5661 H   0  0  0  0  0  0  0  0  0  0  0  0
    1.5245    2.6076   -1.4505 H   0  0  0  0  0  0  0  0  0  0  0  0
    3.0220   -1.9708   -1.7550 H   0  0  0  0  0  0  0  0  0  0  0  0
    2.6064   -0.7515   -2.9372 H   0  0  0  0  0  0  0  0  0  0  0  0
    1.4416   -2.0422   -2.7532 H   0  0  0  0  0  0  0  0  0  0  0  0
    3.1078   -1.4710    0.0935 H   0  0  0  0  0  0  0  0  0  0  0  0
    1.5457   -1.7038    3.0983 H   0  0  0  0  0  0  0  0  0  0  0  0
    3.1554   -1.6773    2.3729 H   0  0  0  0  0  0  0  0  0  0  0  0
    1.8302   -2.6558    1.6319 H   0  0  0  0  0  0  0  0  0  0  0  0
    1.5439   -3.5431   -1.0124 H   0  0  0  0  0  0  0  0  0  0  0  0
    0.4355   -5.6926   -0.7611 H   0  0  0  0  0  0  0  0  0  0  0  0
   -1.9919   -5.8179   -0.1639 H   0  0  0  0  0  0  0  0  0  0  0  0
   -3.2766   -3.7232    0.1560 H   0  0  0  0  0  0  0  0  0  0  0  0
   -4.0031    3.8205    0.4832 H   0  0  0  0  0  0  0  0  0  0  0  0
   -3.1144    6.0458    0.3380 H   0  0  0  0  0  0  0  0  0  0  0  0
   -0.6997    6.4226   -0.2420 H   0  0  0  0  0  0  0  0  0  0  0  0
    0.7680    4.4847   -0.6651 H   0  0  0  0  0  0  0  0  0  0  0  0
   -6.4633   -0.4816    0.9942 H   0  0  0  0  0  0  0  0  0  0  0  0
   -4.4589   -2.0313    1.3907 H   0  0  0  0  0  0  0  0  0  0  0  0
   -4.8980   -1.9829   -0.3857 H   0  0  0  0  0  0  0  0  0  0  0  0
  1  2  1  0
  2  3  1  0
  3  4  1  0
  4  5  1  0
  5  6  1  0
  6  7  1  0
  7  8  1  6
  7  9  1  0
  9 10  1  0
 10 11  1  0
  7 12  1  0
 12 13  1  0
 13 14  2  0
 14 15  1  0
 15 16  2  0
 16 17  1  0
 17 18  2  0
 18 19  1  0
 19 20  2  0
 20 21  1  0
 21 22  2  0
 22 23  1  0
 23 24  2  0
 24 25  1  0
 25 26  2  0
 26 27  1  0
 27 28  2  0
 28 29  1  0
 29 30  1  0
 30 31  2  0
 21 32  1  0
 32 33  2  0
 32 34  1  0
 34 35  1  0
  9  3  1  0
 31 12  1  0
 29  5  1  0
 18 13  1  0
 31 19  1  0
 35 20  1  0
 30 22  1  0
 28 23  1  0
  1 36  1  0
  1 37  1  0
  1 38  1  0
  2 39  1  0
  3 40  1  6
  4 41  1  0
  4 42  1  0
  5 43  1  6
  8 44  1  0
  8 45  1  0
  8 46  1  0
  9 47  1  1
 11 48  1  0
 11 49  1  0
 11 50  1  0
 14 51  1  0
 15 52  1  0
 16 53  1  0
 17 54  1  0
 24 55  1  0
 25 56  1  0
 26 57  1  0
 27 58  1  0
 34 59  1  0
 35 60  1  0
 35 61  1  0
M  END
$$$$
