
     RDKit          3D

 55 59  0  0  0  0  0  0  0  0999 V2000
   -5.9064    3.0092    1.8679 C   0  0  0  0  0  0  0  0  0  0  0  0
   -5.1883    1.9348    1.1367 C   0  0  0  0  0  0  0  0  0  0  0  0
   -5.8507    0.7673    0.8287 C   0  0  0  0  0  0  0  0  0  0  0  0
   -5.2172   -0.2451    0.1542 C   0  0  0  0  0  0  0  0  0  0  0  0
   -3.9038   -0.1144   -0.2293 C   0  0  0  0  0  0  0  0  0  0  0  0
   -3.2855   -1.1879   -0.9265 N   0  0  0  0  0  0  0  0  0  0  0  0
   -3.3396   -2.4405   -0.4758 N   0  0  0  0  0  0  0  0  0  0  0  0
   -2.6933   -3.2645   -1.2908 C   0  0  0  0  0  0  0  0  0  0  0  0
   -2.2004   -2.4835   -2.3205 C   0  0  0  0  0  0  0  0  0  0  0  0
   -2.6001   -1.2186   -2.0349 N   0  0  0  0  0  0  0  0  0  0  0  0
   -3.2315    1.0356    0.0674 C   0  0  0  0  0  0  0  0  0  0  0  0
   -1.8429    1.1900   -0.3307 C   0  0  0  0  0  0  0  0  0  0  0  0
   -1.5490    1.6887   -1.4522 O   0  0  0  0  0  0  0  0  0  0  0  0
   -0.8149    0.7856    0.5292 N   0  0  0  0  0  0  0  0  0  0  0  0
   -1.1300    0.2078    1.8277 C   0  0  0  0  0  0  0  0  0  0  0  0
   -0.3513   -1.0758    1.9386 C   0  0  0  0  0  0  0  0  0  0  0  0
    1.0100   -0.8442    1.8225 O   0  0  0  0  0  0  0  0  0  0  0  0
    1.3073    0.4648    1.4857 C   0  0  0  0  0  0  0  0  0  0  0  0
    0.6014    0.8999    0.2193 C   0  0  1  0  0  0  0  0  0  0  0  0
    1.0217    0.0076   -0.8953 C   0  0  0  0  0  0  0  0  0  0  0  0
    2.4639    0.1704   -1.1600 C   0  0  0  0  0  0  0  0  0  0  0  0
    2.8795    1.1594   -2.0568 C   0  0  0  0  0  0  0  0  0  0  0  0
    4.2172    1.3290   -2.3302 C   0  0  0  0  0  0  0  0  0  0  0  0
    5.1964    0.5442   -1.7421 C   0  0  0  0  0  0  0  0  0  0  0  0
    4.7949   -0.4260   -0.8631 C   0  0  0  0  0  0  0  0  0  0  0  0
    5.8088   -1.2379   -0.2549 N   0  0  0  0  0  0  0  0  0  0  0  0
    6.3607   -1.0628    0.9551 C   0  0  0  0  0  0  0  0  0  0  0  0
    7.2855   -2.0820    1.1130 C   0  0  0  0  0  0  0  0  0  0  0  0
    7.2613   -2.8250    0.0126 N   0  0  0  0  0  0  0  0  0  0  0  0
    6.3708   -2.3156   -0.8117 N   0  0  0  0  0  0  0  0  0  0  0  0
    3.4566   -0.6003   -0.5857 C   0  0  0  0  0  0  0  0  0  0  0  0
   -3.8759    2.0481    0.7456 C   0  0  0  0  0  0  0  0  0  0  0  0
   -6.4125    2.5430    2.7398 H   0  0  0  0  0  0  0  0  0  0  0  0
   -5.1928    3.7965    2.1807 H   0  0  0  0  0  0  0  0  0  0  0  0
   -6.6501    3.4908    1.1723 H   0  0  0  0  0  0  0  0  0  0  0  0
   -6.8837    0.6356    1.1172 H   0  0  0  0  0  0  0  0  0  0  0  0
   -5.7361   -1.1778   -0.0952 H   0  0  0  0  0  0  0  0  0  0  0  0
   -2.5523   -4.3378   -1.2101 H   0  0  0  0  0  0  0  0  0  0  0  0
   -1.6208   -2.8007   -3.1735 H   0  0  0  0  0  0  0  0  0  0  0  0
   -2.2130   -0.0064    1.9261 H   0  0  0  0  0  0  0  0  0  0  0  0
   -0.8911    0.9388    2.6253 H   0  0  0  0  0  0  0  0  0  0  0  0
   -0.6776   -1.7289    1.1045 H   0  0  0  0  0  0  0  0  0  0  0  0
   -0.6146   -1.6121    2.8734 H   0  0  0  0  0  0  0  0  0  0  0  0
    1.1078    1.1687    2.3257 H   0  0  0  0  0  0  0  0  0  0  0  0
    2.3950    0.5358    1.3031 H   0  0  0  0  0  0  0  0  0  0  0  0
    0.9040    1.9506    0.0208 H   0  0  0  0  0  0  0  0  0  0  0  0
    0.8895   -1.0646   -0.5788 H   0  0  0  0  0  0  0  0  0  0  0  0
    0.4045    0.1163   -1.8113 H   0  0  0  0  0  0  0  0  0  0  0  0
    2.1256    1.7807   -2.5243 H   0  0  0  0  0  0  0  0  0  0  0  0
    4.4969    2.1015   -3.0264 H   0  0  0  0  0  0  0  0  0  0  0  0
    6.2411    0.7224   -1.9952 H   0  0  0  0  0  0  0  0  0  0  0  0
    6.1275   -0.2718    1.6757 H   0  0  0  0  0  0  0  0  0  0  0  0
    7.8845   -2.1994    1.9882 H   0  0  0  0  0  0  0  0  0  0  0  0
    3.1784   -1.3721    0.1060 H   0  0  0  0  0  0  0  0  0  0  0  0
   -3.3653    2.9724    0.9940 H   0  0  0  0  0  0  0  0  0  0  0  0
  1  2  1  0
  2  3  2  0
  3  4  1  0
  4  5  2  0
  5  6  1  0
  6  7  1  0
  7  8  2  0
  8  9  1  0
  9 10  2  0
  5 11  1  0
 11 12  1  0
 12 13  2  0
 12 14  1  0
 14 15  1  0
 15 16  1  0
 16 17  1  0
 17 18  1  0
 18 19  1  0
 19 20  1  0
 20 21  1  0
 21 22  2  0
 22 23  1  0
 23 24  2  0
 24 25  1  0
 25 26  1  0
 26 27  1  0
 27 28  2  0
 28 29  1  0
 29 30  2  0
 25 31  2  0
 11 32  2  0
 32  2  1  0
 10  6  1  0
 19 14  1  0
 31 21  1  0
 30 26  1  0
  1 33  1  0
  1 34  1  0
  1 35  1  0
  3 36  1  0
  4 37  1  0
  8 38  1  0
  9 39  1  0
 15 40  1  0
 15 41  1  0
 16 42  1  0
 16 43  1  0
 18 44  1  0
 18 45  1  0
 19 46  1  6
 20 47  1  0
 20 48  1  0
 22 49  1  0
 23 50  1  0
 24 51  1  0
 27 52  1  0
 28 53  1  0
 31 54  1  0
 32 55  1  0
M  END
$$$$
