@<TRIPOS>MOLECULE
*****
 55 59 0 0 0
SMALL
GASTEIGER

@<TRIPOS>ATOM
      1 C          -5.9064    3.0092    1.8679 C.3     1  UNL1       -0.0397
      2 C          -5.1883    1.9348    1.1367 C.ar    1  UNL1       -0.0496
      3 C          -5.8507    0.7673    0.8287 C.ar    1  UNL1       -0.0567
      4 C          -5.2172   -0.2451    0.1542 C.ar    1  UNL1       -0.0336
      5 C          -3.9038   -0.1144   -0.2293 C.ar    1  UNL1        0.0982
      6 N          -3.2855   -1.1879   -0.9265 N.ar    1  UNL1       -0.1496
      7 N          -3.3396   -2.4405   -0.4758 N.ar    1  UNL1       -0.1556
      8 C          -2.6933   -3.2645   -1.2908 C.ar    1  UNL1        0.0697
      9 C          -2.2004   -2.4835   -2.3205 C.ar    1  UNL1        0.0697
     10 N          -2.6001   -1.2186   -2.0349 N.ar    1  UNL1       -0.1556
     11 C          -3.2315    1.0356    0.0674 C.ar    1  UNL1        0.0642
     12 C          -1.8429    1.1900   -0.3307 C.2     1  UNL1        0.2491
     13 O          -1.5490    1.6887   -1.4522 O.2     1  UNL1       -0.2699
     14 N          -0.8149    0.7856    0.5292 N.am    1  UNL1       -0.2897
     15 C          -1.1300    0.2078    1.8277 C.3     1  UNL1        0.0388
     16 C          -0.3513   -1.0758    1.9386 C.3     1  UNL1        0.0635
     17 O           1.0100   -0.8442    1.8225 O.3     1  UNL1       -0.3764
     18 C           1.3073    0.4648    1.4857 C.3     1  UNL1        0.0666
     19 C           0.6014    0.8999    0.2193 C.3     1  UNL1        0.0537
     20 C           1.0217    0.0076   -0.8953 C.3     1  UNL1       -0.0068
     21 C           2.4639    0.1704   -1.1600 C.ar    1  UNL1       -0.0435
     22 C           2.8795    1.1594   -2.0568 C.ar    1  UNL1       -0.0584
     23 C           4.2172    1.3290   -2.3302 C.ar    1  UNL1       -0.0595
     24 C           5.1964    0.5442   -1.7421 C.ar    1  UNL1       -0.0362
     25 C           4.7949   -0.4260   -0.8631 C.ar    1  UNL1        0.0673
     26 N           5.8088   -1.2379   -0.2549 N.ar    1  UNL1       -0.2201
     27 C           6.3607   -1.0628    0.9551 C.ar    1  UNL1        0.0512
     28 C           7.2855   -2.0820    1.1130 C.ar    1  UNL1        0.0697
     29 N           7.2613   -2.8250    0.0126 N.ar    1  UNL1       -0.1376
     30 N           6.3708   -2.3156   -0.8117 N.ar    1  UNL1       -0.0608
     31 C           3.4566   -0.6003   -0.5857 C.ar    1  UNL1       -0.0330
     32 C          -3.8759    2.0481    0.7456 C.ar    1  UNL1       -0.0446
     33 H          -6.4125    2.5430    2.7398 H       1  UNL1        0.0278
     34 H          -5.1928    3.7965    2.1807 H       1  UNL1        0.0278
     35 H          -6.6501    3.4908    1.1723 H       1  UNL1        0.0278
     36 H          -6.8837    0.6356    1.1172 H       1  UNL1        0.0621
     37 H          -5.7361   -1.1778   -0.0952 H       1  UNL1        0.0640
     38 H          -2.5523   -4.3378   -1.2101 H       1  UNL1        0.0864
     39 H          -1.6208   -2.8007   -3.1735 H       1  UNL1        0.0864
     40 H          -2.2130   -0.0064    1.9261 H       1  UNL1        0.0487
     41 H          -0.8911    0.9388    2.6253 H       1  UNL1        0.0487
     42 H          -0.6776   -1.7289    1.1045 H       1  UNL1        0.0575
     43 H          -0.6146   -1.6121    2.8734 H       1  UNL1        0.0575
     44 H           1.1078    1.1687    2.3257 H       1  UNL1        0.0578
     45 H           2.3950    0.5358    1.3031 H       1  UNL1        0.0578
     46 H           0.9040    1.9506    0.0208 H       1  UNL1        0.0526
     47 H           0.8895   -1.0646   -0.5788 H       1  UNL1        0.0332
     48 H           0.4045    0.1163   -1.8113 H       1  UNL1        0.0332
     49 H           2.1256    1.7807   -2.5243 H       1  UNL1        0.0620
     50 H           4.4969    2.1015   -3.0264 H       1  UNL1        0.0618
     51 H           6.2411    0.7224   -1.9952 H       1  UNL1        0.0639
     52 H           6.1275   -0.2718    1.6757 H       1  UNL1        0.0847
     53 H           7.8845   -2.1994    1.9882 H       1  UNL1        0.0864
     54 H           3.1784   -1.3721    0.1060 H       1  UNL1        0.0641
     55 H          -3.3653    2.9724    0.9940 H       1  UNL1        0.0628
@<TRIPOS>BOND
     1     1     2    1
     2     2     3   ar
     3     3     4   ar
     4     4     5   ar
     5     5     6    1
     6     6     7   ar
     7     7     8   ar
     8     8     9   ar
     9     9    10   ar
    10     5    11   ar
    11    11    12    1
    12    12    13    2
    13    12    14   am
    14    14    15    1
    15    15    16    1
    16    16    17    1
    17    17    18    1
    18    18    19    1
    19    19    20    1
    20    20    21    1
    21    21    22   ar
    22    22    23   ar
    23    23    24   ar
    24    24    25   ar
    25    25    26    1
    26    26    27   ar
    27    27    28   ar
    28    28    29   ar
    29    29    30   ar
    30    25    31   ar
    31    11    32   ar
    32    32     2   ar
    33    10     6   ar
    34    19    14    1
    35    31    21   ar
    36    30    26   ar
    37     1    33    1
    38     1    34    1
    39     1    35    1
    40     3    36    1
    41     4    37    1
    42     8    38    1
    43     9    39    1
    44    15    40    1
    45    15    41    1
    46    16    42    1
    47    16    43    1
    48    18    44    1
    49    18    45    1
    50    19    46    1
    51    20    47    1
    52    20    48    1
    53    22    49    1
    54    23    50    1
    55    24    51    1
    56    27    52    1
    57    28    53    1
    58    31    54    1
    59    32    55    1
