@<TRIPOS>MOLECULE
*****
 37 40 0 0 0
SMALL
GASTEIGER

@<TRIPOS>ATOM
      1 O           2.1324    0.9018    1.6095 O.2     1  UNL1       -0.2697
      2 C           1.8396    0.2799    0.5564 C.2     1  UNL1        0.2530
      3 N           2.9077   -0.0284   -0.3327 N.am    1  UNL1       -0.2663
      4 C           4.2464    0.3183   -0.1012 C.ar    1  UNL1        0.1253
      5 C           4.7259    1.5226   -0.5534 C.ar    1  UNL1       -0.0188
      6 C           6.0524    1.8854   -0.3347 C.ar    1  UNL1       -0.0217
      7 C           6.8841    1.0134    0.3462 C.ar    1  UNL1        0.1415
      8 F           8.1965    1.3354    0.5800 F       1  UNL1       -0.2039
      9 C           6.3711   -0.1854    0.7858 C.ar    1  UNL1        0.0649
     10 N           5.0794   -0.4982    0.5529 N.ar    1  UNL1       -0.2373
     11 C           0.4544   -0.0848    0.3063 C.ar    1  UNL1        0.0847
     12 C          -0.6048    0.7147    0.6939 C.ar    1  UNL1       -0.0021
     13 C          -1.9073    0.3472    0.4438 C.ar    1  UNL1        0.1474
     14 O          -2.9500    1.1755    0.8475 O.3     1  UNL1       -0.4529
     15 C          -4.2551    0.8049    0.5946 C.ar    1  UNL1        0.1492
     16 C          -4.8626    1.1903   -0.6062 C.ar    1  UNL1        0.0700
     17 N          -6.1282    0.8434   -0.8761 N.ar    1  UNL1       -0.2568
     18 C          -6.8932    0.1170   -0.0368 C.ar    1  UNL1        0.0630
     19 C          -6.3108   -0.2713    1.1509 C.ar    1  UNL1        0.1449
     20 F          -7.0743   -1.0032    2.0031 F       1  UNL1       -0.2038
     21 C          -5.0132    0.0624    1.4704 C.ar    1  UNL1        0.0189
     22 C          -2.1687   -0.8356   -0.2030 C.ar    1  UNL1        0.0737
     23 N          -1.1427   -1.6150   -0.5811 N.ar    1  UNL1       -0.2161
     24 N          -1.1471   -2.7827   -1.2099 N.ar    1  UNL1       -0.1534
     25 C           0.1340   -3.1593   -1.3614 C.ar    1  UNL1        0.1390
     26 N           0.9352   -2.2228   -0.8250 N.ar    1  UNL1       -0.2141
     27 C           0.1178   -1.2624   -0.3407 C.ar    1  UNL1        0.1680
     28 H           2.6672   -0.5440   -1.2075 H       1  UNL1        0.1566
     29 H           4.1248    2.2446   -1.0910 H       1  UNL1        0.0653
     30 H           6.4748    2.8071   -0.6644 H       1  UNL1        0.0648
     31 H           7.0354   -0.8513    1.3140 H       1  UNL1        0.0859
     32 H          -0.3617    1.6416    1.2028 H       1  UNL1        0.0663
     33 H          -4.3197    1.7662   -1.3185 H       1  UNL1        0.0867
     34 H          -7.9064   -0.1551   -0.2623 H       1  UNL1        0.0859
     35 H          -4.5971   -0.2654    2.4167 H       1  UNL1        0.0684
     36 H          -3.2084   -1.1217   -0.3989 H       1  UNL1        0.0868
     37 H           0.4724   -4.0852   -1.8468 H       1  UNL1        0.1066
@<TRIPOS>BOND
     1     1     2    2
     2     2     3   am
     3     3     4    1
     4     4     5   ar
     5     5     6   ar
     6     6     7   ar
     7     7     8    1
     8     7     9   ar
     9     9    10   ar
    10     2    11    1
    11    11    12   ar
    12    12    13   ar
    13    13    14    1
    14    14    15    1
    15    15    16   ar
    16    16    17   ar
    17    17    18   ar
    18    18    19   ar
    19    19    20    1
    20    19    21   ar
    21    13    22   ar
    22    22    23   ar
    23    23    24   ar
    24    24    25   ar
    25    25    26   ar
    26    26    27   ar
    27    10     4   ar
    28    27    11   ar
    29    21    15   ar
    30    27    23   ar
    31     3    28    1
    32     5    29    1
    33     6    30    1
    34     9    31    1
    35    12    32    1
    36    16    33    1
    37    18    34    1
    38    21    35    1
    39    22    36    1
    40    25    37    1
