
     RDKit          3D

 44 47  0  0  0  0  0  0  0  0999 V2000
    7.9578   -0.2289    0.2652 C   0  0  0  0  0  0  0  0  0  0  0  0
    6.4913   -0.0135    0.1253 C   0  0  0  0  0  0  0  0  0  0  0  0
    5.5291   -0.8821    0.5215 N   0  0  0  0  0  0  0  0  0  0  0  0
    4.3856   -0.3740    0.2470 O   0  0  0  0  0  0  0  0  0  0  0  0
    4.4449    0.7872   -0.3132 C   0  0  0  0  0  0  0  0  0  0  0  0
    3.4053    1.6482   -0.7559 N   0  0  0  0  0  0  0  0  0  0  0  0
    1.7469    1.1464   -0.5551 S   0  0  0  0  0  0  0  0  0  0  0  0
    0.8164    2.2425   -0.9753 O   0  0  0  0  0  0  0  0  0  0  0  0
    1.5730    0.9616    0.9335 O   0  0  0  0  0  0  0  0  0  0  0  0
    1.4090   -0.3246   -1.4459 C   0  0  0  0  0  0  0  0  0  0  0  0
    0.1466   -0.9074   -1.4161 C   0  0  0  0  0  0  0  0  0  0  0  0
    0.2728   -2.3288   -2.4371 S   0  0  0  0  0  0  0  0  0  0  0  0
    1.9826   -2.1306   -2.8841 C   0  0  0  0  0  0  0  0  0  0  0  0
    2.3586   -0.9586   -2.2060 C   0  0  0  0  0  0  0  0  0  0  0  0
   -1.0146   -0.4574   -0.7065 C   0  0  0  0  0  0  0  0  0  0  0  0
   -0.9599    0.5635   -0.0146 O   0  0  0  0  0  0  0  0  0  0  0  0
   -2.2575   -1.2564   -0.8385 C   0  0  0  0  0  0  0  0  0  0  0  0
   -3.3784   -0.7016   -0.0775 C   0  0  0  0  0  0  0  0  0  0  0  0
   -3.7967   -1.2543    1.1245 C   0  0  0  0  0  0  0  0  0  0  0  0
   -4.8644   -0.7222    1.8436 C   0  0  0  0  0  0  0  0  0  0  0  0
   -5.5170    0.3940    1.3266 C   0  0  0  0  0  0  0  0  0  0  0  0
   -6.5573    0.7823    2.1843 O   0  0  0  0  0  0  0  0  0  0  0  0
   -6.2450    0.1908    3.4387 C   0  0  0  0  0  0  0  0  0  0  0  0
   -5.5406   -0.9837    3.0227 O   0  0  0  0  0  0  0  0  0  0  0  0
   -5.0868    0.9271    0.1335 C   0  0  0  0  0  0  0  0  0  0  0  0
   -4.0211    0.4012   -0.5903 C   0  0  0  0  0  0  0  0  0  0  0  0
   -3.6338    1.0463   -1.8669 C   0  0  0  0  0  0  0  0  0  0  0  0
    5.7936    1.0513   -0.4072 C   0  0  0  0  0  0  0  0  0  0  0  0
    6.5577    2.4689   -1.0746 Cl  0  0  0  0  0  0  0  0  0  0  0  0
    8.3622   -0.7575   -0.6375 H   0  0  0  0  0  0  0  0  0  0  0  0
    8.5185    0.7288    0.3378 H   0  0  0  0  0  0  0  0  0  0  0  0
    8.2026   -0.8496    1.1379 H   0  0  0  0  0  0  0  0  0  0  0  0
    3.6271    2.5646   -1.1949 H   0  0  0  0  0  0  0  0  0  0  0  0
    2.6124   -2.7557   -3.5290 H   0  0  0  0  0  0  0  0  0  0  0  0
    3.3814   -0.6292   -2.3278 H   0  0  0  0  0  0  0  0  0  0  0  0
   -2.4833   -1.4044   -1.9168 H   0  0  0  0  0  0  0  0  0  0  0  0
   -2.0333   -2.2704   -0.4493 H   0  0  0  0  0  0  0  0  0  0  0  0
   -3.3087   -2.1130    1.5393 H   0  0  0  0  0  0  0  0  0  0  0  0
   -5.5538    0.9230    3.9336 H   0  0  0  0  0  0  0  0  0  0  0  0
   -7.1274   -0.0253    4.0471 H   0  0  0  0  0  0  0  0  0  0  0  0
   -5.5900    1.8082   -0.2903 H   0  0  0  0  0  0  0  0  0  0  0  0
   -2.7498    1.7048   -1.7540 H   0  0  0  0  0  0  0  0  0  0  0  0
   -4.4527    1.6951   -2.2425 H   0  0  0  0  0  0  0  0  0  0  0  0
   -3.4035    0.2934   -2.6468 H   0  0  0  0  0  0  0  0  0  0  0  0
  1  2  1  0
  2  3  2  0
  3  4  1  0
  4  5  1  0
  5  6  1  0
  6  7  1  0
  7  8  2  0
  7  9  2  0
  7 10  1  0
 10 11  2  0
 11 12  1  0
 12 13  1  0
 13 14  2  0
 11 15  1  0
 15 16  2  0
 15 17  1  0
 17 18  1  0
 18 19  2  0
 19 20  1  0
 20 21  2  0
 21 22  1  0
 22 23  1  0
 23 24  1  0
 21 25  1  0
 25 26  2  0
 26 27  1  0
  5 28  2  0
 28 29  1  0
 28  2  1  0
 14 10  1  0
 26 18  1  0
 24 20  1  0
  1 30  1  0
  1 31  1  0
  1 32  1  0
  6 33  1  0
 13 34  1  0
 14 35  1  0
 17 36  1  0
 17 37  1  0
 19 38  1  0
 23 39  1  0
 23 40  1  0
 25 41  1  0
 27 42  1  0
 27 43  1  0
 27 44  1  0
M  END
$$$$
