@<TRIPOS>MOLECULE
*****
 57 61 0 0 0
SMALL
GASTEIGER

@<TRIPOS>ATOM
      1 C          10.0864   -0.1994   -0.3856 C.3     1  UNL1       -0.0028
      2 C           8.8142    0.1003    0.3063 C.ar    1  UNL1        0.1483
      3 N           8.7614    0.5773    1.5741 N.ar    1  UNL1       -0.2193
      4 C           7.4840    0.7417    1.9046 C.ar    1  UNL1        0.1202
      5 N           6.7119    0.3746    0.8599 N.ar    1  UNL1       -0.2199
      6 C           5.2918    0.4164    0.8515 C.ar    1  UNL1        0.0699
      7 C           4.5403   -0.7276    0.7701 C.ar    1  UNL1       -0.0170
      8 C           3.1310   -0.7123    0.7601 C.ar    1  UNL1        0.0565
      9 CL          2.2782   -2.2403    0.6006 Cl      1  UNL1       -0.0827
     10 C           2.4307    0.4573    0.8332 C.ar    1  UNL1        0.0733
     11 C           0.9818    0.5812    0.8800 C.2     1  UNL1        0.2469
     12 O           0.4955    1.7421    0.5886 O.2     1  UNL1       -0.2701
     13 N           0.0433   -0.3912    1.2034 N.am    1  UNL1       -0.3104
     14 C          -1.3813   -0.1301    1.1895 C.3     1  UNL1        0.0227
     15 C          -1.8165    0.2145   -0.1975 C.3     1  UNL1        0.0249
     16 C          -1.5019   -0.9225   -1.0987 C.ar    1  UNL1       -0.0358
     17 C          -1.0740   -0.6964   -2.3917 C.ar    1  UNL1       -0.0578
     18 C          -0.7749   -1.7271   -3.2560 C.ar    1  UNL1       -0.0588
     19 C          -0.9187   -3.0097   -2.7815 C.ar    1  UNL1       -0.0264
     20 C          -1.3369   -3.2791   -1.5163 C.ar    1  UNL1        0.1237
     21 F          -1.4774   -4.5462   -1.0519 F       1  UNL1       -0.2055
     22 C          -1.6335   -2.2164   -0.6605 C.ar    1  UNL1       -0.0226
     23 C          -3.2638    0.5612   -0.2619 C.ar    1  UNL1       -0.0363
     24 C          -3.6640    1.4612   -1.2254 C.ar    1  UNL1       -0.0559
     25 C          -4.9782    1.8448   -1.3653 C.ar    1  UNL1       -0.0360
     26 C          -5.9302    1.3227   -0.5261 C.ar    1  UNL1        0.0662
     27 N          -7.2724    1.4785   -0.3914 N.ar    1  UNL1       -0.3420
     28 C          -7.7253    0.7158    0.6127 C.ar    1  UNL1        0.1051
     29 C          -9.1312    0.6152    1.0638 C.3     1  UNL1       -0.0064
     30 N          -6.6597    0.0718    1.1175 N.ar    1  UNL1       -0.2328
     31 C          -5.5405    0.4173    0.4462 C.ar    1  UNL1        0.0894
     32 C          -4.2273    0.0496    0.5678 C.ar    1  UNL1       -0.0304
     33 C           3.2179    1.6222    0.9154 C.ar    1  UNL1        0.0565
     34 CL          2.3375    3.1485    1.0136 Cl      1  UNL1       -0.0827
     35 C           4.5908    1.5962    0.9238 C.ar    1  UNL1       -0.0170
     36 N           7.5452   -0.0141   -0.1062 N.ar    1  UNL1       -0.1504
     37 H          10.6295   -0.9403    0.2595 H       1  UNL1        0.0309
     38 H           9.9256   -0.6044   -1.3920 H       1  UNL1        0.0309
     39 H          10.7301    0.7005   -0.4115 H       1  UNL1        0.0309
     40 H           7.1010    1.1083    2.8500 H       1  UNL1        0.1048
     41 H           5.0382   -1.6935    0.7103 H       1  UNL1        0.0654
     42 H           0.3538   -1.3526    1.4927 H       1  UNL1        0.1490
     43 H          -1.5922    0.7532    1.8402 H       1  UNL1        0.0471
     44 H          -1.9559   -0.9582    1.6543 H       1  UNL1        0.0471
     45 H          -1.2775    1.1066   -0.5552 H       1  UNL1        0.0412
     46 H          -0.9675    0.3138   -2.7453 H       1  UNL1        0.0621
     47 H          -0.4397   -1.5878   -4.2677 H       1  UNL1        0.0619
     48 H          -0.6862   -3.8218   -3.4527 H       1  UNL1        0.0646
     49 H          -1.9636   -2.4808    0.3362 H       1  UNL1        0.0649
     50 H          -2.9414    1.9016   -1.9142 H       1  UNL1        0.0621
     51 H          -5.2763    2.5460   -2.1192 H       1  UNL1        0.0639
     52 H          -7.8484    2.1024   -0.9885 H       1  UNL1        0.1671
     53 H          -9.2325    0.3881    2.1369 H       1  UNL1        0.0307
     54 H          -9.5988   -0.2098    0.4845 H       1  UNL1        0.0307
     55 H          -9.6530    1.5631    0.8515 H       1  UNL1        0.0307
     56 H          -3.9349   -0.6569    1.3286 H       1  UNL1        0.0642
     57 H           5.1553    2.5242    0.9889 H       1  UNL1        0.0654
@<TRIPOS>BOND
     1     1     2    1
     2     2     3   ar
     3     3     4   ar
     4     4     5   ar
     5     5     6    1
     6     6     7   ar
     7     7     8   ar
     8     8     9    1
     9     8    10   ar
    10    10    11    1
    11    11    12    2
    12    11    13   am
    13    13    14    1
    14    14    15    1
    15    15    16    1
    16    16    17   ar
    17    17    18   ar
    18    18    19   ar
    19    19    20   ar
    20    20    21    1
    21    20    22   ar
    22    15    23    1
    23    23    24   ar
    24    24    25   ar
    25    25    26   ar
    26    26    27   ar
    27    27    28   ar
    28    28    29    1
    29    28    30   ar
    30    30    31   ar
    31    31    32   ar
    32    10    33   ar
    33    33    34    1
    34    33    35   ar
    35     5    36   ar
    36    36     2   ar
    37    35     6   ar
    38    22    16   ar
    39    32    23   ar
    40    31    26   ar
    41     1    37    1
    42     1    38    1
    43     1    39    1
    44     4    40    1
    45     7    41    1
    46    13    42    1
    47    14    43    1
    48    14    44    1
    49    15    45    1
    50    17    46    1
    51    18    47    1
    52    19    48    1
    53    22    49    1
    54    24    50    1
    55    25    51    1
    56    27    52    1
    57    29    53    1
    58    29    54    1
    59    29    55    1
    60    32    56    1
    61    35    57    1
