@<TRIPOS>MOLECULE
*****
 51 54 0 0 0
SMALL
GASTEIGER

@<TRIPOS>ATOM
      1 O           2.2674    1.3976   -1.7109 O.2     1  UNL1       -0.2449
      2 C           2.1993    0.5813   -0.7572 C.2     1  UNL1        0.3398
      3 O           0.9350    0.2510   -0.3110 O.3     1  UNL1       -0.4534
      4 C          -0.2501    0.7784   -0.8671 C.3     1  UNL1        0.1483
      5 C          -0.9278    1.5852    0.2101 C.3     1  UNL1        0.0204
      6 C          -2.1340    2.2474   -0.3629 C.ar    1  UNL1        0.0395
      7 C          -2.5603    3.4603    0.1407 C.ar    1  UNL1        0.1271
      8 O          -1.9007    4.1091    1.1831 O.3     1  UNL1       -0.5063
      9 C          -3.6879    4.0227   -0.4360 C.ar    1  UNL1        0.0218
     10 C          -4.3644    3.4066   -1.4695 C.ar    1  UNL1        0.1238
     11 O          -5.5042    3.9666   -2.0585 O.3     1  UNL1       -0.5065
     12 C          -3.9084    2.2018   -1.9413 C.ar    1  UNL1        0.0221
     13 C          -2.7907    1.6106   -1.3942 C.ar    1  UNL1        0.1318
     14 O          -2.3435    0.3802   -1.8921 O.3     1  UNL1       -0.4800
     15 C          -1.1796   -0.2527   -1.3912 C.3     1  UNL1        0.1624
     16 C          -1.5524   -1.3162   -0.4206 C.ar    1  UNL1        0.0034
     17 C          -2.5695   -1.2053    0.5026 C.ar    1  UNL1       -0.0095
     18 C          -2.8710   -2.2232    1.3927 C.ar    1  UNL1        0.1623
     19 O          -3.8987   -2.0846    2.3105 O.3     1  UNL1       -0.5032
     20 C          -2.1618   -3.4034    1.3954 C.ar    1  UNL1        0.2006
     21 O          -2.4562   -4.4349    2.2865 O.3     1  UNL1       -0.5009
     22 C          -1.1377   -3.5428    0.4814 C.ar    1  UNL1        0.1623
     23 O          -0.4326   -4.7394    0.4974 O.3     1  UNL1       -0.5032
     24 C          -0.8450   -2.5244   -0.4001 C.ar    1  UNL1       -0.0095
     25 C           3.4228    0.0545   -0.2037 C.ar    1  UNL1        0.0661
     26 C           4.6495    0.4341   -0.7055 C.ar    1  UNL1       -0.0023
     27 C           5.8503   -0.0291   -0.2249 C.ar    1  UNL1        0.1628
     28 O           7.0698    0.3879   -0.7700 O.3     1  UNL1       -0.5032
     29 C           5.8517   -0.9313    0.8255 C.ar    1  UNL1        0.2006
     30 O           7.0469   -1.4245    1.3413 O.3     1  UNL1       -0.5009
     31 C           4.6356   -1.3342    1.3540 C.ar    1  UNL1        0.1628
     32 O           4.6895   -2.2388    2.4045 O.3     1  UNL1       -0.5032
     33 C           3.4485   -0.8496    0.8477 C.ar    1  UNL1       -0.0023
     34 H          -0.0389    1.4868   -1.7022 H       1  UNL1        0.0778
     35 H          -0.2409    2.3508    0.6463 H       1  UNL1        0.0353
     36 H          -1.1759    0.8807    1.0412 H       1  UNL1        0.0353
     37 H          -0.9134    4.1949    1.2676 H       1  UNL1        0.2921
     38 H          -4.0838    4.9774   -0.0921 H       1  UNL1        0.0691
     39 H          -5.8683    4.8314   -1.6488 H       1  UNL1        0.2921
     40 H          -4.4149    1.6845   -2.7556 H       1  UNL1        0.0691
     41 H          -0.7518   -0.7611   -2.3195 H       1  UNL1        0.0822
     42 H          -3.1654   -0.2919    0.5343 H       1  UNL1        0.0659
     43 H          -4.8329   -1.9337    1.9307 H       1  UNL1        0.2923
     44 H          -3.4216   -4.6858    2.4375 H       1  UNL1        0.2924
     45 H          -0.7725   -5.4621   -0.1391 H       1  UNL1        0.2923
     46 H          -0.0346   -2.6587   -1.1092 H       1  UNL1        0.0659
     47 H           4.7153    1.1463   -1.5379 H       1  UNL1        0.0663
     48 H           7.1416    0.4350   -1.7833 H       1  UNL1        0.2923
     49 H           7.8863   -1.3839    0.7467 H       1  UNL1        0.2924
     50 H           4.8599   -1.9841    3.3644 H       1  UNL1        0.2923
     51 H           2.5223   -1.1673    1.2629 H       1  UNL1        0.0663
@<TRIPOS>BOND
     1     1     2    2
     2     2     3    1
     3     3     4    1
     4     4     5    1
     5     5     6    1
     6     6     7   ar
     7     7     8    1
     8     7     9   ar
     9     9    10   ar
    10    10    11    1
    11    10    12   ar
    12    12    13   ar
    13    13    14    1
    14    14    15    1
    15    15    16    1
    16    16    17   ar
    17    17    18   ar
    18    18    19    1
    19    18    20   ar
    20    20    21    1
    21    20    22   ar
    22    22    23    1
    23    22    24   ar
    24     2    25    1
    25    25    26   ar
    26    26    27   ar
    27    27    28    1
    28    27    29   ar
    29    29    30    1
    30    29    31   ar
    31    31    32    1
    32    31    33   ar
    33    15     4    1
    34    24    16   ar
    35    33    25   ar
    36    13     6   ar
    37     4    34    1
    38     5    35    1
    39     5    36    1
    40     8    37    1
    41     9    38    1
    42    11    39    1
    43    12    40    1
    44    15    41    1
    45    17    42    1
    46    19    43    1
    47    21    44    1
    48    23    45    1
    49    24    46    1
    50    26    47    1
    51    28    48    1
    52    30    49    1
    53    32    50    1
    54    33    51    1
