
     RDKit          3D

 35 36  0  0  0  0  0  0  0  0999 V2000
   -3.2792   -3.2365   -0.2312 F   0  0  0  0  0  0  0  0  0  0  0  0
   -2.1307   -2.3749   -0.1202 C   0  0  0  0  0  0  0  0  0  0  0  0
   -1.4757   -2.5410   -1.3069 F   0  0  0  0  0  0  0  0  0  0  0  0
   -1.4773   -2.8943    0.9585 F   0  0  0  0  0  0  0  0  0  0  0  0
   -2.7527   -1.0339    0.0721 C   0  0  0  0  0  0  0  0  0  0  0  0
   -1.9591    0.1204    0.2185 N   0  0  0  0  0  0  0  0  0  0  0  0
   -2.9323    1.1890    0.4371 C   0  0  0  0  0  0  0  0  0  0  0  0
   -3.7618    1.5665   -0.7305 C   0  0  0  0  0  0  0  0  0  0  0  0
   -2.9479    1.9817   -1.7725 F   0  0  0  0  0  0  0  0  0  0  0  0
   -4.3963    2.7814   -0.3387 F   0  0  0  0  0  0  0  0  0  0  0  0
   -4.7855    0.7560   -1.0810 F   0  0  0  0  0  0  0  0  0  0  0  0
   -0.5811    0.4659    0.2179 C   0  0  0  0  0  0  0  0  0  0  0  0
    0.4980   -0.3546    0.1252 C   0  0  0  0  0  0  0  0  0  0  0  0
    1.8234   -0.0182    0.0880 C   0  0  0  0  0  0  0  0  0  0  0  0
    2.1290    1.3251    0.1519 C   0  0  0  0  0  0  0  0  0  0  0  0
    3.4255    1.6956    0.1184 N   0  0  0  0  0  0  0  0  0  0  0  0
    4.4546    0.8374    0.0260 C   0  0  0  0  0  0  0  0  0  0  0  0
    5.6501    1.2650   -0.0001 O   0  0  0  0  0  0  0  0  0  0  0  0
    4.1727   -0.5047   -0.0388 C   0  0  0  0  0  0  0  0  0  0  0  0
    2.8515   -0.9290   -0.0074 C   0  0  0  0  0  0  0  0  0  0  0  0
    2.5553   -2.3671   -0.0790 C   0  0  0  0  0  0  0  0  0  0  0  0
    1.7829   -2.7007   -1.1736 F   0  0  0  0  0  0  0  0  0  0  0  0
    3.7263   -3.0989   -0.2060 F   0  0  0  0  0  0  0  0  0  0  0  0
    1.9134   -2.7763    1.0764 F   0  0  0  0  0  0  0  0  0  0  0  0
    1.0848    2.2275    0.2478 C   0  0  0  0  0  0  0  0  0  0  0  0
   -0.2167    1.7890    0.2778 C   0  0  0  0  0  0  0  0  0  0  0  0
   -3.4172   -1.1307    0.9945 H   0  0  0  0  0  0  0  0  0  0  0  0
   -3.4819   -0.9553   -0.7982 H   0  0  0  0  0  0  0  0  0  0  0  0
   -3.6068    0.8513    1.2880 H   0  0  0  0  0  0  0  0  0  0  0  0
   -2.4553    2.0940    0.8305 H   0  0  0  0  0  0  0  0  0  0  0  0
    0.3647   -1.4116    0.0736 H   0  0  0  0  0  0  0  0  0  0  0  0
    3.6696    2.6979    0.1656 H   0  0  0  0  0  0  0  0  0  0  0  0
    4.9663   -1.2240   -0.1137 H   0  0  0  0  0  0  0  0  0  0  0  0
    1.4278    3.2566    0.2918 H   0  0  0  0  0  0  0  0  0  0  0  0
   -0.8383    2.6513    0.3383 H   0  0  0  0  0  0  0  0  0  0  0  0
  1  2  1  0
  2  3  1  0
  2  4  1  0
  2  5  1  0
  5  6  1  0
  6  7  1  0
  7  8  1  0
  8  9  1  0
  8 10  1  0
  8 11  1  0
  6 12  1  0
 12 13  2  0
 13 14  1  0
 14 15  2  0
 15 16  1  0
 16 17  1  0
 17 18  2  0
 17 19  1  0
 19 20  2  0
 20 21  1  0
 21 22  1  0
 21 23  1  0
 21 24  1  0
 15 25  1  0
 25 26  2  0
 26 12  1  0
 20 14  1  0
  5 27  1  0
  5 28  1  0
  7 29  1  0
  7 30  1  0
 13 31  1  0
 16 32  1  0
 19 33  1  0
 25 34  1  0
 26 35  1  0
M  END
$$$$
