@<TRIPOS>MOLECULE
*****
 59 63 0 0 0
SMALL
GASTEIGER

@<TRIPOS>ATOM
      1 O          -0.6559    1.1916    0.8498 O.2     1  UNL1       -0.2701
      2 C          -1.0592    0.1398    0.2945 C.2     1  UNL1        0.2473
      3 N          -2.4851    0.0208    0.1661 N.am    1  UNL1       -0.3112
      4 C          -3.3454    1.0910    0.6645 C.3     1  UNL1        0.0133
      5 C          -4.8036    0.8206    0.4661 C.3     1  UNL1       -0.0215
      6 C          -5.2093    0.6516   -0.9735 C.3     1  UNL1        0.0161
      7 N          -6.6437    0.4177   -1.0911 N.am    1  UNL1       -0.3014
      8 C          -7.6040    1.5136   -1.2255 C.3     1  UNL1        0.0151
      9 C          -8.7721    1.0337   -0.3847 C.3     1  UNL1       -0.0289
     10 C          -8.7998   -0.4410   -0.6648 C.3     1  UNL1        0.0256
     11 C          -7.4013   -0.7588   -1.1001 C.2     1  UNL1        0.2156
     12 O          -6.9469   -1.8976   -1.4294 O.2     1  UNL1       -0.2756
     13 C          -0.1687   -0.8666   -0.1735 C.ar    1  UNL1        0.0758
     14 C          -0.6936   -1.8520   -1.0086 C.ar    1  UNL1        0.0415
     15 N           0.0465   -2.8210   -1.5675 N.ar    1  UNL1       -0.2624
     16 C           1.3508   -2.8454   -1.3137 C.ar    1  UNL1        0.0293
     17 C           1.9289   -1.8990   -0.4949 C.ar    1  UNL1       -0.0216
     18 C           1.1786   -0.8975    0.0856 C.ar    1  UNL1        0.0476
     19 N           1.7869    0.0667    0.8904 N.pl3   1  UNL1       -0.2969
     20 C           3.1763    0.2671    1.0503 C.ar    1  UNL1        0.1546
     21 N           4.1316   -0.2974    0.3074 N.ar    1  UNL1       -0.2101
     22 C           5.4446   -0.1300    0.4644 C.ar    1  UNL1        0.1670
     23 C           6.4754   -0.7270   -0.3693 C.ar    1  UNL1        0.0554
     24 C           7.8190   -0.5742   -0.0064 C.ar    1  UNL1       -0.0343
     25 C           8.8582   -1.0931   -0.7453 C.ar    1  UNL1        0.0187
     26 BR         10.6552   -0.8297   -0.1590 Br      1  UNL1       -0.0503
     27 C           8.6163   -1.7987   -1.8955 C.ar    1  UNL1       -0.0450
     28 C           7.2950   -1.9626   -2.2739 C.ar    1  UNL1       -0.0247
     29 C           6.2489   -1.4320   -1.5172 C.ar    1  UNL1        0.1341
     30 F           4.9881   -1.6202   -1.9605 F       1  UNL1       -0.2047
     31 N           5.8123    0.6954    1.4808 N.ar    1  UNL1       -0.2061
     32 C           4.9190    1.3027    2.2743 C.ar    1  UNL1        0.1838
     33 N           5.3173    2.1280    3.2829 N.ar    1  UNL1       -0.2328
     34 C           4.4052    2.7377    4.0749 C.ar    1  UNL1        0.0481
     35 C           3.0417    2.5515    3.8976 C.ar    1  UNL1        0.0466
     36 N           2.6751    1.7337    2.8957 N.ar    1  UNL1       -0.2469
     37 C           3.5742    1.1216    2.1011 C.ar    1  UNL1        0.1478
     38 H          -2.9059   -0.7972   -0.2564 H       1  UNL1        0.1490
     39 H          -3.1511    1.1843    1.7623 H       1  UNL1        0.0462
     40 H          -3.0670    2.0577    0.2160 H       1  UNL1        0.0462
     41 H          -5.0927   -0.0902    1.0663 H       1  UNL1        0.0295
     42 H          -5.3797    1.6574    0.9320 H       1  UNL1        0.0295
     43 H          -4.8779    1.4777   -1.6146 H       1  UNL1        0.0465
     44 H          -4.7315   -0.2858   -1.3485 H       1  UNL1        0.0465
     45 H          -7.1724    2.4635   -0.8398 H       1  UNL1        0.0465
     46 H          -7.9098    1.5786   -2.2918 H       1  UNL1        0.0465
     47 H          -9.7189    1.5346   -0.6464 H       1  UNL1        0.0285
     48 H          -8.5067    1.1941    0.6836 H       1  UNL1        0.0285
     49 H          -9.0783   -1.0273    0.2409 H       1  UNL1        0.0359
     50 H          -9.5098   -0.6047   -1.4960 H       1  UNL1        0.0359
     51 H          -1.7423   -1.8829   -1.2566 H       1  UNL1        0.0838
     52 H           2.0098   -3.6241   -1.7526 H       1  UNL1        0.0830
     53 H           2.9940   -1.9963   -0.3073 H       1  UNL1        0.0651
     54 H           1.1563    0.7079    1.4791 H       1  UNL1        0.1536
     55 H           8.0110   -0.0164    0.9029 H       1  UNL1        0.0636
     56 H           9.4116   -2.2181   -2.4942 H       1  UNL1        0.0629
     57 H           7.0374   -2.5084   -3.1722 H       1  UNL1        0.0647
     58 H           4.7230    3.4003    4.8844 H       1  UNL1        0.0846
     59 H           2.3444    3.0545    4.5470 H       1  UNL1        0.0845
@<TRIPOS>BOND
     1     1     2    2
     2     2     3   am
     3     3     4    1
     4     4     5    1
     5     5     6    1
     6     6     7    1
     7     7     8    1
     8     8     9    1
     9     9    10    1
    10    10    11    1
    11    11    12    2
    12     2    13    1
    13    13    14   ar
    14    14    15   ar
    15    15    16   ar
    16    16    17   ar
    17    17    18   ar
    18    18    19    1
    19    19    20    1
    20    20    21   ar
    21    21    22   ar
    22    22    23    1
    23    23    24   ar
    24    24    25   ar
    25    25    26    1
    26    25    27   ar
    27    27    28   ar
    28    28    29   ar
    29    29    30    1
    30    22    31   ar
    31    31    32   ar
    32    32    33   ar
    33    33    34   ar
    34    34    35   ar
    35    35    36   ar
    36    36    37   ar
    37    11     7   am
    38    18    13   ar
    39    37    20   ar
    40    29    23   ar
    41    37    32   ar
    42     3    38    1
    43     4    39    1
    44     4    40    1
    45     5    41    1
    46     5    42    1
    47     6    43    1
    48     6    44    1
    49     8    45    1
    50     8    46    1
    51     9    47    1
    52     9    48    1
    53    10    49    1
    54    10    50    1
    55    14    51    1
    56    16    52    1
    57    17    53    1
    58    19    54    1
    59    24    55    1
    60    27    56    1
    61    28    57    1
    62    34    58    1
    63    35    59    1
