
     RDKit          3D

 59 63  0  0  0  0  0  0  0  0999 V2000
   -0.6559    1.1916    0.8498 O   0  0  0  0  0  0  0  0  0  0  0  0
   -1.0592    0.1398    0.2945 C   0  0  0  0  0  0  0  0  0  0  0  0
   -2.4851    0.0208    0.1661 N   0  0  0  0  0  0  0  0  0  0  0  0
   -3.3454    1.0910    0.6645 C   0  0  0  0  0  0  0  0  0  0  0  0
   -4.8036    0.8206    0.4661 C   0  0  0  0  0  0  0  0  0  0  0  0
   -5.2093    0.6516   -0.9735 C   0  0  0  0  0  0  0  0  0  0  0  0
   -6.6437    0.4177   -1.0911 N   0  0  0  0  0  0  0  0  0  0  0  0
   -7.6040    1.5136   -1.2255 C   0  0  0  0  0  0  0  0  0  0  0  0
   -8.7721    1.0337   -0.3847 C   0  0  0  0  0  0  0  0  0  0  0  0
   -8.7998   -0.4410   -0.6648 C   0  0  0  0  0  0  0  0  0  0  0  0
   -7.4013   -0.7588   -1.1001 C   0  0  0  0  0  0  0  0  0  0  0  0
   -6.9469   -1.8976   -1.4294 O   0  0  0  0  0  0  0  0  0  0  0  0
   -0.1687   -0.8666   -0.1735 C   0  0  0  0  0  0  0  0  0  0  0  0
   -0.6936   -1.8520   -1.0086 C   0  0  0  0  0  0  0  0  0  0  0  0
    0.0465   -2.8210   -1.5675 N   0  0  0  0  0  0  0  0  0  0  0  0
    1.3508   -2.8454   -1.3137 C   0  0  0  0  0  0  0  0  0  0  0  0
    1.9289   -1.8990   -0.4949 C   0  0  0  0  0  0  0  0  0  0  0  0
    1.1786   -0.8975    0.0856 C   0  0  0  0  0  0  0  0  0  0  0  0
    1.7869    0.0667    0.8904 N   0  0  0  0  0  0  0  0  0  0  0  0
    3.1763    0.2671    1.0503 C   0  0  0  0  0  0  0  0  0  0  0  0
    4.1316   -0.2974    0.3074 N   0  0  0  0  0  0  0  0  0  0  0  0
    5.4446   -0.1300    0.4644 C   0  0  0  0  0  0  0  0  0  0  0  0
    6.4754   -0.7270   -0.3693 C   0  0  0  0  0  0  0  0  0  0  0  0
    7.8190   -0.5742   -0.0064 C   0  0  0  0  0  0  0  0  0  0  0  0
    8.8582   -1.0931   -0.7453 C   0  0  0  0  0  0  0  0  0  0  0  0
   10.6552   -0.8297   -0.1590 Br  0  0  0  0  0  0  0  0  0  0  0  0
    8.6163   -1.7987   -1.8955 C   0  0  0  0  0  0  0  0  0  0  0  0
    7.2950   -1.9626   -2.2739 C   0  0  0  0  0  0  0  0  0  0  0  0
    6.2489   -1.4320   -1.5172 C   0  0  0  0  0  0  0  0  0  0  0  0
    4.9881   -1.6202   -1.9605 F   0  0  0  0  0  0  0  0  0  0  0  0
    5.8123    0.6954    1.4808 N   0  0  0  0  0  0  0  0  0  0  0  0
    4.9190    1.3027    2.2743 C   0  0  0  0  0  0  0  0  0  0  0  0
    5.3173    2.1280    3.2829 N   0  0  0  0  0  0  0  0  0  0  0  0
    4.4052    2.7377    4.0749 C   0  0  0  0  0  0  0  0  0  0  0  0
    3.0417    2.5515    3.8976 C   0  0  0  0  0  0  0  0  0  0  0  0
    2.6751    1.7337    2.8957 N   0  0  0  0  0  0  0  0  0  0  0  0
    3.5742    1.1216    2.1011 C   0  0  0  0  0  0  0  0  0  0  0  0
   -2.9059   -0.7972   -0.2564 H   0  0  0  0  0  0  0  0  0  0  0  0
   -3.1511    1.1843    1.7623 H   0  0  0  0  0  0  0  0  0  0  0  0
   -3.0670    2.0577    0.2160 H   0  0  0  0  0  0  0  0  0  0  0  0
   -5.0927   -0.0902    1.0663 H   0  0  0  0  0  0  0  0  0  0  0  0
   -5.3797    1.6574    0.9320 H   0  0  0  0  0  0  0  0  0  0  0  0
   -4.8779    1.4777   -1.6146 H   0  0  0  0  0  0  0  0  0  0  0  0
   -4.7315   -0.2858   -1.3485 H   0  0  0  0  0  0  0  0  0  0  0  0
   -7.1724    2.4635   -0.8398 H   0  0  0  0  0  0  0  0  0  0  0  0
   -7.9098    1.5786   -2.2918 H   0  0  0  0  0  0  0  0  0  0  0  0
   -9.7189    1.5346   -0.6464 H   0  0  0  0  0  0  0  0  0  0  0  0
   -8.5067    1.1941    0.6836 H   0  0  0  0  0  0  0  0  0  0  0  0
   -9.0783   -1.0273    0.2409 H   0  0  0  0  0  0  0  0  0  0  0  0
   -9.5098   -0.6047   -1.4960 H   0  0  0  0  0  0  0  0  0  0  0  0
   -1.7423   -1.8829   -1.2566 H   0  0  0  0  0  0  0  0  0  0  0  0
    2.0098   -3.6241   -1.7526 H   0  0  0  0  0  0  0  0  0  0  0  0
    2.9940   -1.9963   -0.3073 H   0  0  0  0  0  0  0  0  0  0  0  0
    1.1563    0.7079    1.4791 H   0  0  0  0  0  0  0  0  0  0  0  0
    8.0110   -0.0164    0.9029 H   0  0  0  0  0  0  0  0  0  0  0  0
    9.4116   -2.2181   -2.4942 H   0  0  0  0  0  0  0  0  0  0  0  0
    7.0374   -2.5084   -3.1722 H   0  0  0  0  0  0  0  0  0  0  0  0
    4.7230    3.4003    4.8844 H   0  0  0  0  0  0  0  0  0  0  0  0
    2.3444    3.0545    4.5470 H   0  0  0  0  0  0  0  0  0  0  0  0
  1  2  2  0
  2  3  1  0
  3  4  1  0
  4  5  1  0
  5  6  1  0
  6  7  1  0
  7  8  1  0
  8  9  1  0
  9 10  1  0
 10 11  1  0
 11 12  2  0
  2 13  1  0
 13 14  2  0
 14 15  1  0
 15 16  2  0
 16 17  1  0
 17 18  2  0
 18 19  1  0
 19 20  1  0
 20 21  2  0
 21 22  1  0
 22 23  1  0
 23 24  2  0
 24 25  1  0
 25 26  1  0
 25 27  2  0
 27 28  1  0
 28 29  2  0
 29 30  1  0
 22 31  2  0
 31 32  1  0
 32 33  2  0
 33 34  1  0
 34 35  2  0
 35 36  1  0
 36 37  2  0
 11  7  1  0
 18 13  1  0
 37 20  1  0
 29 23  1  0
 37 32  1  0
  3 38  1  0
  4 39  1  0
  4 40  1  0
  5 41  1  0
  5 42  1  0
  6 43  1  0
  6 44  1  0
  8 45  1  0
  8 46  1  0
  9 47  1  0
  9 48  1  0
 10 49  1  0
 10 50  1  0
 14 51  1  0
 16 52  1  0
 17 53  1  0
 19 54  1  0
 24 55  1  0
 27 56  1  0
 28 57  1  0
 34 58  1  0
 35 59  1  0
M  END
$$$$
