
     RDKit          3D

 67 69  0  0  0  0  0  0  0  0999 V2000
   -5.1994    1.0061    1.1053 C   0  0  1  0  0  0  0  0  0  0  0  0
   -4.8789    0.9119    2.5841 C   0  0  0  0  0  0  0  0  0  0  0  0
   -3.9577   -0.0991    2.8464 O   0  0  0  0  0  0  0  0  0  0  0  0
   -4.1029    1.2748    0.3353 O   0  0  0  0  0  0  0  0  0  0  0  0
   -3.5267    0.2003   -0.2968 C   0  0  2  0  0  0  0  0  0  0  0  0
   -2.5024    0.7006   -1.0995 O   0  0  0  0  0  0  0  0  0  0  0  0
   -1.2425    0.2413   -0.7361 C   0  0  2  0  0  0  0  0  0  0  0  0
   -0.3656    1.4422   -0.4774 C   0  0  1  0  0  0  0  0  0  0  0  0
   -0.4339    1.8512    0.9780 C   0  0  0  0  0  0  0  0  0  0  0  0
    0.2243    3.0527    1.2043 O   0  0  0  0  0  0  0  0  0  0  0  0
    0.9344    1.2693   -0.9288 O   0  0  0  0  0  0  0  0  0  0  0  0
    1.4563    0.0389   -0.6795 C   0  0  2  0  0  0  0  0  0  0  0  0
    2.7695   -0.0295   -1.1090 O   0  0  0  0  0  0  0  0  0  0  0  0
    3.6740   -0.2453   -0.1049 C   0  0  2  0  0  0  0  0  0  0  0  0
    4.7995    0.7498   -0.0556 C   0  0  1  0  0  0  0  0  0  0  0  0
    4.3362    2.1671    0.1145 C   0  0  0  0  0  0  0  0  0  0  0  0
    3.6087    2.6700   -0.9415 O   0  0  0  0  0  0  0  0  0  0  0  0
    5.5833    0.4671    1.1829 N   0  0  0  0  0  0  0  0  0  0  0  0
    5.8260   -0.8094    1.3753 C   0  0  0  0  0  0  0  0  0  0  0  0
    6.5682   -1.0733    2.5498 N   0  0  0  0  0  0  0  0  0  0  0  0
    7.2344   -0.1265    3.2704 O   0  0  0  0  0  0  0  0  0  0  0  0
    5.4326   -1.9578    0.5361 C   0  0  2  0  0  0  0  0  0  0  0  0
    6.5734   -2.2706   -0.2364 O   0  0  0  0  0  0  0  0  0  0  0  0
    4.2516   -1.6607   -0.3110 C   0  0  1  0  0  0  0  0  0  0  0  0
    3.2185   -2.5518    0.0268 O   0  0  0  0  0  0  0  0  0  0  0  0
    0.6921   -1.0864   -1.3439 C   0  0  2  0  0  0  0  0  0  0  0  0
    1.4030   -1.7405   -2.3330 O   0  0  0  0  0  0  0  0  0  0  0  0
   -0.6238   -0.5245   -1.8826 C   0  0  1  0  0  0  0  0  0  0  0  0
   -1.4429   -1.5537   -2.3428 O   0  0  0  0  0  0  0  0  0  0  0  0
   -4.4373   -0.5993   -1.1505 C   0  0  2  0  0  0  0  0  0  0  0  0
   -4.2597   -0.3271   -2.5272 O   0  0  0  0  0  0  0  0  0  0  0  0
   -5.8944   -0.3332   -0.7913 C   0  0  1  0  0  0  0  0  0  0  0  0
   -6.6465   -1.4013   -1.2487 O   0  0  0  0  0  0  0  0  0  0  0  0
   -5.9302   -0.2546    0.7186 C   0  0  2  0  0  0  0  0  0  0  0  0
   -7.2674   -0.1704    1.1226 O   0  0  0  0  0  0  0  0  0  0  0  0
   -5.9143    1.8418    0.9810 H   0  0  0  0  0  0  0  0  0  0  0  0
   -4.4577    1.8474    3.0088 H   0  0  0  0  0  0  0  0  0  0  0  0
   -5.7867    0.7050    3.1863 H   0  0  0  0  0  0  0  0  0  0  0  0
   -4.3603   -0.9796    3.0235 H   0  0  0  0  0  0  0  0  0  0  0  0
   -3.0201   -0.4872    0.4423 H   0  0  0  0  0  0  0  0  0  0  0  0
   -1.2713   -0.4441    0.1333 H   0  0  0  0  0  0  0  0  0  0  0  0
   -0.7785    2.2847   -1.0693 H   0  0  0  0  0  0  0  0  0  0  0  0
    0.0371    1.0909    1.6405 H   0  0  0  0  0  0  0  0  0  0  0  0
   -1.5052    2.0038    1.2222 H   0  0  0  0  0  0  0  0  0  0  0  0
   -0.3162    3.8544    0.9823 H   0  0  0  0  0  0  0  0  0  0  0  0
    1.4634   -0.1059    0.4343 H   0  0  0  0  0  0  0  0  0  0  0  0
    3.1943   -0.2521    0.9179 H   0  0  0  0  0  0  0  0  0  0  0  0
    5.4460    0.6786   -0.9523 H   0  0  0  0  0  0  0  0  0  0  0  0
    5.2670    2.7861    0.2120 H   0  0  0  0  0  0  0  0  0  0  0  0
    3.7993    2.2702    1.0870 H   0  0  0  0  0  0  0  0  0  0  0  0
    3.9206    2.1923   -1.7698 H   0  0  0  0  0  0  0  0  0  0  0  0
    6.6934   -2.0125    2.9996 H   0  0  0  0  0  0  0  0  0  0  0  0
    6.9659    0.7935    3.0124 H   0  0  0  0  0  0  0  0  0  0  0  0
    5.1960   -2.8007    1.2217 H   0  0  0  0  0  0  0  0  0  0  0  0
    7.3770   -2.3105    0.3084 H   0  0  0  0  0  0  0  0  0  0  0  0
    4.5079   -1.8567   -1.3577 H   0  0  0  0  0  0  0  0  0  0  0  0
    3.0013   -2.4015    0.9820 H   0  0  0  0  0  0  0  0  0  0  0  0
    0.4207   -1.8329   -0.5725 H   0  0  0  0  0  0  0  0  0  0  0  0
    1.1890   -1.4352   -3.2494 H   0  0  0  0  0  0  0  0  0  0  0  0
   -0.4236    0.2288   -2.6800 H   0  0  0  0  0  0  0  0  0  0  0  0
   -1.4026   -1.5448   -3.3319 H   0  0  0  0  0  0  0  0  0  0  0  0
   -4.2841   -1.6934   -1.0399 H   0  0  0  0  0  0  0  0  0  0  0  0
   -3.9076    0.6157   -2.5528 H   0  0  0  0  0  0  0  0  0  0  0  0
   -6.2349    0.6263   -1.2342 H   0  0  0  0  0  0  0  0  0  0  0  0
   -7.4000   -1.0706   -1.8143 H   0  0  0  0  0  0  0  0  0  0  0  0
   -5.4654   -1.1424    1.1607 H   0  0  0  0  0  0  0  0  0  0  0  0
   -7.8240   -0.6777    0.4637 H   0  0  0  0  0  0  0  0  0  0  0  0
  1  2  1  0
  2  3  1  0
  1  4  1  0
  4  5  1  0
  5  6  1  0
  6  7  1  0
  7  8  1  0
  8  9  1  0
  9 10  1  0
  8 11  1  0
 11 12  1  0
 12 13  1  0
 13 14  1  0
 14 15  1  0
 15 16  1  0
 16 17  1  0
 15 18  1  0
 18 19  2  0
 19 20  1  0
 20 21  1  0
 19 22  1  0
 22 23  1  0
 22 24  1  0
 24 25  1  0
 12 26  1  0
 26 27  1  0
 26 28  1  0
 28 29  1  0
  5 30  1  0
 30 31  1  0
 30 32  1  0
 32 33  1  0
 32 34  1  0
 34 35  1  0
 34  1  1  0
 28  7  1  0
 24 14  1  0
  1 36  1  1
  2 37  1  0
  2 38  1  0
  3 39  1  0
  5 40  1  1
  7 41  1  1
  8 42  1  6
  9 43  1  0
  9 44  1  0
 10 45  1  0
 12 46  1  1
 14 47  1  1
 15 48  1  6
 16 49  1  0
 16 50  1  0
 17 51  1  0
 20 52  1  0
 21 53  1  0
 22 54  1  1
 23 55  1  0
 24 56  1  6
 25 57  1  0
 26 58  1  1
 27 59  1  0
 28 60  1  6
 29 61  1  0
 30 62  1  6
 31 63  1  0
 32 64  1  6
 33 65  1  0
 34 66  1  1
 35 67  1  0
M  END
$$$$
