
     RDKit          3D

 40 42  0  0  0  0  0  0  0  0999 V2000
    6.0761   -0.1690    0.9772 C   0  0  0  0  0  0  0  0  0  0  0  0
    4.6719    0.2132    1.4497 C   0  0  0  0  0  0  0  0  0  0  0  0
    3.7732    0.0689    0.2623 C   0  0  0  0  0  0  0  0  0  0  0  0
    4.2838   -0.3097   -0.8279 O   0  0  0  0  0  0  0  0  0  0  0  0
    2.3783    0.3391    0.3128 N   0  0  0  0  0  0  0  0  0  0  0  0
    1.7536    0.1190   -0.9717 C   0  0  0  0  0  0  0  0  0  0  0  0
    0.2684    0.4039   -0.9286 C   0  0  0  0  0  0  0  0  0  0  0  0
   -0.4793   -0.4554    0.0545 C   0  0  2  0  0  0  0  0  0  0  0  0
   -0.3510   -1.9147   -0.2577 C   0  0  0  0  0  0  0  0  0  0  0  0
   -1.2870   -2.1795   -1.4326 C   0  0  0  0  0  0  0  0  0  0  0  0
   -2.4199   -1.2321   -1.1365 C   0  0  0  0  0  0  0  0  0  0  0  0
   -1.9347   -0.2413   -0.2746 C   0  0  0  0  0  0  0  0  0  0  0  0
   -2.7336    0.7851    0.1880 C   0  0  0  0  0  0  0  0  0  0  0  0
   -4.0595    0.7938   -0.2441 C   0  0  0  0  0  0  0  0  0  0  0  0
   -4.6717    1.8995    0.3363 O   0  0  0  0  0  0  0  0  0  0  0  0
   -3.9889    2.1632    1.5600 C   0  0  0  0  0  0  0  0  0  0  0  0
   -2.5450    1.9595    1.0818 C   0  0  0  0  0  0  0  0  0  0  0  0
   -4.5893   -0.1573   -1.0925 C   0  0  0  0  0  0  0  0  0  0  0  0
   -3.7427   -1.1589   -1.5218 C   0  0  0  0  0  0  0  0  0  0  0  0
    6.6507    0.7474    0.7209 H   0  0  0  0  0  0  0  0  0  0  0  0
    6.5919   -0.8164    1.7223 H   0  0  0  0  0  0  0  0  0  0  0  0
    6.0259   -0.7658    0.0357 H   0  0  0  0  0  0  0  0  0  0  0  0
    4.3584   -0.5533    2.2111 H   0  0  0  0  0  0  0  0  0  0  0  0
    4.6536    1.2111    1.8882 H   0  0  0  0  0  0  0  0  0  0  0  0
    2.0284    0.6502    1.2577 H   0  0  0  0  0  0  0  0  0  0  0  0
    2.1960    0.8726   -1.6791 H   0  0  0  0  0  0  0  0  0  0  0  0
    2.0215   -0.8540   -1.3813 H   0  0  0  0  0  0  0  0  0  0  0  0
    0.1055    1.4709   -0.7625 H   0  0  0  0  0  0  0  0  0  0  0  0
   -0.1561    0.1646   -1.9293 H   0  0  0  0  0  0  0  0  0  0  0  0
   -0.2853   -0.2094    1.1129 H   0  0  0  0  0  0  0  0  0  0  0  0
   -0.6422   -2.5264    0.6245 H   0  0  0  0  0  0  0  0  0  0  0  0
    0.6709   -2.1448   -0.5747 H   0  0  0  0  0  0  0  0  0  0  0  0
   -1.6248   -3.2387   -1.3759 H   0  0  0  0  0  0  0  0  0  0  0  0
   -0.8238   -1.9444   -2.3898 H   0  0  0  0  0  0  0  0  0  0  0  0
   -4.1686    3.1634    1.9433 H   0  0  0  0  0  0  0  0  0  0  0  0
   -4.1992    1.3260    2.2454 H   0  0  0  0  0  0  0  0  0  0  0  0
   -1.8638    1.7524    1.9240 H   0  0  0  0  0  0  0  0  0  0  0  0
   -2.2435    2.8544    0.4835 H   0  0  0  0  0  0  0  0  0  0  0  0
   -5.6165   -0.1355   -1.4167 H   0  0  0  0  0  0  0  0  0  0  0  0
   -4.0818   -1.9512   -2.1948 H   0  0  0  0  0  0  0  0  0  0  0  0
  1  2  1  0
  2  3  1  0
  3  4  2  0
  3  5  1  0
  5  6  1  0
  6  7  1  0
  7  8  1  0
  8  9  1  0
  9 10  1  0
 10 11  1  0
 11 12  2  0
 12 13  1  0
 13 14  2  0
 14 15  1  0
 15 16  1  0
 16 17  1  0
 14 18  1  0
 18 19  2  0
 12  8  1  0
 17 13  1  0
 19 11  1  0
  1 20  1  0
  1 21  1  0
  1 22  1  0
  2 23  1  0
  2 24  1  0
  5 25  1  0
  6 26  1  0
  6 27  1  0
  7 28  1  0
  7 29  1  0
  8 30  1  1
  9 31  1  0
  9 32  1  0
 10 33  1  0
 10 34  1  0
 16 35  1  0
 16 36  1  0
 17 37  1  0
 17 38  1  0
 18 39  1  0
 19 40  1  0
M  END
$$$$
