@<TRIPOS>MOLECULE
*****
 78 83 0 0 0
SMALL
GASTEIGER

@<TRIPOS>ATOM
      1 C          -8.6523    3.0603   -0.4339 C.3     1  UNL1       -0.0650
      2 C          -9.4412    1.7802   -0.3373 C.3     1  UNL1       -0.0519
      3 C          -8.7264    0.7646    0.5558 C.3     1  UNL1       -0.0279
      4 C          -7.3935    0.4802   -0.0466 C.ar    1  UNL1       -0.0473
      5 C          -6.2832    1.2282    0.2834 C.ar    1  UNL1       -0.0567
      6 C          -5.0479    0.9601   -0.2757 C.ar    1  UNL1       -0.0351
      7 C          -4.8651   -0.0615   -1.1852 C.ar    1  UNL1        0.1053
      8 S          -3.2872   -0.3712   -1.8746 S.O2    1  UNL1        0.0585
      9 O          -3.3840   -0.9159   -3.2636 O.2     1  UNL1       -0.1530
     10 O          -2.5723    0.9482   -1.9654 O.2     1  UNL1       -0.1530
     11 N          -2.3877   -1.4757   -0.8937 N.3     1  UNL1       -0.1882
     12 C          -2.2247   -0.8317    0.3950 C.3     1  UNL1        0.0361
     13 C          -1.4405   -1.7544    1.3006 C.3     1  UNL1        0.0403
     14 C          -2.1247   -3.0619    1.5121 C.3     1  UNL1       -0.0316
     15 C          -1.0101   -4.0986    1.4321 C.3     1  UNL1       -0.0354
     16 C          -0.0716   -3.4653    0.4661 C.3     1  UNL1        0.0153
     17 N          -0.1869   -2.0494    0.6537 N.pl3   1  UNL1       -0.2952
     18 C           0.8179   -1.1072    0.2413 C.ar    1  UNL1        0.2239
     19 N           0.6276    0.2115    0.3560 N.ar    1  UNL1       -0.1809
     20 C           1.5744    1.0926   -0.0345 C.ar    1  UNL1        0.2214
     21 N           1.3408    2.4743    0.0859 N.pl3   1  UNL1       -0.3077
     22 C           2.2733    3.5002   -0.2611 C.3     1  UNL1        0.0547
     23 C           3.5100    3.3928    0.6432 C.ar    1  UNL1        0.0662
     24 C           3.5268    4.0603    1.8958 C.ar    1  UNL1        0.0005
     25 S           5.1672    3.6231    2.5133 S.2     1  UNL1       -0.0753
     26 C           5.6008    2.5998    0.9919 C.ar    1  UNL1        0.1086
     27 C           6.8970    1.9582    0.9268 C.ar    1  UNL1        0.0071
     28 C           7.8183    2.0459    1.9331 C.ar    1  UNL1       -0.0521
     29 C           9.0495    1.4071    1.8071 C.ar    1  UNL1       -0.0611
     30 C           9.3700    0.6801    0.6832 C.ar    1  UNL1       -0.0617
     31 C           8.4356    0.5937   -0.3326 C.ar    1  UNL1       -0.0611
     32 C           7.2010    1.2388   -0.1976 C.ar    1  UNL1       -0.0521
     33 N           4.5945    2.7375    0.3714 N.ar    1  UNL1       -0.2424
     34 N           2.7202    0.6118   -0.5442 N.ar    1  UNL1       -0.1810
     35 C           2.9527   -0.7089   -0.6773 C.ar    1  UNL1        0.2213
     36 N           4.1647   -1.2075   -1.2237 N.pl3   1  UNL1       -0.3105
     37 C           4.4045   -2.6322   -1.3519 C.3     1  UNL1        0.0234
     38 C           4.4323   -3.5185   -0.1816 C.3     1  UNL1       -0.0328
     39 C           5.7098   -3.2177   -0.9636 C.3     1  UNL1       -0.0328
     40 N           1.9586   -1.5382   -0.2650 N.ar    1  UNL1       -0.1809
     41 C          -5.9746   -0.8115   -1.5173 C.ar    1  UNL1       -0.0351
     42 C          -7.2140   -0.5419   -0.9557 C.ar    1  UNL1       -0.0567
     43 H          -9.3414    3.8099   -0.9221 H       1  UNL1        0.0230
     44 H          -8.2893    3.4327    0.5264 H       1  UNL1        0.0230
     45 H          -7.7946    2.9707   -1.1302 H       1  UNL1        0.0230
     46 H          -9.5591    1.3879   -1.3790 H       1  UNL1        0.0266
     47 H         -10.4625    1.9529    0.0499 H       1  UNL1        0.0266
     48 H          -9.3078   -0.1472    0.6802 H       1  UNL1        0.0313
     49 H          -8.5217    1.2961    1.5139 H       1  UNL1        0.0313
     50 H          -6.3924    2.0353    0.9930 H       1  UNL1        0.0621
     51 H          -4.1615    1.5545   -0.0152 H       1  UNL1        0.0637
     52 H          -1.4505   -1.6583   -1.2669 H       1  UNL1        0.1481
     53 H          -1.7655    0.1690    0.3265 H       1  UNL1        0.0460
     54 H          -3.2281   -0.6705    0.8863 H       1  UNL1        0.0460
     55 H          -1.1831   -1.2475    2.2646 H       1  UNL1        0.0514
     56 H          -2.8548   -3.3213    0.7268 H       1  UNL1        0.0284
     57 H          -2.6405   -3.0879    2.4814 H       1  UNL1        0.0284
     58 H          -0.5502   -4.1801    2.4294 H       1  UNL1        0.0281
     59 H          -1.3890   -5.0823    1.1137 H       1  UNL1        0.0281
     60 H          -0.3278   -3.6985   -0.5964 H       1  UNL1        0.0465
     61 H           0.9698   -3.7760    0.7030 H       1  UNL1        0.0465
     62 H           0.4083    2.8021    0.4600 H       1  UNL1        0.1493
     63 H           1.8451    4.4970   -0.1929 H       1  UNL1        0.0527
     64 H           2.5834    3.3205   -1.3180 H       1  UNL1        0.0527
     65 H           2.7846    4.6667    2.3749 H       1  UNL1        0.0712
     66 H           7.5675    2.6178    2.8167 H       1  UNL1        0.0624
     67 H           9.7500    1.5018    2.6281 H       1  UNL1        0.0618
     68 H          10.3472    0.1955    0.6270 H       1  UNL1        0.0618
     69 H           8.6786    0.0334   -1.2030 H       1  UNL1        0.0618
     70 H           6.4914    1.1607   -1.0004 H       1  UNL1        0.0624
     71 H           4.8744   -0.5059   -1.5305 H       1  UNL1        0.1492
     72 H           3.9477   -3.0710   -2.2768 H       1  UNL1        0.0498
     73 H           4.5001   -3.1420    0.8662 H       1  UNL1        0.0284
     74 H           4.0027   -4.5293   -0.2333 H       1  UNL1        0.0284
     75 H           6.0873   -4.1006   -1.5178 H       1  UNL1        0.0284
     76 H           6.4439   -2.5064   -0.5476 H       1  UNL1        0.0284
     77 H          -5.8457   -1.6172   -2.2291 H       1  UNL1        0.0637
     78 H          -8.0764   -1.1427   -1.2289 H       1  UNL1        0.0621
@<TRIPOS>BOND
     1     1     2    1
     2     2     3    1
     3     3     4    1
     4     4     5   ar
     5     5     6   ar
     6     6     7   ar
     7     7     8    1
     8     8     9    2
     9     8    10    2
    10     8    11    1
    11    11    12    1
    12    12    13    1
    13    13    14    1
    14    14    15    1
    15    15    16    1
    16    16    17    1
    17    17    18    1
    18    18    19   ar
    19    19    20   ar
    20    20    21    1
    21    21    22    1
    22    22    23    1
    23    23    24   ar
    24    24    25   ar
    25    25    26   ar
    26    26    27    1
    27    27    28   ar
    28    28    29   ar
    29    29    30   ar
    30    30    31   ar
    31    31    32   ar
    32    26    33   ar
    33    20    34   ar
    34    34    35   ar
    35    35    36    1
    36    36    37    1
    37    37    38    1
    38    38    39    1
    39    35    40   ar
    40     7    41   ar
    41    41    42   ar
    42    42     4   ar
    43    17    13    1
    44    40    18   ar
    45    33    23   ar
    46    39    37    1
    47    32    27   ar
    48     1    43    1
    49     1    44    1
    50     1    45    1
    51     2    46    1
    52     2    47    1
    53     3    48    1
    54     3    49    1
    55     5    50    1
    56     6    51    1
    57    11    52    1
    58    12    53    1
    59    12    54    1
    60    13    55    1
    61    14    56    1
    62    14    57    1
    63    15    58    1
    64    15    59    1
    65    16    60    1
    66    16    61    1
    67    21    62    1
    68    22    63    1
    69    22    64    1
    70    24    65    1
    71    28    66    1
    72    29    67    1
    73    30    68    1
    74    31    69    1
    75    32    70    1
    76    36    71    1
    77    37    72    1
    78    38    73    1
    79    38    74    1
    80    39    75    1
    81    39    76    1
    82    41    77    1
    83    42    78    1
