
     RDKit          3D

 78 83  0  0  0  0  0  0  0  0999 V2000
   -8.6523    3.0603   -0.4339 C   0  0  0  0  0  0  0  0  0  0  0  0
   -9.4412    1.7802   -0.3373 C   0  0  0  0  0  0  0  0  0  0  0  0
   -8.7264    0.7646    0.5558 C   0  0  0  0  0  0  0  0  0  0  0  0
   -7.3935    0.4802   -0.0466 C   0  0  0  0  0  0  0  0  0  0  0  0
   -6.2832    1.2282    0.2834 C   0  0  0  0  0  0  0  0  0  0  0  0
   -5.0479    0.9601   -0.2757 C   0  0  0  0  0  0  0  0  0  0  0  0
   -4.8651   -0.0615   -1.1852 C   0  0  0  0  0  0  0  0  0  0  0  0
   -3.2872   -0.3712   -1.8746 S   0  0  0  0  0  6  0  0  0  0  0  0
   -3.3840   -0.9159   -3.2636 O   0  0  0  0  0  0  0  0  0  0  0  0
   -2.5723    0.9482   -1.9654 O   0  0  0  0  0  0  0  0  0  0  0  0
   -2.3877   -1.4757   -0.8937 N   0  0  0  0  0  0  0  0  0  0  0  0
   -2.2247   -0.8317    0.3950 C   0  0  0  0  0  0  0  0  0  0  0  0
   -1.4405   -1.7544    1.3006 C   0  0  1  0  0  0  0  0  0  0  0  0
   -2.1247   -3.0619    1.5121 C   0  0  0  0  0  0  0  0  0  0  0  0
   -1.0101   -4.0986    1.4321 C   0  0  0  0  0  0  0  0  0  0  0  0
   -0.0716   -3.4653    0.4661 C   0  0  0  0  0  0  0  0  0  0  0  0
   -0.1869   -2.0494    0.6537 N   0  0  0  0  0  0  0  0  0  0  0  0
    0.8179   -1.1072    0.2413 C   0  0  0  0  0  0  0  0  0  0  0  0
    0.6276    0.2115    0.3560 N   0  0  0  0  0  0  0  0  0  0  0  0
    1.5744    1.0926   -0.0345 C   0  0  0  0  0  0  0  0  0  0  0  0
    1.3408    2.4743    0.0859 N   0  0  0  0  0  0  0  0  0  0  0  0
    2.2733    3.5002   -0.2611 C   0  0  0  0  0  0  0  0  0  0  0  0
    3.5100    3.3928    0.6432 C   0  0  0  0  0  0  0  0  0  0  0  0
    3.5268    4.0603    1.8958 C   0  0  0  0  0  0  0  0  0  0  0  0
    5.1672    3.6231    2.5133 S   0  0  0  0  0  0  0  0  0  0  0  0
    5.6008    2.5998    0.9919 C   0  0  0  0  0  0  0  0  0  0  0  0
    6.8970    1.9582    0.9268 C   0  0  0  0  0  0  0  0  0  0  0  0
    7.8183    2.0459    1.9331 C   0  0  0  0  0  0  0  0  0  0  0  0
    9.0495    1.4071    1.8071 C   0  0  0  0  0  0  0  0  0  0  0  0
    9.3700    0.6801    0.6832 C   0  0  0  0  0  0  0  0  0  0  0  0
    8.4356    0.5937   -0.3326 C   0  0  0  0  0  0  0  0  0  0  0  0
    7.2010    1.2388   -0.1976 C   0  0  0  0  0  0  0  0  0  0  0  0
    4.5945    2.7375    0.3714 N   0  0  0  0  0  0  0  0  0  0  0  0
    2.7202    0.6118   -0.5442 N   0  0  0  0  0  0  0  0  0  0  0  0
    2.9527   -0.7089   -0.6773 C   0  0  0  0  0  0  0  0  0  0  0  0
    4.1647   -1.2075   -1.2237 N   0  0  0  0  0  0  0  0  0  0  0  0
    4.4045   -2.6322   -1.3519 C   0  0  0  0  0  0  0  0  0  0  0  0
    4.4323   -3.5185   -0.1816 C   0  0  0  0  0  0  0  0  0  0  0  0
    5.7098   -3.2177   -0.9636 C   0  0  0  0  0  0  0  0  0  0  0  0
    1.9586   -1.5382   -0.2650 N   0  0  0  0  0  0  0  0  0  0  0  0
   -5.9746   -0.8115   -1.5173 C   0  0  0  0  0  0  0  0  0  0  0  0
   -7.2140   -0.5419   -0.9557 C   0  0  0  0  0  0  0  0  0  0  0  0
   -9.3414    3.8099   -0.9221 H   0  0  0  0  0  0  0  0  0  0  0  0
   -8.2893    3.4327    0.5264 H   0  0  0  0  0  0  0  0  0  0  0  0
   -7.7946    2.9707   -1.1302 H   0  0  0  0  0  0  0  0  0  0  0  0
   -9.5591    1.3879   -1.3790 H   0  0  0  0  0  0  0  0  0  0  0  0
  -10.4625    1.9529    0.0499 H   0  0  0  0  0  0  0  0  0  0  0  0
   -9.3078   -0.1472    0.6802 H   0  0  0  0  0  0  0  0  0  0  0  0
   -8.5217    1.2961    1.5139 H   0  0  0  0  0  0  0  0  0  0  0  0
   -6.3924    2.0353    0.9930 H   0  0  0  0  0  0  0  0  0  0  0  0
   -4.1615    1.5545   -0.0152 H   0  0  0  0  0  0  0  0  0  0  0  0
   -1.4505   -1.6583   -1.2669 H   0  0  0  0  0  0  0  0  0  0  0  0
   -1.7655    0.1690    0.3265 H   0  0  0  0  0  0  0  0  0  0  0  0
   -3.2281   -0.6705    0.8863 H   0  0  0  0  0  0  0  0  0  0  0  0
   -1.1831   -1.2475    2.2646 H   0  0  0  0  0  0  0  0  0  0  0  0
   -2.8548   -3.3213    0.7268 H   0  0  0  0  0  0  0  0  0  0  0  0
   -2.6405   -3.0879    2.4814 H   0  0  0  0  0  0  0  0  0  0  0  0
   -0.5502   -4.1801    2.4294 H   0  0  0  0  0  0  0  0  0  0  0  0
   -1.3890   -5.0823    1.1137 H   0  0  0  0  0  0  0  0  0  0  0  0
   -0.3278   -3.6985   -0.5964 H   0  0  0  0  0  0  0  0  0  0  0  0
    0.9698   -3.7760    0.7030 H   0  0  0  0  0  0  0  0  0  0  0  0
    0.4083    2.8021    0.4600 H   0  0  0  0  0  0  0  0  0  0  0  0
    1.8451    4.4970   -0.1929 H   0  0  0  0  0  0  0  0  0  0  0  0
    2.5834    3.3205   -1.3180 H   0  0  0  0  0  0  0  0  0  0  0  0
    2.7846    4.6667    2.3749 H   0  0  0  0  0  0  0  0  0  0  0  0
    7.5675    2.6178    2.8167 H   0  0  0  0  0  0  0  0  0  0  0  0
    9.7500    1.5018    2.6281 H   0  0  0  0  0  0  0  0  0  0  0  0
   10.3472    0.1955    0.6270 H   0  0  0  0  0  0  0  0  0  0  0  0
    8.6786    0.0334   -1.2030 H   0  0  0  0  0  0  0  0  0  0  0  0
    6.4914    1.1607   -1.0004 H   0  0  0  0  0  0  0  0  0  0  0  0
    4.8744   -0.5059   -1.5305 H   0  0  0  0  0  0  0  0  0  0  0  0
    3.9477   -3.0710   -2.2768 H   0  0  0  0  0  0  0  0  0  0  0  0
    4.5001   -3.1420    0.8662 H   0  0  0  0  0  0  0  0  0  0  0  0
    4.0027   -4.5293   -0.2333 H   0  0  0  0  0  0  0  0  0  0  0  0
    6.0873   -4.1006   -1.5178 H   0  0  0  0  0  0  0  0  0  0  0  0
    6.4439   -2.5064   -0.5476 H   0  0  0  0  0  0  0  0  0  0  0  0
   -5.8457   -1.6172   -2.2291 H   0  0  0  0  0  0  0  0  0  0  0  0
   -8.0764   -1.1427   -1.2289 H   0  0  0  0  0  0  0  0  0  0  0  0
  1  2  1  0
  2  3  1  0
  3  4  1  0
  4  5  2  0
  5  6  1  0
  6  7  2  0
  7  8  1  0
  8  9  2  0
  8 10  2  0
  8 11  1  0
 11 12  1  0
 12 13  1  0
 13 14  1  0
 14 15  1  0
 15 16  1  0
 16 17  1  0
 17 18  1  0
 18 19  2  0
 19 20  1  0
 20 21  1  0
 21 22  1  0
 22 23  1  0
 23 24  2  0
 24 25  1  0
 25 26  1  0
 26 27  1  0
 27 28  2  0
 28 29  1  0
 29 30  2  0
 30 31  1  0
 31 32  2  0
 26 33  2  0
 20 34  2  0
 34 35  1  0
 35 36  1  0
 36 37  1  0
 37 38  1  0
 38 39  1  0
 35 40  2  0
  7 41  1  0
 41 42  2  0
 42  4  1  0
 17 13  1  0
 40 18  1  0
 33 23  1  0
 39 37  1  0
 32 27  1  0
  1 43  1  0
  1 44  1  0
  1 45  1  0
  2 46  1  0
  2 47  1  0
  3 48  1  0
  3 49  1  0
  5 50  1  0
  6 51  1  0
 11 52  1  0
 12 53  1  0
 12 54  1  0
 13 55  1  1
 14 56  1  0
 14 57  1  0
 15 58  1  0
 15 59  1  0
 16 60  1  0
 16 61  1  0
 21 62  1  0
 22 63  1  0
 22 64  1  0
 24 65  1  0
 28 66  1  0
 29 67  1  0
 30 68  1  0
 31 69  1  0
 32 70  1  0
 36 71  1  0
 37 72  1  0
 38 73  1  0
 38 74  1  0
 39 75  1  0
 39 76  1  0
 41 77  1  0
 42 78  1  0
M  END
$$$$
