
     RDKit          3D

 60 64  0  0  0  0  0  0  0  0999 V2000
   -1.0441   -1.7286    3.2314 C   0  0  0  0  0  0  0  0  0  0  0  0
   -0.1005   -1.0438    2.4355 O   0  0  0  0  0  0  0  0  0  0  0  0
   -0.5692   -0.4394    1.2554 C   0  0  0  0  0  0  0  0  0  0  0  0
    0.2893    0.2658    0.3946 C   0  0  0  0  0  0  0  0  0  0  0  0
    1.5626    0.2837    0.8295 O   0  0  0  0  0  0  0  0  0  0  0  0
    2.7383    0.8052    0.3668 C   0  0  0  0  0  0  0  0  0  0  0  0
    3.2009    0.2834   -0.9481 C   0  0  0  0  0  0  0  0  0  0  0  0
    4.5066    0.9182   -1.3615 C   0  0  0  0  0  0  0  0  0  0  0  0
    5.5933    0.7101   -0.4635 N   0  0  0  0  0  0  0  0  0  0  0  0
    6.7485    1.4067   -1.0134 C   0  0  0  0  0  0  0  0  0  0  0  0
    8.0198    1.0658   -0.2908 C   0  0  0  0  0  0  0  0  0  0  0  0
    8.3180   -0.4175   -0.3244 C   0  0  0  0  0  0  0  0  0  0  0  0
    7.1201   -1.1736   -0.8562 C   0  0  0  0  0  0  0  0  0  0  0  0
    5.8866   -0.6428   -0.1228 C   0  0  0  0  0  0  0  0  0  0  0  0
   -0.3358    0.7929   -0.7132 C   0  0  0  0  0  0  0  0  0  0  0  0
   -1.6543    0.6869   -1.0209 C   0  0  0  0  0  0  0  0  0  0  0  0
   -2.1632    1.2366   -2.1249 N   0  0  0  0  0  0  0  0  0  0  0  0
   -3.4898    1.1236   -2.4247 C   0  0  0  0  0  0  0  0  0  0  0  0
   -4.2889    0.4400   -1.5785 N   0  0  0  0  0  0  0  0  0  0  0  0
   -3.7946   -0.1206   -0.4617 C   0  0  0  0  0  0  0  0  0  0  0  0
   -4.7033   -0.8211    0.3725 N   0  0  0  0  0  0  0  0  0  0  0  0
   -6.0719   -0.8922   -0.0128 C   0  0  0  0  0  0  0  0  0  0  0  0
   -6.5474   -1.9197   -0.8011 C   0  0  0  0  0  0  0  0  0  0  0  0
   -5.4013   -3.1334   -1.3083 Cl  0  0  0  0  0  0  0  0  0  0  0  0
   -7.8788   -1.9603   -1.1581 C   0  0  0  0  0  0  0  0  0  0  0  0
   -8.7071   -0.9527   -0.7063 C   0  0  0  0  0  0  0  0  0  0  0  0
   -8.2207    0.0757    0.0853 C   0  0  0  0  0  0  0  0  0  0  0  0
   -6.8905    0.1295    0.4506 C   0  0  0  0  0  0  0  0  0  0  0  0
   -6.7804    1.2774    1.2268 O   0  0  0  0  0  0  0  0  0  0  0  0
   -7.9326    2.0550    1.0734 C   0  0  0  0  0  0  0  0  0  0  0  0
   -8.9173    1.1542    0.6160 O   0  0  0  0  0  0  0  0  0  0  0  0
   -2.4586   -0.0026   -0.1668 C   0  0  0  0  0  0  0  0  0  0  0  0
   -1.9264   -0.5690    0.9731 C   0  0  0  0  0  0  0  0  0  0  0  0
   -0.5653   -2.1328    4.1236 H   0  0  0  0  0  0  0  0  0  0  0  0
   -1.4975   -2.5874    2.6959 H   0  0  0  0  0  0  0  0  0  0  0  0
   -1.8151   -0.9892    3.5296 H   0  0  0  0  0  0  0  0  0  0  0  0
    3.5354    0.5579    1.1321 H   0  0  0  0  0  0  0  0  0  0  0  0
    2.7117    1.9194    0.3816 H   0  0  0  0  0  0  0  0  0  0  0  0
    2.4753    0.5663   -1.7346 H   0  0  0  0  0  0  0  0  0  0  0  0
    3.2068   -0.8152   -0.9310 H   0  0  0  0  0  0  0  0  0  0  0  0
    4.8050    0.5051   -2.3488 H   0  0  0  0  0  0  0  0  0  0  0  0
    4.3219    1.9837   -1.4798 H   0  0  0  0  0  0  0  0  0  0  0  0
    6.5612    2.4933   -0.8004 H   0  0  0  0  0  0  0  0  0  0  0  0
    6.8395    1.3245   -2.1051 H   0  0  0  0  0  0  0  0  0  0  0  0
    8.8402    1.5708   -0.8494 H   0  0  0  0  0  0  0  0  0  0  0  0
    8.0363    1.4839    0.7245 H   0  0  0  0  0  0  0  0  0  0  0  0
    8.5827   -0.7746    0.6877 H   0  0  0  0  0  0  0  0  0  0  0  0
    9.1798   -0.6533   -0.9873 H   0  0  0  0  0  0  0  0  0  0  0  0
    7.2448   -2.2366   -0.6226 H   0  0  0  0  0  0  0  0  0  0  0  0
    7.0363   -0.9967   -1.9370 H   0  0  0  0  0  0  0  0  0  0  0  0
    5.0752   -1.3382   -0.3846 H   0  0  0  0  0  0  0  0  0  0  0  0
    6.0771   -0.7938    0.9652 H   0  0  0  0  0  0  0  0  0  0  0  0
    0.3059    1.3382   -1.3702 H   0  0  0  0  0  0  0  0  0  0  0  0
   -3.8359    1.5837   -3.3194 H   0  0  0  0  0  0  0  0  0  0  0  0
   -4.5909   -1.3290    1.2612 H   0  0  0  0  0  0  0  0  0  0  0  0
   -8.1913   -2.7900   -1.7770 H   0  0  0  0  0  0  0  0  0  0  0  0
   -9.7449   -1.0291   -1.0139 H   0  0  0  0  0  0  0  0  0  0  0  0
   -8.2664    2.4671    2.0538 H   0  0  0  0  0  0  0  0  0  0  0  0
   -7.8310    2.8816    0.3390 H   0  0  0  0  0  0  0  0  0  0  0  0
   -2.6042   -1.1028    1.6143 H   0  0  0  0  0  0  0  0  0  0  0  0
  1  2  1  0
  2  3  1  0
  3  4  2  0
  4  5  1  0
  5  6  1  0
  6  7  1  0
  7  8  1  0
  8  9  1  0
  9 10  1  0
 10 11  1  0
 11 12  1  0
 12 13  1  0
 13 14  1  0
  4 15  1  0
 15 16  2  0
 16 17  1  0
 17 18  2  0
 18 19  1  0
 19 20  2  0
 20 21  1  0
 21 22  1  0
 22 23  2  0
 23 24  1  0
 23 25  1  0
 25 26  2  0
 26 27  1  0
 27 28  2  0
 28 29  1  0
 29 30  1  0
 30 31  1  0
 20 32  1  0
 32 33  2  0
 33  3  1  0
 14  9  1  0
 32 16  1  0
 28 22  1  0
 31 27  1  0
  1 34  1  0
  1 35  1  0
  1 36  1  0
  6 37  1  0
  6 38  1  0
  7 39  1  0
  7 40  1  0
  8 41  1  0
  8 42  1  0
 10 43  1  0
 10 44  1  0
 11 45  1  0
 11 46  1  0
 12 47  1  0
 12 48  1  0
 13 49  1  0
 13 50  1  0
 14 51  1  0
 14 52  1  0
 15 53  1  0
 18 54  1  0
 21 55  1  0
 25 56  1  0
 26 57  1  0
 30 58  1  0
 30 59  1  0
 33 60  1  0
M  END
$$$$
