@<TRIPOS>MOLECULE
*****
 47 49 0 0 0
SMALL
GASTEIGER

@<TRIPOS>ATOM
      1 C          -2.3879   -4.3791   -1.0248 C.3     1  UNL1        0.0124
      2 C          -3.3632   -3.3100   -0.7327 C.2     1  UNL1        0.2128
      3 O          -4.5835   -3.6368   -0.5262 O.2     1  UNL1       -0.2759
      4 N          -2.9208   -1.9614   -0.6901 N.am    1  UNL1       -0.2968
      5 C          -3.9168   -0.9631   -0.4009 C.3     1  UNL1        0.0204
      6 C          -3.4280    0.3429    0.0706 C.3     1  UNL1        0.0055
      7 C          -1.9843    0.5343    0.1324 C.ar    1  UNL1        0.0476
      8 C          -1.1124   -0.4073   -0.3318 C.ar    1  UNL1        0.0324
      9 C           0.1924    0.0621   -0.1338 C.ar    1  UNL1        0.1498
     10 N           1.3823   -0.6319   -0.4852 N.pl3   1  UNL1       -0.2977
     11 C           2.6869   -0.1488   -0.2860 C.ar    1  UNL1        0.0327
     12 C           3.0297    1.0713    0.2389 C.ar    1  UNL1       -0.0405
     13 C           4.3547    1.4826    0.4090 C.ar    1  UNL1       -0.0598
     14 C           5.3699    0.6483    0.0431 C.ar    1  UNL1       -0.0587
     15 C           5.0788   -0.5959   -0.4924 C.ar    1  UNL1       -0.0487
     16 C           6.1867   -1.5151   -0.8955 C.3     1  UNL1       -0.0397
     17 C           3.7690   -0.9593   -0.6420 C.ar    1  UNL1       -0.0376
     18 N           0.0333    1.2464    0.4319 N.ar    1  UNL1       -0.1552
     19 N          -1.2420    1.5340    0.5930 N.ar    1  UNL1       -0.2636
     20 C          -1.6617    2.7982    1.2023 C.3     1  UNL1        0.0474
     21 C          -0.5694    3.8348    1.0378 C.3     1  UNL1       -0.0429
     22 C          -2.8975    3.3603    0.5573 C.3     1  UNL1       -0.0429
     23 C          -1.5416   -1.6910   -0.9337 C.3     1  UNL1        0.0447
     24 H          -1.7703   -4.1175   -1.9194 H       1  UNL1        0.0323
     25 H          -1.7293   -4.4609   -0.1121 H       1  UNL1        0.0323
     26 H          -2.8881   -5.3484   -1.2248 H       1  UNL1        0.0323
     27 H          -4.5562   -0.8947   -1.3311 H       1  UNL1        0.0468
     28 H          -4.6060   -1.3979    0.3632 H       1  UNL1        0.0468
     29 H          -3.9421    1.1295   -0.5603 H       1  UNL1        0.0343
     30 H          -3.8199    0.5673    1.1080 H       1  UNL1        0.0343
     31 H           1.2801   -1.5752   -0.9267 H       1  UNL1        0.1536
     32 H           2.2546    1.7514    0.5359 H       1  UNL1        0.0636
     33 H           4.5860    2.4571    0.8285 H       1  UNL1        0.0618
     34 H           6.3947    0.9151    0.1525 H       1  UNL1        0.0620
     35 H           5.7496   -2.5339   -0.9484 H       1  UNL1        0.0278
     36 H           6.5508   -1.1507   -1.8734 H       1  UNL1        0.0278
     37 H           6.9762   -1.5622   -0.1184 H       1  UNL1        0.0278
     38 H           3.5524   -1.9358   -1.0622 H       1  UNL1        0.0639
     39 H          -1.8471    2.6896    2.2854 H       1  UNL1        0.0539
     40 H           0.4184    3.3126    0.9633 H       1  UNL1        0.0250
     41 H          -0.5883    4.5421    1.8806 H       1  UNL1        0.0250
     42 H          -0.7080    4.4162    0.0922 H       1  UNL1        0.0250
     43 H          -3.7716    2.9626    1.0675 H       1  UNL1        0.0250
     44 H          -2.8894    4.4684    0.7833 H       1  UNL1        0.0250
     45 H          -2.9036    3.2906   -0.5376 H       1  UNL1        0.0250
     46 H          -1.2786   -1.7429   -2.0204 H       1  UNL1        0.0515
     47 H          -0.9389   -2.4979   -0.4506 H       1  UNL1        0.0515
@<TRIPOS>BOND
     1     1     2    1
     2     2     3    2
     3     2     4   am
     4     4     5    1
     5     5     6    1
     6     6     7    1
     7     7     8   ar
     8     8     9   ar
     9     9    10    1
    10    10    11    1
    11    11    12   ar
    12    12    13   ar
    13    13    14   ar
    14    14    15   ar
    15    15    16    1
    16    15    17   ar
    17     9    18   ar
    18    18    19   ar
    19    19    20    1
    20    20    21    1
    21    20    22    1
    22     8    23    1
    23    23     4    1
    24    19     7   ar
    25    17    11   ar
    26     1    24    1
    27     1    25    1
    28     1    26    1
    29     5    27    1
    30     5    28    1
    31     6    29    1
    32     6    30    1
    33    10    31    1
    34    12    32    1
    35    13    33    1
    36    14    34    1
    37    16    35    1
    38    16    36    1
    39    16    37    1
    40    17    38    1
    41    20    39    1
    42    21    40    1
    43    21    41    1
    44    21    42    1
    45    22    43    1
    46    22    44    1
    47    22    45    1
    48    23    46    1
    49    23    47    1
