@<TRIPOS>MOLECULE
*****
 5 4 0 0 0
SMALL
GASTEIGER

@<TRIPOS>ATOM
      1 O          -0.5995    1.5546   -0.1656 O.co2   1  UNL1       -0.7886
      2 P          -0.0017   -0.0138    0.0443 P.3     1  UNL1        0.1112
      3 O          -1.0616   -1.1258   -0.6518 O.co2   1  UNL1       -0.7886
      4 F           1.4824   -0.0830   -0.7387 F       1  UNL1       -0.2164
      5 O           0.1804   -0.3319    1.5117 O.2     1  UNL1       -0.3176
@<TRIPOS>UNITY_ATOM_ATTR
1 1
charge -1
3 1
charge -1
@<TRIPOS>BOND
     1     1     2    1
     2     2     3    1
     3     2     4    1
     4     2     5    2
