
     RDKit          3D

 59 63  0  0  0  0  0  0  0  0999 V2000
   -0.4663    2.9716   -1.2796 C   0  0  0  0  0  0  0  0  0  0  0  0
   -0.2391    1.7714   -0.7638 N   0  0  0  0  0  0  0  0  0  0  0  0
   -1.2470    0.8930   -0.5563 C   0  0  0  0  0  0  0  0  0  0  0  0
   -0.9650   -0.3757    0.0060 N   0  0  0  0  0  0  0  0  0  0  0  0
    0.4007   -0.7365    0.3135 C   0  0  1  0  0  0  0  0  0  0  0  0
    1.2341   -0.7777   -0.9139 C   0  0  0  0  0  0  0  0  0  0  0  0
    2.7087   -0.9834   -0.6287 C   0  0  0  0  0  0  0  0  0  0  0  0
    3.2321   -0.1251    0.4956 C   0  0  2  0  0  0  0  0  0  0  0  0
    4.6024   -0.4342    0.7187 N   0  0  0  0  0  0  0  0  0  0  0  0
    5.2178    0.3892    1.7456 C   0  0  0  0  0  0  0  0  0  0  0  0
    6.3534    1.2109    1.1552 C   0  0  0  0  0  0  0  0  0  0  0  0
    6.0195    1.7657   -0.0787 O   0  0  0  0  0  0  0  0  0  0  0  0
    5.7424    0.8040   -1.0519 C   0  0  0  0  0  0  0  0  0  0  0  0
    5.4467   -0.5409   -0.4178 C   0  0  0  0  0  0  0  0  0  0  0  0
    2.3747   -0.3895    1.7198 C   0  0  0  0  0  0  0  0  0  0  0  0
    0.9693    0.1391    1.3890 C   0  0  0  0  0  0  0  0  0  0  0  0
   -2.5092    1.2911   -0.9005 C   0  0  0  0  0  0  0  0  0  0  0  0
   -3.7171    0.6476   -0.8208 C   0  0  0  0  0  0  0  0  0  0  0  0
   -4.1149   -0.6799   -0.3661 C   0  0  0  0  0  0  0  0  0  0  0  0
   -4.3351   -0.7207    1.1407 C   0  0  0  0  0  0  0  0  0  0  0  0
   -4.6804   -2.1292    1.4970 C   0  0  0  0  0  0  0  0  0  0  0  0
   -4.9365   -2.9293    0.3947 O   0  0  0  0  0  0  0  0  0  0  0  0
   -5.8218   -2.3952   -0.5145 C   0  0  0  0  0  0  0  0  0  0  0  0
   -5.5225   -0.9917   -0.9304 C   0  0  0  0  0  0  0  0  0  0  0  0
   -4.6503    1.5614   -1.3236 C   0  0  0  0  0  0  0  0  0  0  0  0
   -4.0383    2.6884   -1.6856 N   0  0  0  0  0  0  0  0  0  0  0  0
   -2.7206    2.5444   -1.4349 C   0  0  0  0  0  0  0  0  0  0  0  0
   -1.6840    3.3705   -1.6165 N   0  0  0  0  0  0  0  0  0  0  0  0
    0.3701    3.6673   -1.4384 H   0  0  0  0  0  0  0  0  0  0  0  0
   -1.7248   -1.0319    0.2059 H   0  0  0  0  0  0  0  0  0  0  0  0
    0.3669   -1.7725    0.7579 H   0  0  0  0  0  0  0  0  0  0  0  0
    0.9317   -1.7081   -1.4854 H   0  0  0  0  0  0  0  0  0  0  0  0
    1.0867    0.0759   -1.5874 H   0  0  0  0  0  0  0  0  0  0  0  0
    2.8713   -2.0340   -0.3877 H   0  0  0  0  0  0  0  0  0  0  0  0
    3.2340   -0.6408   -1.5511 H   0  0  0  0  0  0  0  0  0  0  0  0
    3.0540    0.9454    0.2269 H   0  0  0  0  0  0  0  0  0  0  0  0
    4.4770    1.0012    2.2526 H   0  0  0  0  0  0  0  0  0  0  0  0
    5.6713   -0.3016    2.4825 H   0  0  0  0  0  0  0  0  0  0  0  0
    6.5528    2.0662    1.8326 H   0  0  0  0  0  0  0  0  0  0  0  0
    7.2909    0.6207    1.0979 H   0  0  0  0  0  0  0  0  0  0  0  0
    6.5395    0.7076   -1.8082 H   0  0  0  0  0  0  0  0  0  0  0  0
    4.8277    1.1411   -1.5768 H   0  0  0  0  0  0  0  0  0  0  0  0
    5.0480   -1.2811   -1.1253 H   0  0  0  0  0  0  0  0  0  0  0  0
    6.4317   -0.9655   -0.0425 H   0  0  0  0  0  0  0  0  0  0  0  0
    2.6845    0.1582    2.6141 H   0  0  0  0  0  0  0  0  0  0  0  0
    2.2815   -1.4776    1.8501 H   0  0  0  0  0  0  0  0  0  0  0  0
    1.0501    1.1856    1.0804 H   0  0  0  0  0  0  0  0  0  0  0  0
    0.3213    0.0429    2.2766 H   0  0  0  0  0  0  0  0  0  0  0  0
   -3.5305   -1.5330   -0.6707 H   0  0  0  0  0  0  0  0  0  0  0  0
   -5.2072   -0.0540    1.3818 H   0  0  0  0  0  0  0  0  0  0  0  0
   -3.4700   -0.2938    1.6473 H   0  0  0  0  0  0  0  0  0  0  0  0
   -3.7675   -2.5720    1.9905 H   0  0  0  0  0  0  0  0  0  0  0  0
   -5.4713   -2.1380    2.2502 H   0  0  0  0  0  0  0  0  0  0  0  0
   -6.8855   -2.4545   -0.1578 H   0  0  0  0  0  0  0  0  0  0  0  0
   -5.7823   -3.0317   -1.4233 H   0  0  0  0  0  0  0  0  0  0  0  0
   -5.4666   -0.8146   -2.0076 H   0  0  0  0  0  0  0  0  0  0  0  0
   -6.2313   -0.2980   -0.4649 H   0  0  0  0  0  0  0  0  0  0  0  0
   -5.7179    1.4152   -1.4207 H   0  0  0  0  0  0  0  0  0  0  0  0
   -4.4897    3.5358   -2.0913 H   0  0  0  0  0  0  0  0  0  0  0  0
  1  2  2  0
  2  3  1  0
  3  4  1  0
  4  5  1  0
  5  6  1  0
  6  7  1  0
  7  8  1  0
  8  9  1  0
  9 10  1  0
 10 11  1  0
 11 12  1  0
 12 13  1  0
 13 14  1  0
  8 15  1  0
 15 16  1  0
  3 17  2  0
 17 18  1  0
 18 19  1  0
 19 20  1  0
 20 21  1  0
 21 22  1  0
 22 23  1  0
 23 24  1  0
 18 25  2  0
 25 26  1  0
 26 27  1  0
 27 28  2  0
 28  1  1  0
 16  5  1  0
 27 17  1  0
 14  9  1  0
 24 19  1  0
  1 29  1  0
  4 30  1  0
  5 31  1  1
  6 32  1  0
  6 33  1  0
  7 34  1  0
  7 35  1  0
  8 36  1  6
 10 37  1  0
 10 38  1  0
 11 39  1  0
 11 40  1  0
 13 41  1  0
 13 42  1  0
 14 43  1  0
 14 44  1  0
 15 45  1  0
 15 46  1  0
 16 47  1  0
 16 48  1  0
 19 49  1  0
 20 50  1  0
 20 51  1  0
 21 52  1  0
 21 53  1  0
 23 54  1  0
 23 55  1  0
 24 56  1  0
 24 57  1  0
 25 58  1  0
 26 59  1  0
M  END
$$$$
