@<TRIPOS>MOLECULE
*****
 59 63 0 0 0
SMALL
GASTEIGER

@<TRIPOS>ATOM
      1 C          -0.4663    2.9716   -1.2796 C.ar    1  UNL1        0.1204
      2 N          -0.2391    1.7714   -0.7638 N.ar    1  UNL1       -0.2202
      3 C          -1.2470    0.8930   -0.5563 C.ar    1  UNL1        0.1317
      4 N          -0.9650   -0.3757    0.0060 N.pl3   1  UNL1       -0.3256
      5 C           0.4007   -0.7365    0.3135 C.3     1  UNL1        0.0221
      6 C           1.2341   -0.7777   -0.9139 C.3     1  UNL1       -0.0331
      7 C           2.7087   -0.9834   -0.6287 C.3     1  UNL1       -0.0357
      8 C           3.2321   -0.1251    0.4956 C.3     1  UNL1        0.0107
      9 N           4.6024   -0.4342    0.7187 N.3     1  UNL1       -0.2951
     10 C           5.2178    0.3892    1.7456 C.3     1  UNL1        0.0227
     11 C           6.3534    1.2109    1.1552 C.3     1  UNL1        0.0604
     12 O           6.0195    1.7657   -0.0787 O.3     1  UNL1       -0.3772
     13 C           5.7424    0.8040   -1.0519 C.3     1  UNL1        0.0604
     14 C           5.4467   -0.5409   -0.4178 C.3     1  UNL1        0.0227
     15 C           2.3747   -0.3895    1.7198 C.3     1  UNL1       -0.0357
     16 C           0.9693    0.1391    1.3890 C.3     1  UNL1       -0.0331
     17 C          -2.5092    1.2911   -0.9005 C.ar    1  UNL1        0.0618
     18 C          -3.7171    0.6476   -0.8208 C.ar    1  UNL1       -0.0143
     19 C          -4.1149   -0.6799   -0.3661 C.3     1  UNL1       -0.0096
     20 C          -4.3351   -0.7207    1.1407 C.3     1  UNL1       -0.0225
     21 C          -4.6804   -2.1292    1.4970 C.3     1  UNL1        0.0482
     22 O          -4.9365   -2.9293    0.3947 O.3     1  UNL1       -0.3797
     23 C          -5.8218   -2.3952   -0.5145 C.3     1  UNL1        0.0482
     24 C          -5.5225   -0.9917   -0.9304 C.3     1  UNL1       -0.0225
     25 C          -4.6503    1.5614   -1.3236 C.ar    1  UNL1        0.0077
     26 N          -4.0383    2.6884   -1.6856 N.ar    1  UNL1       -0.3454
     27 C          -2.7206    2.5444   -1.4349 C.ar    1  UNL1        0.1434
     28 N          -1.6840    3.3705   -1.6165 N.ar    1  UNL1       -0.2178
     29 H           0.3701    3.6673   -1.4384 H       1  UNL1        0.1048
     30 H          -1.7248   -1.0319    0.2059 H       1  UNL1        0.1478
     31 H           0.3669   -1.7725    0.7579 H       1  UNL1        0.0498
     32 H           0.9317   -1.7081   -1.4854 H       1  UNL1        0.0284
     33 H           1.0867    0.0759   -1.5874 H       1  UNL1        0.0284
     34 H           2.8713   -2.0340   -0.3877 H       1  UNL1        0.0281
     35 H           3.2340   -0.6408   -1.5511 H       1  UNL1        0.0281
     36 H           3.0540    0.9454    0.2269 H       1  UNL1        0.0462
     37 H           4.4770    1.0012    2.2526 H       1  UNL1        0.0449
     38 H           5.6713   -0.3016    2.4825 H       1  UNL1        0.0449
     39 H           6.5528    2.0662    1.8326 H       1  UNL1        0.0572
     40 H           7.2909    0.6207    1.0979 H       1  UNL1        0.0572
     41 H           6.5395    0.7076   -1.8082 H       1  UNL1        0.0572
     42 H           4.8277    1.1411   -1.5768 H       1  UNL1        0.0572
     43 H           5.0480   -1.2811   -1.1253 H       1  UNL1        0.0449
     44 H           6.4317   -0.9655   -0.0425 H       1  UNL1        0.0449
     45 H           2.6845    0.1582    2.6141 H       1  UNL1        0.0281
     46 H           2.2815   -1.4776    1.8501 H       1  UNL1        0.0281
     47 H           1.0501    1.1856    1.0804 H       1  UNL1        0.0284
     48 H           0.3213    0.0429    2.2766 H       1  UNL1        0.0284
     49 H          -3.5305   -1.5330   -0.6707 H       1  UNL1        0.0351
     50 H          -5.2072   -0.0540    1.3818 H       1  UNL1        0.0293
     51 H          -3.4700   -0.2938    1.6473 H       1  UNL1        0.0293
     52 H          -3.7675   -2.5720    1.9905 H       1  UNL1        0.0560
     53 H          -5.4713   -2.1380    2.2502 H       1  UNL1        0.0560
     54 H          -6.8855   -2.4545   -0.1578 H       1  UNL1        0.0560
     55 H          -5.7823   -3.0317   -1.4233 H       1  UNL1        0.0560
     56 H          -5.4666   -0.8146   -2.0076 H       1  UNL1        0.0293
     57 H          -6.2313   -0.2980   -0.4649 H       1  UNL1        0.0293
     58 H          -5.7179    1.4152   -1.4207 H       1  UNL1        0.0810
     59 H          -4.4897    3.5358   -2.0913 H       1  UNL1        0.1668
@<TRIPOS>BOND
     1     1     2   ar
     2     2     3   ar
     3     3     4    1
     4     4     5    1
     5     5     6    1
     6     6     7    1
     7     7     8    1
     8     8     9    1
     9     9    10    1
    10    10    11    1
    11    11    12    1
    12    12    13    1
    13    13    14    1
    14     8    15    1
    15    15    16    1
    16     3    17   ar
    17    17    18   ar
    18    18    19    1
    19    19    20    1
    20    20    21    1
    21    21    22    1
    22    22    23    1
    23    23    24    1
    24    18    25   ar
    25    25    26   ar
    26    26    27   ar
    27    27    28   ar
    28    28     1   ar
    29    16     5    1
    30    27    17   ar
    31    14     9    1
    32    24    19    1
    33     1    29    1
    34     4    30    1
    35     5    31    1
    36     6    32    1
    37     6    33    1
    38     7    34    1
    39     7    35    1
    40     8    36    1
    41    10    37    1
    42    10    38    1
    43    11    39    1
    44    11    40    1
    45    13    41    1
    46    13    42    1
    47    14    43    1
    48    14    44    1
    49    15    45    1
    50    15    46    1
    51    16    47    1
    52    16    48    1
    53    19    49    1
    54    20    50    1
    55    20    51    1
    56    21    52    1
    57    21    53    1
    58    23    54    1
    59    23    55    1
    60    24    56    1
    61    24    57    1
    62    25    58    1
    63    26    59    1
