@<TRIPOS>MOLECULE
*****
 65 70 0 0 0
SMALL
GASTEIGER

@<TRIPOS>ATOM
      1 C           4.5352   -3.1436    0.0566 C.3     1  UNL1       -0.0380
      2 C           5.4499   -2.0413    0.4463 C.ar    1  UNL1       -0.0279
      3 C           6.4274   -2.2416    1.3950 C.ar    1  UNL1       -0.0557
      4 C           7.2588   -1.2020    1.7327 C.ar    1  UNL1       -0.0433
      5 C           7.0683    0.0073    1.0938 C.ar    1  UNL1        0.0279
      6 N           6.0927    0.1763    0.1586 N.ar    1  UNL1       -0.2583
      7 C           5.2689   -0.8277   -0.1860 C.ar    1  UNL1        0.0581
      8 C           4.2177   -0.6354   -1.1939 C.3     1  UNL1        0.0415
      9 N           2.8997   -0.4930   -0.6396 N.3     1  UNL1       -0.2965
     10 C           2.7762    0.6441    0.2212 C.3     1  UNL1        0.0017
     11 C           1.3806    0.8383    0.7065 C.3     1  UNL1       -0.0095
     12 C           0.3474    0.9127   -0.4121 C.3     1  UNL1        0.1240
     13 C           1.0787    0.7954   -1.7130 C.3     1  UNL1       -0.0095
     14 C           1.9495   -0.4216   -1.7265 C.3     1  UNL1        0.0017
     15 C          -0.6371   -0.1662   -0.3139 C.2     1  UNL1        0.2516
     16 O          -0.4471   -1.4326   -0.4404 O.2     1  UNL1       -0.2724
     17 N          -1.9100    0.3768   -0.0439 N.am    1  UNL1       -0.1920
     18 C          -3.1118   -0.3487    0.1906 C.ar    1  UNL1        0.0456
     19 C          -3.5065   -0.7486    1.4475 C.ar    1  UNL1       -0.0380
     20 C          -4.6870   -1.4468    1.5934 C.ar    1  UNL1       -0.0385
     21 C          -5.4963   -1.7637    0.5205 C.ar    1  UNL1        0.0364
     22 N          -6.6980   -2.4788    0.6942 N.am    1  UNL1       -0.2709
     23 C          -8.0846   -2.1722    0.9461 C.3     1  UNL1        0.0280
     24 C          -8.3751   -3.4375    0.1430 C.3     1  UNL1        0.0406
     25 C          -7.0338   -3.8529    0.6900 C.2     1  UNL1        0.2213
     26 O          -6.4595   -4.9041    1.0026 O.2     1  UNL1       -0.2752
     27 C          -5.0812   -1.3527   -0.7304 C.ar    1  UNL1       -0.0385
     28 C          -3.9023   -0.6519   -0.9031 C.ar    1  UNL1       -0.0380
     29 C          -1.7545    1.7958   -0.0512 C.2     1  UNL1        0.3219
     30 O          -2.7548    2.5824    0.1677 O.2     1  UNL1       -0.2512
     31 N          -0.4167    2.1379   -0.3196 N.am    1  UNL1       -0.2240
     32 C           0.1205    3.4736   -0.4825 C.ar    1  UNL1        0.1364
     33 C          -0.6811    4.5734   -0.4104 C.ar    1  UNL1        0.0432
     34 C          -0.1038    5.8260   -0.5710 C.ar    1  UNL1        0.2531
     35 O          -0.8542    6.8415   -0.5027 O.2     1  UNL1       -0.2678
     36 N           1.2139    5.9162   -0.7904 N.ar    1  UNL1       -0.3133
     37 C           2.0220    4.8448   -0.8651 C.ar    1  UNL1        0.0981
     38 N           1.4239    3.6480   -0.7040 N.ar    1  UNL1       -0.2220
     39 H           3.5058   -2.9119    0.3400 H       1  UNL1        0.0278
     40 H           4.8140   -4.0909    0.6003 H       1  UNL1        0.0278
     41 H           4.6691   -3.3533   -1.0243 H       1  UNL1        0.0278
     42 H           6.5628   -3.1900    1.8833 H       1  UNL1        0.0621
     43 H           8.0516   -1.3077    2.4803 H       1  UNL1        0.0633
     44 H           7.7352    0.8114    1.3768 H       1  UNL1        0.0829
     45 H           4.2171   -1.5271   -1.8693 H       1  UNL1        0.0491
     46 H           4.4924    0.2276   -1.8571 H       1  UNL1        0.0491
     47 H           3.4101    0.5032    1.1398 H       1  UNL1        0.0427
     48 H           3.2044    1.5449   -0.2661 H       1  UNL1        0.0427
     49 H           1.1284    0.0263    1.4200 H       1  UNL1        0.0303
     50 H           1.3269    1.7921    1.2652 H       1  UNL1        0.0303
     51 H           0.3510    0.6877   -2.5454 H       1  UNL1        0.0303
     52 H           1.7578    1.6573   -1.9197 H       1  UNL1        0.0303
     53 H           2.5029   -0.3977   -2.7236 H       1  UNL1        0.0427
     54 H           1.4157   -1.3877   -1.7577 H       1  UNL1        0.0427
     55 H          -2.8996   -0.5169    2.2940 H       1  UNL1        0.0637
     56 H          -4.9665   -1.7479    2.6134 H       1  UNL1        0.0637
     57 H          -8.4184   -2.3338    2.0035 H       1  UNL1        0.0473
     58 H          -8.4795   -1.2534    0.4805 H       1  UNL1        0.0473
     59 H          -8.2948   -3.2070   -0.9274 H       1  UNL1        0.0374
     60 H          -9.2186   -4.0355    0.4831 H       1  UNL1        0.0374
     61 H          -5.7380   -1.6158   -1.5606 H       1  UNL1        0.0637
     62 H          -3.6391   -0.3618   -1.9109 H       1  UNL1        0.0637
     63 H          -1.7528    4.5328   -0.2350 H       1  UNL1        0.0706
     64 H           1.6335    6.8837   -0.9107 H       1  UNL1        0.1698
     65 H           3.0929    4.9435   -1.0447 H       1  UNL1        0.1028
@<TRIPOS>BOND
     1     1     2    1
     2     2     3   ar
     3     3     4   ar
     4     4     5   ar
     5     5     6   ar
     6     6     7   ar
     7     7     8    1
     8     8     9    1
     9     9    10    1
    10    10    11    1
    11    11    12    1
    12    12    13    1
    13    13    14    1
    14    12    15    1
    15    15    16    2
    16    15    17   am
    17    17    18    1
    18    18    19   ar
    19    19    20   ar
    20    20    21   ar
    21    21    22    1
    22    22    23    1
    23    23    24    1
    24    24    25    1
    25    25    26    2
    26    21    27   ar
    27    27    28   ar
    28    17    29   am
    29    29    30    2
    30    29    31   am
    31    31    32    1
    32    32    33   ar
    33    33    34   ar
    34    34    35    2
    35    34    36   ar
    36    36    37   ar
    37    37    38   ar
    38     7     2   ar
    39    14     9    1
    40    28    18   ar
    41    38    32   ar
    42    31    12    1
    43    25    22   am
    44     1    39    1
    45     1    40    1
    46     1    41    1
    47     3    42    1
    48     4    43    1
    49     5    44    1
    50     8    45    1
    51     8    46    1
    52    10    47    1
    53    10    48    1
    54    11    49    1
    55    11    50    1
    56    13    51    1
    57    13    52    1
    58    14    53    1
    59    14    54    1
    60    19    55    1
    61    20    56    1
    62    23    57    1
    63    23    58    1
    64    24    59    1
    65    24    60    1
    66    27    61    1
    67    28    62    1
    68    33    63    1
    69    36    64    1
    70    37    65    1
