
     RDKit          3D

 48 53  0  0  0  0  0  0  0  0999 V2000
   -3.2242   -3.6567    1.2495 C   0  0  0  0  0  0  0  0  0  0  0  0
   -2.4327   -2.8532    0.3471 N   0  0  0  0  0  0  0  0  0  0  0  0
   -1.0049   -3.1030    0.2951 C   0  0  0  0  0  0  0  0  0  0  0  0
   -0.3416   -2.2622   -0.7131 C   0  0  0  0  0  0  0  0  0  0  0  0
    0.6467   -2.7310   -1.3263 O   0  0  0  0  0  0  0  0  0  0  0  0
   -0.7832   -0.9335   -1.0183 N   0  0  0  0  0  0  0  0  0  0  0  0
   -2.2048   -0.6800   -0.9743 C   0  0  2  0  0  0  0  0  0  0  0  0
   -2.6022    0.5652   -0.2593 C   0  0  0  0  0  0  0  0  0  0  0  0
   -1.4735    1.5001   -0.0621 C   0  0  0  0  0  0  0  0  0  0  0  0
   -0.2273    1.3230   -0.5578 C   0  0  0  0  0  0  0  0  0  0  0  0
    0.5551    2.3503   -0.1967 N   0  0  0  0  0  0  0  0  0  0  0  0
   -0.1655    3.2193    0.5425 C   0  0  0  0  0  0  0  0  0  0  0  0
    0.1915    4.4085    1.1327 C   0  0  0  0  0  0  0  0  0  0  0  0
   -0.7610    5.0960    1.8376 C   0  0  0  0  0  0  0  0  0  0  0  0
   -2.0372    4.6075    1.9497 C   0  0  0  0  0  0  0  0  0  0  0  0
   -2.3780    3.4133    1.3515 C   0  0  0  0  0  0  0  0  0  0  0  0
   -1.4501    2.6898    0.6331 C   0  0  0  0  0  0  0  0  0  0  0  0
    0.0985    0.1233   -1.3693 C   0  0  1  0  0  0  0  0  0  0  0  0
    1.5230   -0.1898   -1.2352 C   0  0  0  0  0  0  0  0  0  0  0  0
    2.3878    0.0847   -2.2617 C   0  0  0  0  0  0  0  0  0  0  0  0
    3.7517   -0.1868   -2.1616 C   0  0  0  0  0  0  0  0  0  0  0  0
    4.2095   -0.7468   -0.9840 C   0  0  0  0  0  0  0  0  0  0  0  0
    3.3501   -1.0254    0.0503 C   0  0  0  0  0  0  0  0  0  0  0  0
    2.0111   -0.7429   -0.0868 C   0  0  0  0  0  0  0  0  0  0  0  0
    4.1384   -1.5722    1.0594 O   0  0  0  0  0  0  0  0  0  0  0  0
    5.3502   -2.0612    0.4651 C   0  0  0  0  0  0  0  0  0  0  0  0
    5.5034   -1.1286   -0.5860 O   0  0  0  0  0  0  0  0  0  0  0  0
   -2.9786   -1.8569   -0.4686 C   0  0  0  0  0  0  0  0  0  0  0  0
   -4.1982   -1.9463   -0.8049 O   0  0  0  0  0  0  0  0  0  0  0  0
   -4.0326   -3.0639    1.7250 H   0  0  0  0  0  0  0  0  0  0  0  0
   -2.5781   -4.1426    2.0238 H   0  0  0  0  0  0  0  0  0  0  0  0
   -3.7182   -4.5089    0.7076 H   0  0  0  0  0  0  0  0  0  0  0  0
   -0.8372   -4.1929    0.0780 H   0  0  0  0  0  0  0  0  0  0  0  0
   -0.6059   -2.9166    1.3138 H   0  0  0  0  0  0  0  0  0  0  0  0
   -2.5228   -0.5782   -2.0545 H   0  0  0  0  0  0  0  0  0  0  0  0
   -2.9336    0.2598    0.7763 H   0  0  0  0  0  0  0  0  0  0  0  0
   -3.4889    1.0441   -0.7277 H   0  0  0  0  0  0  0  0  0  0  0  0
    1.5817    2.4822   -0.4411 H   0  0  0  0  0  0  0  0  0  0  0  0
    1.1834    4.8323    1.0716 H   0  0  0  0  0  0  0  0  0  0  0  0
   -0.5368    6.0540    2.3329 H   0  0  0  0  0  0  0  0  0  0  0  0
   -2.7884    5.1521    2.5071 H   0  0  0  0  0  0  0  0  0  0  0  0
   -3.3740    2.9956    1.4175 H   0  0  0  0  0  0  0  0  0  0  0  0
   -0.1373    0.3716   -2.4558 H   0  0  0  0  0  0  0  0  0  0  0  0
    2.0687    0.5214   -3.1956 H   0  0  0  0  0  0  0  0  0  0  0  0
    4.4616    0.0160   -2.9492 H   0  0  0  0  0  0  0  0  0  0  0  0
    1.3775   -0.9892    0.7756 H   0  0  0  0  0  0  0  0  0  0  0  0
    5.2197   -3.0932    0.0915 H   0  0  0  0  0  0  0  0  0  0  0  0
    6.2070   -1.9483    1.1557 H   0  0  0  0  0  0  0  0  0  0  0  0
  1  2  1  0
  2  3  1  0
  3  4  1  0
  4  5  2  0
  4  6  1  0
  6  7  1  0
  7  8  1  0
  8  9  1  0
  9 10  2  0
 10 11  1  0
 11 12  1  0
 12 13  2  0
 13 14  1  0
 14 15  2  0
 15 16  1  0
 16 17  2  0
 10 18  1  0
 18 19  1  0
 19 20  2  0
 20 21  1  0
 21 22  2  0
 22 23  1  0
 23 24  2  0
 23 25  1  0
 25 26  1  0
 26 27  1  0
  7 28  1  0
 28 29  2  0
 28  2  1  0
 18  6  1  0
 24 19  1  0
 17  9  1  0
 27 22  1  0
 17 12  1  0
  1 30  1  0
  1 31  1  0
  1 32  1  0
  3 33  1  0
  3 34  1  0
  7 35  1  6
  8 36  1  0
  8 37  1  0
 11 38  1  0
 13 39  1  0
 14 40  1  0
 15 41  1  0
 16 42  1  0
 18 43  1  6
 20 44  1  0
 21 45  1  0
 24 46  1  0
 26 47  1  0
 26 48  1  0
M  END
$$$$
