@<TRIPOS>MOLECULE
*****
 48 53 0 0 0
SMALL
GASTEIGER

@<TRIPOS>ATOM
      1 C          -3.2242   -3.6567    1.2495 C.3     1  UNL1        0.0037
      2 N          -2.4327   -2.8532    0.3471 N.am    1  UNL1       -0.2942
      3 C          -1.0049   -3.1030    0.2951 C.3     1  UNL1        0.0910
      4 C          -0.3416   -2.2622   -0.7131 C.2     1  UNL1        0.2344
      5 O           0.6467   -2.7310   -1.3263 O.2     1  UNL1       -0.2738
      6 N          -0.7832   -0.9335   -1.0183 N.am    1  UNL1       -0.2758
      7 C          -2.2048   -0.6800   -0.9743 C.3     1  UNL1        0.1074
      8 C          -2.6022    0.5652   -0.2593 C.3     1  UNL1        0.0019
      9 C          -1.4735    1.5001   -0.0621 C.ar    1  UNL1       -0.0147
     10 C          -0.2273    1.3230   -0.5578 C.ar    1  UNL1        0.0456
     11 N           0.5551    2.3503   -0.1967 N.ar    1  UNL1       -0.3560
     12 C          -0.1655    3.2193    0.5425 C.ar    1  UNL1        0.0470
     13 C           0.1915    4.4085    1.1327 C.ar    1  UNL1       -0.0378
     14 C          -0.7610    5.0960    1.8376 C.ar    1  UNL1       -0.0598
     15 C          -2.0372    4.6075    1.9497 C.ar    1  UNL1       -0.0611
     16 C          -2.3780    3.4133    1.3515 C.ar    1  UNL1       -0.0523
     17 C          -1.4501    2.6898    0.6331 C.ar    1  UNL1        0.0032
     18 C           0.0985    0.1233   -1.3693 C.3     1  UNL1        0.0925
     19 C           1.5230   -0.1898   -1.2352 C.ar    1  UNL1       -0.0175
     20 C           2.3878    0.0847   -2.2617 C.ar    1  UNL1       -0.0527
     21 C           3.7517   -0.1868   -2.1616 C.ar    1  UNL1       -0.0158
     22 C           4.2095   -0.7468   -0.9840 C.ar    1  UNL1        0.1662
     23 C           3.3501   -1.0254    0.0503 C.ar    1  UNL1        0.1666
     24 C           2.0111   -0.7429   -0.0868 C.ar    1  UNL1       -0.0108
     25 O           4.1384   -1.5722    1.0594 O.3     1  UNL1       -0.4526
     26 C           5.3502   -2.0612    0.4651 C.3     1  UNL1        0.2332
     27 O           5.5034   -1.1286   -0.5860 O.3     1  UNL1       -0.4526
     28 C          -2.9786   -1.8569   -0.4686 C.2     1  UNL1        0.2366
     29 O          -4.1982   -1.9463   -0.8049 O.2     1  UNL1       -0.2735
     30 H          -4.0326   -3.0639    1.7250 H       1  UNL1        0.0429
     31 H          -2.5781   -4.1426    2.0238 H       1  UNL1        0.0429
     32 H          -3.7182   -4.5089    0.7076 H       1  UNL1        0.0429
     33 H          -0.8372   -4.1929    0.0780 H       1  UNL1        0.0560
     34 H          -0.6059   -2.9166    1.3138 H       1  UNL1        0.0560
     35 H          -2.5228   -0.5782   -2.0545 H       1  UNL1        0.0600
     36 H          -2.9336    0.2598    0.7763 H       1  UNL1        0.0337
     37 H          -3.4889    1.0441   -0.7277 H       1  UNL1        0.0337
     38 H           1.5817    2.4822   -0.4411 H       1  UNL1        0.1657
     39 H           1.1834    4.8323    1.0716 H       1  UNL1        0.0638
     40 H          -0.5368    6.0540    2.3329 H       1  UNL1        0.0618
     41 H          -2.7884    5.1521    2.5071 H       1  UNL1        0.0618
     42 H          -3.3740    2.9956    1.4175 H       1  UNL1        0.0624
     43 H          -0.1373    0.3716   -2.4558 H       1  UNL1        0.0616
     44 H           2.0687    0.5214   -3.1956 H       1  UNL1        0.0622
     45 H           4.4616    0.0160   -2.9492 H       1  UNL1        0.0655
     46 H           1.3775   -0.9892    0.7756 H       1  UNL1        0.0659
     47 H           5.2197   -3.0932    0.0915 H       1  UNL1        0.1166
     48 H           6.2070   -1.9483    1.1557 H       1  UNL1        0.1166
@<TRIPOS>BOND
     1     1     2    1
     2     2     3    1
     3     3     4    1
     4     4     5    2
     5     4     6   am
     6     6     7    1
     7     7     8    1
     8     8     9    1
     9     9    10   ar
    10    10    11   ar
    11    11    12   ar
    12    12    13   ar
    13    13    14   ar
    14    14    15   ar
    15    15    16   ar
    16    16    17   ar
    17    10    18    1
    18    18    19    1
    19    19    20   ar
    20    20    21   ar
    21    21    22   ar
    22    22    23   ar
    23    23    24   ar
    24    23    25    1
    25    25    26    1
    26    26    27    1
    27     7    28    1
    28    28    29    2
    29    28     2   am
    30    18     6    1
    31    24    19   ar
    32    17     9   ar
    33    27    22    1
    34    17    12   ar
    35     1    30    1
    36     1    31    1
    37     1    32    1
    38     3    33    1
    39     3    34    1
    40     7    35    1
    41     8    36    1
    42     8    37    1
    43    11    38    1
    44    13    39    1
    45    14    40    1
    46    15    41    1
    47    16    42    1
    48    18    43    1
    49    20    44    1
    50    21    45    1
    51    24    46    1
    52    26    47    1
    53    26    48    1
