@<TRIPOS>MOLECULE
*****
 40 41 0 0 0
SMALL
GASTEIGER

@<TRIPOS>ATOM
      1 C           3.3659    1.7087   -1.5724 C.3     1  UNL1       -0.0493
      2 C           2.7853    0.3315   -1.4539 C.3     1  UNL1        0.0118
      3 N           1.8434    0.1741   -0.3766 N.am    1  UNL1       -0.3013
      4 C           2.4118   -0.1922    0.8874 C.3     1  UNL1        0.0118
      5 C           2.5731   -1.6479    1.1684 C.3     1  UNL1       -0.0493
      6 C           0.4857    0.4550   -0.6766 C.2     1  UNL1        0.2264
      7 O           0.4835    0.9002   -1.8473 O.2     1  UNL1       -0.2746
      8 C          -0.8333    0.3845   -0.0124 C.3     1  UNL1        0.0763
      9 C          -0.8634    1.3446    1.1769 C.3     1  UNL1       -0.0294
     10 C          -1.8152    1.4516    0.0268 C.3     1  UNL1       -0.0094
     11 C          -1.8233    2.6716   -0.8529 C.3     1  UNL1       -0.0028
     12 N          -2.9521    3.4804   -0.4558 N.3     1  UNL1       -0.3297
     13 C          -1.2809   -1.0141    0.3399 C.ar    1  UNL1       -0.0321
     14 C          -1.6783   -1.6651    1.4829 C.ar    1  UNL1       -0.0576
     15 C          -2.2034   -2.9569    1.4403 C.ar    1  UNL1       -0.0615
     16 C          -2.3437   -3.6511    0.2511 C.ar    1  UNL1       -0.0617
     17 C          -1.9520   -3.0088   -0.8622 C.ar    1  UNL1       -0.0615
     18 C          -1.4171   -1.7005   -0.8831 C.ar    1  UNL1       -0.0576
     19 H           4.3436    1.6082   -2.1384 H       1  UNL1        0.0245
     20 H           2.7234    2.3092   -2.2736 H       1  UNL1        0.0245
     21 H           3.5649    2.2365   -0.6399 H       1  UNL1        0.0245
     22 H           2.3104    0.1114   -2.4418 H       1  UNL1        0.0462
     23 H           3.6435   -0.3951   -1.3222 H       1  UNL1        0.0462
     24 H           1.6512    0.2403    1.6704 H       1  UNL1        0.0462
     25 H           3.3412    0.3820    1.1313 H       1  UNL1        0.0462
     26 H           2.2332   -1.8252    2.2331 H       1  UNL1        0.0245
     27 H           1.9238   -2.2951    0.5353 H       1  UNL1        0.0245
     28 H           3.6458   -1.9386    1.1761 H       1  UNL1        0.0245
     29 H          -0.1053    2.1569    1.1896 H       1  UNL1        0.0282
     30 H          -1.1703    1.0015    2.1647 H       1  UNL1        0.0282
     31 H          -2.8701    1.0848    0.2545 H       1  UNL1        0.0327
     32 H          -0.8835    3.2709   -0.7346 H       1  UNL1        0.0425
     33 H          -1.9026    2.3969   -1.9276 H       1  UNL1        0.0425
     34 H          -3.5346    3.7885   -1.2539 H       1  UNL1        0.1182
     35 H          -3.6252    2.9114    0.1389 H       1  UNL1        0.1182
     36 H          -1.5134   -1.0310    2.3114 H       1  UNL1        0.0621
     37 H          -2.4868   -3.3432    2.4176 H       1  UNL1        0.0618
     38 H          -2.7506   -4.6397    0.3312 H       1  UNL1        0.0618
     39 H          -2.1060   -3.6441   -1.7352 H       1  UNL1        0.0618
     40 H          -1.2185   -1.4517   -1.9306 H       1  UNL1        0.0621
@<TRIPOS>BOND
     1     1     2    1
     2     2     3    1
     3     3     4    1
     4     4     5    1
     5     3     6   am
     6     6     7    2
     7     8     6    1
     8     8     9    1
     9     9    10    1
    10    10    11    1
    11    11    12    1
    12     8    13    1
    13    13    14   ar
    14    14    15   ar
    15    15    16   ar
    16    16    17   ar
    17    17    18   ar
    18    10     8    1
    19    18    13   ar
    20     1    19    1
    21     1    20    1
    22     1    21    1
    23     2    22    1
    24     2    23    1
    25     4    24    1
    26     4    25    1
    27     5    26    1
    28     5    27    1
    29     5    28    1
    30     9    29    1
    31     9    30    1
    32    10    31    1
    33    11    32    1
    34    11    33    1
    35    12    34    1
    36    12    35    1
    37    14    36    1
    38    15    37    1
    39    16    38    1
    40    17    39    1
    41    18    40    1
