@<TRIPOS>MOLECULE
*****
 72 75 0 0 0
SMALL
GASTEIGER

@<TRIPOS>ATOM
      1 C          -5.6543    4.7824    1.3094 C.3     1  UNL1        0.0789
      2 O          -4.9090    3.5906    1.4192 O.3     1  UNL1       -0.4922
      3 C          -4.0034    3.1527    0.4846 C.ar    1  UNL1        0.1557
      4 C          -3.8214    3.9452   -0.6482 C.ar    1  UNL1       -0.0170
      5 C          -2.9246    3.5477   -1.6087 C.ar    1  UNL1       -0.0575
      6 C          -2.2160    2.3817   -1.4504 C.ar    1  UNL1       -0.0508
      7 C          -2.3920    1.5962   -0.3343 C.ar    1  UNL1        0.0278
      8 C          -1.6021    0.3929   -0.1935 C.ar    1  UNL1        0.0688
      9 C          -2.0478   -0.8437   -0.6828 C.ar    1  UNL1        0.0337
     10 C          -3.3129   -0.7961   -1.4719 C.3     1  UNL1       -0.0233
     11 N          -1.3356   -1.9531   -0.5150 N.ar    1  UNL1       -0.2927
     12 C          -1.6687   -3.2687   -0.9750 C.3     1  UNL1        0.0569
     13 C          -2.5333   -4.1664   -0.2259 C.ar    1  UNL1        0.0258
     14 C          -3.9126   -4.1175   -0.4411 C.ar    1  UNL1        0.1297
     15 F          -4.5207   -3.4096   -1.4160 F       1  UNL1       -0.2051
     16 C          -4.8153   -4.9085    0.2797 C.ar    1  UNL1       -0.0260
     17 C          -4.3981   -5.7892    1.2460 C.ar    1  UNL1       -0.0577
     18 C          -3.0425   -5.8344    1.4459 C.ar    1  UNL1       -0.0429
     19 C          -2.1357   -5.0529    0.7361 C.ar    1  UNL1        0.0486
     20 CL         -0.4704   -5.3716    1.1052 Cl      1  UNL1       -0.0831
     21 C          -0.1421   -1.8137    0.1535 C.ar    1  UNL1        0.3325
     22 O           0.5523   -2.8372    0.3078 O.2     1  UNL1       -0.2462
     23 N           0.3419   -0.6516    0.6468 N.ar    1  UNL1       -0.2585
     24 C           1.5663   -0.6380    1.3596 C.3     1  UNL1        0.0505
     25 C           2.8360   -0.5902    0.5228 C.3     1  UNL1        0.0513
     26 N           3.9096   -0.5848    1.4509 N.3     1  UNL1       -0.3079
     27 C           5.2194   -0.7932    1.0155 C.3     1  UNL1       -0.0030
     28 C           5.8968    0.3119    0.3214 C.3     1  UNL1       -0.0304
     29 C           6.2165    1.5318    1.1336 C.3     1  UNL1        0.0459
     30 C           5.1311    2.2267    1.7860 C.2     1  UNL1        0.3047
     31 O           4.2868    1.6946    2.5555 O.2     1  UNL1       -0.2510
     32 O           4.9108    3.6234    1.6121 O.3     1  UNL1       -0.4806
     33 C           2.8131    0.3188   -0.5959 C.ar    1  UNL1       -0.0288
     34 C           2.7077    1.6846   -0.4928 C.ar    1  UNL1       -0.0570
     35 C           2.6969    2.5471   -1.5936 C.ar    1  UNL1       -0.0615
     36 C           2.7964    2.0086   -2.8553 C.ar    1  UNL1       -0.0617
     37 C           2.9038    0.6376   -2.9952 C.ar    1  UNL1       -0.0615
     38 C           2.9133   -0.1973   -1.9090 C.ar    1  UNL1       -0.0570
     39 C          -0.3955    0.4403    0.4689 C.ar    1  UNL1        0.2647
     40 O          -0.0550    1.5802    0.8877 O.2     1  UNL1       -0.2668
     41 C          -3.3017    1.9962    0.6408 C.ar    1  UNL1        0.1726
     42 F          -3.4631    1.2105    1.7324 F       1  UNL1       -0.2010
     43 H          -6.3581    4.7344    0.4580 H       1  UNL1        0.0660
     44 H          -6.2150    4.9735    2.2649 H       1  UNL1        0.0660
     45 H          -4.9614    5.6416    1.0906 H       1  UNL1        0.0660
     46 H          -4.3579    4.8697   -0.8096 H       1  UNL1        0.0655
     47 H          -2.7659    4.1416   -2.4895 H       1  UNL1        0.0619
     48 H          -1.5146    2.1091   -2.2418 H       1  UNL1        0.0625
     49 H          -4.2039   -0.9141   -0.8427 H       1  UNL1        0.0292
     50 H          -3.4222    0.2630   -1.8817 H       1  UNL1        0.0292
     51 H          -3.2529   -1.4051   -2.3838 H       1  UNL1        0.0292
     52 H          -2.1213   -3.1145   -1.9982 H       1  UNL1        0.0544
     53 H          -0.7193   -3.8373   -1.1776 H       1  UNL1        0.0544
     54 H          -5.9004   -4.8502    0.0937 H       1  UNL1        0.0646
     55 H          -5.1111   -6.3875    1.7912 H       1  UNL1        0.0619
     56 H          -2.7059   -6.5445    2.2216 H       1  UNL1        0.0632
     57 H           1.6707   -1.5457    2.0095 H       1  UNL1        0.0513
     58 H           1.6407    0.2298    2.0796 H       1  UNL1        0.0513
     59 H           2.8736   -1.6525    0.0664 H       1  UNL1        0.0528
     60 H           3.6401   -0.9993    2.3498 H       1  UNL1        0.1226
     61 H           5.8409   -0.9880    1.9640 H       1  UNL1        0.0424
     62 H           5.3582   -1.7795    0.4747 H       1  UNL1        0.0424
     63 H           6.8807   -0.0994   -0.0668 H       1  UNL1        0.0283
     64 H           5.3328    0.6772   -0.5870 H       1  UNL1        0.0283
     65 H           6.7718    2.2228    0.4264 H       1  UNL1        0.0378
     66 H           6.9871    1.3009    1.9256 H       1  UNL1        0.0378
     67 H           4.0032    4.0156    1.7624 H       1  UNL1        0.2951
     68 H           2.6055    2.1511    0.5016 H       1  UNL1        0.0621
     69 H           2.6086    3.6154   -1.4066 H       1  UNL1        0.0618
     70 H           2.7878    2.6643   -3.7349 H       1  UNL1        0.0618
     71 H           2.9843    0.1873   -3.9963 H       1  UNL1        0.0618
     72 H           2.9986   -1.2640   -2.0804 H       1  UNL1        0.0621
@<TRIPOS>BOND
     1     1     2    1
     2     2     3    1
     3     3     4   ar
     4     4     5   ar
     5     5     6   ar
     6     6     7   ar
     7     7     8    1
     8     8     9   ar
     9     9    10    1
    10     9    11   ar
    11    11    12    1
    12    12    13    1
    13    13    14   ar
    14    14    15    1
    15    14    16   ar
    16    16    17   ar
    17    17    18   ar
    18    18    19   ar
    19    19    20    1
    20    11    21   ar
    21    21    22    2
    22    21    23   ar
    23    23    24    1
    24    24    25    1
    25    25    26    1
    26    26    27    1
    27    27    28    1
    28    28    29    1
    29    29    30    1
    30    30    31    2
    31    30    32    1
    32    25    33    1
    33    33    34   ar
    34    34    35   ar
    35    35    36   ar
    36    36    37   ar
    37    37    38   ar
    38    23    39   ar
    39    39    40    2
    40     7    41   ar
    41    41    42    1
    42    41     3   ar
    43    39     8   ar
    44    19    13   ar
    45    38    33   ar
    46     1    43    1
    47     1    44    1
    48     1    45    1
    49     4    46    1
    50     5    47    1
    51     6    48    1
    52    10    49    1
    53    10    50    1
    54    10    51    1
    55    12    52    1
    56    12    53    1
    57    16    54    1
    58    17    55    1
    59    18    56    1
    60    24    57    1
    61    24    58    1
    62    25    59    1
    63    26    60    1
    64    27    61    1
    65    27    62    1
    66    28    63    1
    67    28    64    1
    68    29    65    1
    69    29    66    1
    70    32    67    1
    71    34    68    1
    72    35    69    1
    73    36    70    1
    74    37    71    1
    75    38    72    1
