@<TRIPOS>MOLECULE
*****
 74 75 0 0 0
SMALL
GASTEIGER

@<TRIPOS>ATOM
      1 C           2.6655    3.1011    3.1431 C.3     1  UNL1       -0.0306
      2 C           2.7155    4.3313    2.2892 C.3     1  UNL1        0.0897
      3 O           3.0256    4.0199    0.9262 O.3     1  UNL1       -0.4636
      4 C           2.2361    3.1905    0.1397 C.2     1  UNL1        0.3273
      5 O           1.2164    2.7267    0.7175 O.2     1  UNL1       -0.2488
      6 C           2.8164    3.0630   -1.2167 C.3     1  UNL1        0.1178
      7 C           4.2639    2.6266   -1.2111 C.3     1  UNL1       -0.0362
      8 C           2.8182    4.4768   -1.8042 C.3     1  UNL1       -0.0362
      9 N           2.0779    2.2341   -2.0945 N.3     1  UNL1       -0.2335
     10 P           1.8548    0.6012   -1.6423 P.3     1  UNL1        0.2779
     11 O           2.3229   -0.2737   -2.8076 O.2     1  UNL1       -0.2789
     12 N           2.6725    0.0813   -0.2222 N.3     1  UNL1       -0.2335
     13 C           3.4367   -1.1234   -0.3545 C.3     1  UNL1        0.1178
     14 C           4.0695   -1.3980    1.0140 C.3     1  UNL1       -0.0362
     15 C           4.5600   -1.0632   -1.3361 C.3     1  UNL1       -0.0362
     16 C           2.5953   -2.2993   -0.6913 C.2     1  UNL1        0.3273
     17 O           1.3612   -2.2584   -0.8444 O.2     1  UNL1       -0.2488
     18 O           3.3222   -3.4510   -0.8188 O.3     1  UNL1       -0.4636
     19 C           2.7208   -4.7118   -1.1408 C.3     1  UNL1        0.0897
     20 C           1.7233   -5.0470   -0.0652 C.3     1  UNL1       -0.0306
     21 C           0.0768    0.3013   -1.5364 C.ar    1  UNL1        0.1926
     22 C          -0.8442    0.0060   -2.5117 C.ar    1  UNL1       -0.0098
     23 C          -1.9838   -0.0965   -1.7884 C.ar    1  UNL1       -0.0135
     24 C          -1.8171    0.1139   -0.4466 C.ar    1  UNL1        0.1554
     25 O          -0.5270    0.3473   -0.4118 O.2     1  UNL1       -0.4479
     26 C          -2.7700    0.1045    0.6747 C.ar    1  UNL1        0.1257
     27 C          -4.1216   -0.4946    0.6220 C.ar    1  UNL1        0.0872
     28 S          -4.7373   -0.0101    2.2049 S.2     1  UNL1       -0.0490
     29 C          -3.2394    0.8797    2.7540 C.ar    1  UNL1        0.1569
     30 N          -3.0905    1.5215    3.9883 N.pl3   1  UNL1       -0.3375
     31 N          -2.3908    0.7563    1.7257 N.ar    1  UNL1       -0.2213
     32 C          -4.7733   -1.3503   -0.4131 C.2     1  UNL1        0.1773
     33 O          -4.5365   -1.8871   -1.4714 O.2     1  UNL1       -0.2909
     34 C          -6.1485   -1.6103    0.0145 C.3     1  UNL1        0.0258
     35 C          -6.2242   -2.3506    1.3332 C.3     1  UNL1       -0.0530
     36 C          -6.9070   -2.3965   -1.0107 C.3     1  UNL1       -0.0530
     37 C          -6.8569   -0.2589    0.1346 C.3     1  UNL1       -0.0530
     38 H           1.6055    2.8341    3.3226 H       1  UNL1        0.0262
     39 H           3.1083    3.3568    4.1355 H       1  UNL1        0.0262
     40 H           3.2364    2.2537    2.7098 H       1  UNL1        0.0262
     41 H           3.5255    4.9976    2.6441 H       1  UNL1        0.0694
     42 H           1.7602    4.8819    2.3924 H       1  UNL1        0.0694
     43 H           4.4652    1.8146   -0.4804 H       1  UNL1        0.0253
     44 H           4.4671    2.2361   -2.2486 H       1  UNL1        0.0253
     45 H           4.9182    3.4978   -1.0758 H       1  UNL1        0.0253
     46 H           3.6642    4.9971   -1.3057 H       1  UNL1        0.0253
     47 H           1.8367    4.9226   -1.5081 H       1  UNL1        0.0253
     48 H           2.9323    4.4256   -2.9003 H       1  UNL1        0.0253
     49 H           2.1393    2.4556   -3.0903 H       1  UNL1        0.1319
     50 H           2.0242   -0.0637    0.5865 H       1  UNL1        0.1319
     51 H           4.9195   -2.1025    0.9241 H       1  UNL1        0.0253
     52 H           3.2966   -1.7363    1.7274 H       1  UNL1        0.0253
     53 H           4.4406   -0.4114    1.3730 H       1  UNL1        0.0253
     54 H           4.4965   -0.1662   -1.9553 H       1  UNL1        0.0253
     55 H           5.5725   -1.0205   -0.8441 H       1  UNL1        0.0253
     56 H           4.6067   -1.9803   -1.9734 H       1  UNL1        0.0253
     57 H           3.4892   -5.5104   -1.1146 H       1  UNL1        0.0694
     58 H           2.2385   -4.6549   -2.1472 H       1  UNL1        0.0694
     59 H           0.8131   -5.4378   -0.5643 H       1  UNL1        0.0262
     60 H           2.1091   -5.8182    0.6403 H       1  UNL1        0.0262
     61 H           1.4664   -4.1466    0.5328 H       1  UNL1        0.0262
     62 H          -0.5964   -0.0917   -3.5516 H       1  UNL1        0.0658
     63 H          -2.8730   -0.2969   -2.3363 H       1  UNL1        0.0656
     64 H          -2.7789    0.8576    4.7514 H       1  UNL1        0.1442
     65 H          -3.3045    2.5622    3.9950 H       1  UNL1        0.1442
     66 H          -5.1733   -2.5607    1.6617 H       1  UNL1        0.0239
     67 H          -6.7616   -1.7174    2.0685 H       1  UNL1        0.0239
     68 H          -6.7152   -3.3376    1.2163 H       1  UNL1        0.0239
     69 H          -6.8543   -3.4880   -0.8482 H       1  UNL1        0.0239
     70 H          -7.9746   -2.1120   -0.9486 H       1  UNL1        0.0239
     71 H          -6.5645   -2.1721   -2.0570 H       1  UNL1        0.0239
     72 H          -7.4569   -0.1713    1.0448 H       1  UNL1        0.0239
     73 H          -7.5357   -0.0718   -0.7335 H       1  UNL1        0.0239
     74 H          -6.1262    0.5727    0.1153 H       1  UNL1        0.0239
@<TRIPOS>BOND
     1     1     2    1
     2     2     3    1
     3     3     4    1
     4     4     5    2
     5     4     6    1
     6     6     7    1
     7     6     8    1
     8     6     9    1
     9     9    10    1
    10    10    11    2
    11    10    12    1
    12    12    13    1
    13    13    14    1
    14    13    15    1
    15    13    16    1
    16    16    17    2
    17    16    18    1
    18    18    19    1
    19    19    20    1
    20    10    21    1
    21    21    22   ar
    22    22    23   ar
    23    23    24   ar
    24    24    25   ar
    25    24    26    1
    26    26    27   ar
    27    27    28   ar
    28    28    29   ar
    29    29    30    1
    30    29    31   ar
    31    27    32    1
    32    32    33    2
    33    32    34    1
    34    34    35    1
    35    34    36    1
    36    34    37    1
    37    25    21   ar
    38    31    26   ar
    39     1    38    1
    40     1    39    1
    41     1    40    1
    42     2    41    1
    43     2    42    1
    44     7    43    1
    45     7    44    1
    46     7    45    1
    47     8    46    1
    48     8    47    1
    49     8    48    1
    50     9    49    1
    51    12    50    1
    52    14    51    1
    53    14    52    1
    54    14    53    1
    55    15    54    1
    56    15    55    1
    57    15    56    1
    58    19    57    1
    59    19    58    1
    60    20    59    1
    61    20    60    1
    62    20    61    1
    63    22    62    1
    64    23    63    1
    65    30    64    1
    66    30    65    1
    67    35    66    1
    68    35    67    1
    69    35    68    1
    70    36    69    1
    71    36    70    1
    72    36    71    1
    73    37    72    1
    74    37    73    1
    75    37    74    1
