@<TRIPOS>MOLECULE
*****
 17 17 0 0 0
SMALL
GASTEIGER

@<TRIPOS>ATOM
      1 O           2.8495   -0.6152    0.3985 O.3     1  PRO1       -0.4795
      2 C           1.8660    0.0175   -0.3168 C.2     1  PRO1        0.3219
      3 OXT         2.2596    0.3352   -1.4788 O.2     1  PRO1       -0.2492
      4 CA          0.5519    0.2323    0.3274 C.3     1  PRO1        0.1057
      5 CB         -0.2053   -1.0488    0.5874 C.3     1  PRO1       -0.0260
      6 CG         -1.6740   -0.6150    0.5121 C.3     1  PRO1       -0.0385
      7 CD         -1.5696    0.8891    0.2927 C.3     1  PRO1       -0.0033
      8 N          -0.3777    0.9179   -0.5709 N.3     1  PRO1       -0.3041
      9 H           3.8397   -0.4223    0.3194 H       1  PRO1        0.2951
     10 HA          0.6262    0.8293    1.2468 H       1  PRO1        0.0576
     11 HB1         0.0271   -1.4924    1.5751 H       1  PRO1        0.0286
     12 HB2         0.0146   -1.7687   -0.2256 H       1  PRO1        0.0286
     13 HG1        -2.2073   -1.0822   -0.3248 H       1  PRO1        0.0278
     14 HG2        -2.2031   -0.8193    1.4679 H       1  PRO1        0.0278
     15 HD1        -2.4458    1.3357   -0.1723 H       1  PRO1        0.0424
     16 HD2        -1.2678    1.3842    1.2439 H       1  PRO1        0.0424
     17 H          -0.0840    1.9226   -0.7222 H       1  PRO1        0.1227
@<TRIPOS>BOND
     1     1     2    1
     2     2     3    2
     3     2     4    1
     4     4     5    1
     5     5     6    1
     6     6     7    1
     7     7     8    1
     8     8     4    1
     9     1     9    1
    10     4    10    1
    11     5    11    1
    12     5    12    1
    13     6    13    1
    14     6    14    1
    15     7    15    1
    16     7    16    1
    17     8    17    1
