@<TRIPOS>MOLECULE
*****
 64 68 0 0 0
SMALL
GASTEIGER

@<TRIPOS>ATOM
      1 C           9.2865    1.7094    0.1700 C.3     1  UNL1        0.0124
      2 C           8.6585    0.3944    0.4781 C.2     1  UNL1        0.2126
      3 O           9.2951   -0.6704    0.2615 O.2     1  UNL1       -0.2759
      4 N           7.3579    0.3041    1.0116 N.am    1  UNL1       -0.2987
      5 C           6.7629   -0.9527    1.3013 C.3     1  UNL1        0.0304
      6 C           5.2734   -0.8828    1.5124 C.3     1  UNL1        0.0280
      7 N           4.6243    0.2007    0.8369 N.pl3   1  UNL1       -0.3269
      8 C           3.2162    0.0586    0.5514 C.ar    1  UNL1        0.0300
      9 C           2.4836   -1.0037    0.9997 C.ar    1  UNL1       -0.0372
     10 C           1.1238   -1.0814    0.6768 C.ar    1  UNL1       -0.0182
     11 C           0.4877   -0.1249   -0.0796 C.ar    1  UNL1        0.1207
     12 O          -0.8588   -0.2060   -0.3978 O.3     1  UNL1       -0.4893
     13 C          -1.5846   -1.3110    0.0787 C.3     1  UNL1        0.1179
     14 C          -3.0258   -1.2915   -0.3338 C.3     1  UNL1        0.1195
     15 C          -3.1901   -1.1253   -1.8352 C.3     1  UNL1        0.0808
     16 O          -4.5446   -0.7974   -1.8806 O.3     1  UNL1       -0.3406
     17 C          -4.9030   -0.2576   -0.6665 C.3     1  UNL1        0.2169
     18 C          -5.5140    1.1254   -0.7770 C.3     1  UNL1        0.0828
     19 N          -4.6272    2.0716   -1.3720 N.ar    1  UNL1       -0.3313
     20 C          -4.5436    2.3280   -2.6892 C.ar    1  UNL1        0.0242
     21 C          -3.5746    3.3061   -2.9294 C.ar    1  UNL1        0.0454
     22 N          -3.0915    3.6162   -1.7122 N.ar    1  UNL1       -0.2441
     23 C          -3.7251    2.8748   -0.7850 C.ar    1  UNL1        0.0961
     24 C          -5.8205   -1.1669    0.0696 C.ar    1  UNL1        0.0313
     25 C          -5.4688   -1.5789    1.3373 C.ar    1  UNL1       -0.0507
     26 C          -6.3033   -2.3930    2.0766 C.ar    1  UNL1       -0.0429
     27 C          -7.5101   -2.7992    1.5342 C.ar    1  UNL1        0.0424
     28 CL         -8.5130   -3.8280    2.5313 Cl      1  UNL1       -0.0835
     29 C          -7.8551   -2.3923    0.2851 C.ar    1  UNL1       -0.0246
     30 C          -7.0297   -1.5798   -0.4625 C.ar    1  UNL1        0.0507
     31 CL         -7.4829   -1.0870   -2.0766 Cl      1  UNL1       -0.0830
     32 O          -3.7176   -0.1845    0.1101 O.3     1  UNL1       -0.3343
     33 C           1.2435    0.9394   -0.5224 C.ar    1  UNL1       -0.0182
     34 C           2.5906    1.0426   -0.2186 C.ar    1  UNL1       -0.0372
     35 C           5.3324    1.3965    0.4522 C.3     1  UNL1        0.0280
     36 C           6.6098    1.5107    1.2687 C.3     1  UNL1        0.0304
     37 H           9.2138    2.4410    0.9766 H       1  UNL1        0.0323
     38 H           8.7219    2.1321   -0.6963 H       1  UNL1        0.0323
     39 H          10.3124    1.5321   -0.1783 H       1  UNL1        0.0323
     40 H           7.2275   -1.3271    2.2536 H       1  UNL1        0.0480
     41 H           7.0407   -1.7434    0.5449 H       1  UNL1        0.0480
     42 H           5.0470   -0.9079    2.6054 H       1  UNL1        0.0479
     43 H           4.8813   -1.8730    1.1307 H       1  UNL1        0.0479
     44 H           2.9264   -1.7856    1.5999 H       1  UNL1        0.0637
     45 H           0.5987   -1.9434    1.0597 H       1  UNL1        0.0655
     46 H          -1.5530   -1.4212    1.1818 H       1  UNL1        0.0723
     47 H          -1.1190   -2.2143   -0.3632 H       1  UNL1        0.0723
     48 H          -3.5040   -2.2410   -0.0624 H       1  UNL1        0.0654
     49 H          -2.6078   -0.2288   -2.1654 H       1  UNL1        0.0588
     50 H          -2.9183   -2.0107   -2.4085 H       1  UNL1        0.0588
     51 H          -6.4898    1.0378   -1.2693 H       1  UNL1        0.0549
     52 H          -5.7303    1.4726    0.2672 H       1  UNL1        0.0549
     53 H          -5.1454    1.8408   -3.4443 H       1  UNL1        0.0825
     54 H          -3.3011    3.7009   -3.8932 H       1  UNL1        0.0845
     55 H          -3.5488    2.9054    0.2800 H       1  UNL1        0.1029
     56 H          -4.5291   -1.2679    1.7993 H       1  UNL1        0.0623
     57 H          -5.9990   -2.7024    3.0741 H       1  UNL1        0.0632
     58 H          -8.8232   -2.7364   -0.1112 H       1  UNL1        0.0647
     59 H           0.8215    1.7336   -1.1205 H       1  UNL1        0.0655
     60 H           3.1774    1.8792   -0.5684 H       1  UNL1        0.0637
     61 H           4.7628    2.3233    0.6258 H       1  UNL1        0.0479
     62 H           5.5953    1.2884   -0.6316 H       1  UNL1        0.0479
     63 H           6.3384    1.5248    2.3462 H       1  UNL1        0.0480
     64 H           7.1415    2.4266    0.9783 H       1  UNL1        0.0480
@<TRIPOS>BOND
     1     1     2    1
     2     2     3    2
     3     2     4   am
     4     4     5    1
     5     5     6    1
     6     6     7    1
     7     7     8    1
     8     8     9   ar
     9     9    10   ar
    10    10    11   ar
    11    11    12    1
    12    12    13    1
    13    13    14    1
    14    14    15    1
    15    15    16    1
    16    16    17    1
    17    17    18    1
    18    18    19    1
    19    19    20   ar
    20    20    21   ar
    21    21    22   ar
    22    22    23   ar
    23    17    24    1
    24    24    25   ar
    25    25    26   ar
    26    26    27   ar
    27    27    28    1
    28    27    29   ar
    29    29    30   ar
    30    30    31    1
    31    17    32    1
    32    11    33   ar
    33    33    34   ar
    34     7    35    1
    35    35    36    1
    36    36     4    1
    37    34     8   ar
    38    32    14    1
    39    23    19   ar
    40    30    24   ar
    41     1    37    1
    42     1    38    1
    43     1    39    1
    44     5    40    1
    45     5    41    1
    46     6    42    1
    47     6    43    1
    48     9    44    1
    49    10    45    1
    50    13    46    1
    51    13    47    1
    52    14    48    1
    53    15    49    1
    54    15    50    1
    55    18    51    1
    56    18    52    1
    57    20    53    1
    58    21    54    1
    59    23    55    1
    60    25    56    1
    61    26    57    1
    62    29    58    1
    63    33    59    1
    64    34    60    1
    65    35    61    1
    66    35    62    1
    67    36    63    1
    68    36    64    1
