
     RDKit          3D

 64 68  0  0  0  0  0  0  0  0999 V2000
    9.2865    1.7094    0.1700 C   0  0  0  0  0  0  0  0  0  0  0  0
    8.6585    0.3944    0.4781 C   0  0  0  0  0  0  0  0  0  0  0  0
    9.2951   -0.6704    0.2615 O   0  0  0  0  0  0  0  0  0  0  0  0
    7.3579    0.3041    1.0116 N   0  0  0  0  0  0  0  0  0  0  0  0
    6.7629   -0.9527    1.3013 C   0  0  0  0  0  0  0  0  0  0  0  0
    5.2734   -0.8828    1.5124 C   0  0  0  0  0  0  0  0  0  0  0  0
    4.6243    0.2007    0.8369 N   0  0  0  0  0  0  0  0  0  0  0  0
    3.2162    0.0586    0.5514 C   0  0  0  0  0  0  0  0  0  0  0  0
    2.4836   -1.0037    0.9997 C   0  0  0  0  0  0  0  0  0  0  0  0
    1.1238   -1.0814    0.6768 C   0  0  0  0  0  0  0  0  0  0  0  0
    0.4877   -0.1249   -0.0796 C   0  0  0  0  0  0  0  0  0  0  0  0
   -0.8588   -0.2060   -0.3978 O   0  0  0  0  0  0  0  0  0  0  0  0
   -1.5846   -1.3110    0.0787 C   0  0  0  0  0  0  0  0  0  0  0  0
   -3.0258   -1.2915   -0.3338 C   0  0  2  0  0  0  0  0  0  0  0  0
   -3.1901   -1.1253   -1.8352 C   0  0  0  0  0  0  0  0  0  0  0  0
   -4.5446   -0.7974   -1.8806 O   0  0  0  0  0  0  0  0  0  0  0  0
   -4.9030   -0.2576   -0.6665 C   0  0  1  0  0  0  0  0  0  0  0  0
   -5.5140    1.1254   -0.7770 C   0  0  0  0  0  0  0  0  0  0  0  0
   -4.6272    2.0716   -1.3720 N   0  0  0  0  0  0  0  0  0  0  0  0
   -4.5436    2.3280   -2.6892 C   0  0  0  0  0  0  0  0  0  0  0  0
   -3.5746    3.3061   -2.9294 C   0  0  0  0  0  0  0  0  0  0  0  0
   -3.0915    3.6162   -1.7122 N   0  0  0  0  0  0  0  0  0  0  0  0
   -3.7251    2.8748   -0.7850 C   0  0  0  0  0  0  0  0  0  0  0  0
   -5.8205   -1.1669    0.0696 C   0  0  0  0  0  0  0  0  0  0  0  0
   -5.4688   -1.5789    1.3373 C   0  0  0  0  0  0  0  0  0  0  0  0
   -6.3033   -2.3930    2.0766 C   0  0  0  0  0  0  0  0  0  0  0  0
   -7.5101   -2.7992    1.5342 C   0  0  0  0  0  0  0  0  0  0  0  0
   -8.5130   -3.8280    2.5313 Cl  0  0  0  0  0  0  0  0  0  0  0  0
   -7.8551   -2.3923    0.2851 C   0  0  0  0  0  0  0  0  0  0  0  0
   -7.0297   -1.5798   -0.4625 C   0  0  0  0  0  0  0  0  0  0  0  0
   -7.4829   -1.0870   -2.0766 Cl  0  0  0  0  0  0  0  0  0  0  0  0
   -3.7176   -0.1845    0.1101 O   0  0  0  0  0  0  0  0  0  0  0  0
    1.2435    0.9394   -0.5224 C   0  0  0  0  0  0  0  0  0  0  0  0
    2.5906    1.0426   -0.2186 C   0  0  0  0  0  0  0  0  0  0  0  0
    5.3324    1.3965    0.4522 C   0  0  0  0  0  0  0  0  0  0  0  0
    6.6098    1.5107    1.2687 C   0  0  0  0  0  0  0  0  0  0  0  0
    9.2138    2.4410    0.9766 H   0  0  0  0  0  0  0  0  0  0  0  0
    8.7219    2.1321   -0.6963 H   0  0  0  0  0  0  0  0  0  0  0  0
   10.3124    1.5321   -0.1783 H   0  0  0  0  0  0  0  0  0  0  0  0
    7.2275   -1.3271    2.2536 H   0  0  0  0  0  0  0  0  0  0  0  0
    7.0407   -1.7434    0.5449 H   0  0  0  0  0  0  0  0  0  0  0  0
    5.0470   -0.9079    2.6054 H   0  0  0  0  0  0  0  0  0  0  0  0
    4.8813   -1.8730    1.1307 H   0  0  0  0  0  0  0  0  0  0  0  0
    2.9264   -1.7856    1.5999 H   0  0  0  0  0  0  0  0  0  0  0  0
    0.5987   -1.9434    1.0597 H   0  0  0  0  0  0  0  0  0  0  0  0
   -1.5530   -1.4212    1.1818 H   0  0  0  0  0  0  0  0  0  0  0  0
   -1.1190   -2.2143   -0.3632 H   0  0  0  0  0  0  0  0  0  0  0  0
   -3.5040   -2.2410   -0.0624 H   0  0  0  0  0  0  0  0  0  0  0  0
   -2.6078   -0.2288   -2.1654 H   0  0  0  0  0  0  0  0  0  0  0  0
   -2.9183   -2.0107   -2.4085 H   0  0  0  0  0  0  0  0  0  0  0  0
   -6.4898    1.0378   -1.2693 H   0  0  0  0  0  0  0  0  0  0  0  0
   -5.7303    1.4726    0.2672 H   0  0  0  0  0  0  0  0  0  0  0  0
   -5.1454    1.8408   -3.4443 H   0  0  0  0  0  0  0  0  0  0  0  0
   -3.3011    3.7009   -3.8932 H   0  0  0  0  0  0  0  0  0  0  0  0
   -3.5488    2.9054    0.2800 H   0  0  0  0  0  0  0  0  0  0  0  0
   -4.5291   -1.2679    1.7993 H   0  0  0  0  0  0  0  0  0  0  0  0
   -5.9990   -2.7024    3.0741 H   0  0  0  0  0  0  0  0  0  0  0  0
   -8.8232   -2.7364   -0.1112 H   0  0  0  0  0  0  0  0  0  0  0  0
    0.8215    1.7336   -1.1205 H   0  0  0  0  0  0  0  0  0  0  0  0
    3.1774    1.8792   -0.5684 H   0  0  0  0  0  0  0  0  0  0  0  0
    4.7628    2.3233    0.6258 H   0  0  0  0  0  0  0  0  0  0  0  0
    5.5953    1.2884   -0.6316 H   0  0  0  0  0  0  0  0  0  0  0  0
    6.3384    1.5248    2.3462 H   0  0  0  0  0  0  0  0  0  0  0  0
    7.1415    2.4266    0.9783 H   0  0  0  0  0  0  0  0  0  0  0  0
  1  2  1  0
  2  3  2  0
  2  4  1  0
  4  5  1  0
  5  6  1  0
  6  7  1  0
  7  8  1  0
  8  9  2  0
  9 10  1  0
 10 11  2  0
 11 12  1  0
 12 13  1  0
 13 14  1  0
 14 15  1  0
 15 16  1  0
 16 17  1  0
 17 18  1  6
 18 19  1  0
 19 20  1  0
 20 21  2  0
 21 22  1  0
 22 23  2  0
 17 24  1  0
 24 25  2  0
 25 26  1  0
 26 27  2  0
 27 28  1  0
 27 29  1  0
 29 30  2  0
 30 31  1  0
 17 32  1  0
 11 33  1  0
 33 34  2  0
  7 35  1  0
 35 36  1  0
 36  4  1  0
 34  8  1  0
 32 14  1  0
 23 19  1  0
 30 24  1  0
  1 37  1  0
  1 38  1  0
  1 39  1  0
  5 40  1  0
  5 41  1  0
  6 42  1  0
  6 43  1  0
  9 44  1  0
 10 45  1  0
 13 46  1  0
 13 47  1  0
 14 48  1  1
 15 49  1  0
 15 50  1  0
 18 51  1  0
 18 52  1  0
 20 53  1  0
 21 54  1  0
 23 55  1  0
 25 56  1  0
 26 57  1  0
 29 58  1  0
 33 59  1  0
 34 60  1  0
 35 61  1  0
 35 62  1  0
 36 63  1  0
 36 64  1  0
M  END
$$$$
