@<TRIPOS>MOLECULE
*****
 68 70 0 0 0
SMALL
GASTEIGER

@<TRIPOS>ATOM
      1 C          -3.6174   -4.1732   -0.9300 C.3     1  UNL1       -0.0652
      2 C          -2.4268   -4.6340   -0.1195 C.3     1  UNL1       -0.0544
      3 C          -1.1392   -4.0390   -0.6290 C.3     1  UNL1       -0.0357
      4 C          -1.0289   -2.5786   -0.6625 C.3     1  UNL1        0.0350
      5 N          -1.1329   -1.7890    0.4977 N.pl3   1  UNL1       -0.2027
      6 C          -2.3685   -1.0230    0.6513 C.ar    1  UNL1        0.0547
      7 C          -3.3566   -1.5664    1.4247 C.ar    1  UNL1       -0.0388
      8 C          -4.5397   -0.8468    1.6419 C.ar    1  UNL1       -0.0594
      9 C          -4.7080    0.3938    1.0847 C.ar    1  UNL1       -0.0537
     10 C          -3.6881    0.9287    0.3001 C.ar    1  UNL1       -0.0132
     11 C          -3.8954    2.2456   -0.2897 C.ar    1  UNL1       -0.0175
     12 C          -4.3530    3.2849    0.4925 C.ar    1  UNL1       -0.0526
     13 C          -4.5801    4.5506    0.0023 C.ar    1  UNL1       -0.0428
     14 C          -4.3338    4.7735   -1.3345 C.ar    1  UNL1        0.0410
     15 CL         -4.6019    6.3749   -2.0386 Cl      1  UNL1       -0.0835
     16 C          -3.8764    3.7414   -2.1245 C.ar    1  UNL1       -0.0428
     17 C          -3.6568    2.4923   -1.6216 C.ar    1  UNL1       -0.0526
     18 C          -2.5231    0.2246    0.0834 C.ar    1  UNL1       -0.0202
     19 C          -1.4339    0.7646   -0.7526 C.3     1  UNL1       -0.0373
     20 S           0.0246   -1.5209    1.7286 S.O2    1  UNL1        0.0750
     21 O           0.3200   -2.8387    2.4697 O.2     1  UNL1       -0.1498
     22 O          -0.5683   -0.6606    2.8475 O.2     1  UNL1       -0.1498
     23 C           1.5019   -0.7730    1.2392 C.ar    1  UNL1        0.1121
     24 C           1.7504    0.5554    1.6208 C.ar    1  UNL1       -0.0313
     25 C           2.8800    1.2364    1.2387 C.ar    1  UNL1       -0.0178
     26 C           3.8362    0.6501    0.4557 C.ar    1  UNL1        0.1249
     27 O           5.0009    1.2439    0.0180 O.3     1  UNL1       -0.4776
     28 C           5.3880    2.5415    0.3065 C.3     1  UNL1        0.1931
     29 C           6.6971    2.5692    1.0949 C.3     1  UNL1       -0.0172
     30 C           5.6546    3.2633   -0.9580 C.2     1  UNL1        0.3456
     31 O           5.5148    2.6794   -2.0448 O.2     1  UNL1       -0.2468
     32 O           6.0552    4.5777   -0.9053 O.3     1  UNL1       -0.4781
     33 C           3.6259   -0.6775    0.0534 C.ar    1  UNL1       -0.0040
     34 C           4.6388   -1.3470   -0.7953 C.3     1  UNL1       -0.0359
     35 C           2.4771   -1.3304    0.4586 C.ar    1  UNL1       -0.0175
     36 C           2.3505   -2.7533    0.0303 C.3     1  UNL1       -0.0375
     37 H          -3.5393   -4.5759   -1.9774 H       1  UNL1        0.0230
     38 H          -3.6542   -3.0885   -1.0181 H       1  UNL1        0.0230
     39 H          -4.5425   -4.5088   -0.4421 H       1  UNL1        0.0230
     40 H          -2.4001   -5.7629   -0.2662 H       1  UNL1        0.0263
     41 H          -2.6328   -4.4515    0.9450 H       1  UNL1        0.0263
     42 H          -0.2531   -4.5691   -0.2024 H       1  UNL1        0.0281
     43 H          -1.1031   -4.3768   -1.7221 H       1  UNL1        0.0281
     44 H          -0.1106   -2.3129   -1.2849 H       1  UNL1        0.0482
     45 H          -1.8481   -2.2422   -1.4113 H       1  UNL1        0.0482
     46 H          -3.2914   -2.5248    1.9087 H       1  UNL1        0.0637
     47 H          -5.3126   -1.2747    2.2478 H       1  UNL1        0.0618
     48 H          -5.6118    0.9748    1.2347 H       1  UNL1        0.0624
     49 H          -4.5474    3.0987    1.5597 H       1  UNL1        0.0624
     50 H          -4.9406    5.3439    0.6481 H       1  UNL1        0.0632
     51 H          -3.6874    3.9455   -3.1895 H       1  UNL1        0.0632
     52 H          -3.2943    1.6987   -2.2894 H       1  UNL1        0.0624
     53 H          -0.4674    0.5109   -0.3074 H       1  UNL1        0.0278
     54 H          -1.4332    1.8936   -0.7970 H       1  UNL1        0.0278
     55 H          -1.4102    0.3236   -1.7811 H       1  UNL1        0.0278
     56 H           1.0060    1.0544    2.2466 H       1  UNL1        0.0638
     57 H           3.0104    2.2488    1.5635 H       1  UNL1        0.0655
     58 H           4.6653    3.1166    0.9510 H       1  UNL1        0.0849
     59 H           7.3012    3.4439    0.7881 H       1  UNL1        0.0271
     60 H           7.2960    1.6580    0.9282 H       1  UNL1        0.0271
     61 H           6.5070    2.6743    2.1774 H       1  UNL1        0.0271
     62 H           6.5891    4.9908   -1.6640 H       1  UNL1        0.2952
     63 H           5.5217   -0.6913   -0.8967 H       1  UNL1        0.0279
     64 H           4.2454   -1.5495   -1.8182 H       1  UNL1        0.0279
     65 H           5.0097   -2.2937   -0.3502 H       1  UNL1        0.0279
     66 H           1.5175   -3.2210    0.5383 H       1  UNL1        0.0278
     67 H           2.2008   -2.7832   -1.0616 H       1  UNL1        0.0278
     68 H           3.3223   -3.2901    0.2077 H       1  UNL1        0.0278
@<TRIPOS>BOND
     1     1     2    1
     2     2     3    1
     3     3     4    1
     4     4     5    1
     5     5     6    1
     6     6     7   ar
     7     7     8   ar
     8     8     9   ar
     9     9    10   ar
    10    10    11    1
    11    11    12   ar
    12    12    13   ar
    13    13    14   ar
    14    14    15    1
    15    14    16   ar
    16    16    17   ar
    17    10    18   ar
    18    18    19    1
    19     5    20    1
    20    20    21    2
    21    20    22    2
    22    20    23    1
    23    23    24   ar
    24    24    25   ar
    25    25    26   ar
    26    26    27    1
    27    27    28    1
    28    28    29    1
    29    28    30    1
    30    30    31    2
    31    30    32    1
    32    26    33   ar
    33    33    34    1
    34    33    35   ar
    35    35    36    1
    36    18     6   ar
    37    35    23   ar
    38    17    11   ar
    39     1    37    1
    40     1    38    1
    41     1    39    1
    42     2    40    1
    43     2    41    1
    44     3    42    1
    45     3    43    1
    46     4    44    1
    47     4    45    1
    48     7    46    1
    49     8    47    1
    50     9    48    1
    51    12    49    1
    52    13    50    1
    53    16    51    1
    54    17    52    1
    55    19    53    1
    56    19    54    1
    57    19    55    1
    58    24    56    1
    59    25    57    1
    60    28    58    1
    61    29    59    1
    62    29    60    1
    63    29    61    1
    64    32    62    1
    65    34    63    1
    66    34    64    1
    67    34    65    1
    68    36    66    1
    69    36    67    1
    70    36    68    1
