
     RDKit          3D

 68 70  0  0  0  0  0  0  0  0999 V2000
   -3.6174   -4.1732   -0.9300 C   0  0  0  0  0  0  0  0  0  0  0  0
   -2.4268   -4.6340   -0.1195 C   0  0  0  0  0  0  0  0  0  0  0  0
   -1.1392   -4.0390   -0.6290 C   0  0  0  0  0  0  0  0  0  0  0  0
   -1.0289   -2.5786   -0.6625 C   0  0  0  0  0  0  0  0  0  0  0  0
   -1.1329   -1.7890    0.4977 N   0  0  0  0  0  0  0  0  0  0  0  0
   -2.3685   -1.0230    0.6513 C   0  0  0  0  0  0  0  0  0  0  0  0
   -3.3566   -1.5664    1.4247 C   0  0  0  0  0  0  0  0  0  0  0  0
   -4.5397   -0.8468    1.6419 C   0  0  0  0  0  0  0  0  0  0  0  0
   -4.7080    0.3938    1.0847 C   0  0  0  0  0  0  0  0  0  0  0  0
   -3.6881    0.9287    0.3001 C   0  0  0  0  0  0  0  0  0  0  0  0
   -3.8954    2.2456   -0.2897 C   0  0  0  0  0  0  0  0  0  0  0  0
   -4.3530    3.2849    0.4925 C   0  0  0  0  0  0  0  0  0  0  0  0
   -4.5801    4.5506    0.0023 C   0  0  0  0  0  0  0  0  0  0  0  0
   -4.3338    4.7735   -1.3345 C   0  0  0  0  0  0  0  0  0  0  0  0
   -4.6019    6.3749   -2.0386 Cl  0  0  0  0  0  0  0  0  0  0  0  0
   -3.8764    3.7414   -2.1245 C   0  0  0  0  0  0  0  0  0  0  0  0
   -3.6568    2.4923   -1.6216 C   0  0  0  0  0  0  0  0  0  0  0  0
   -2.5231    0.2246    0.0834 C   0  0  0  0  0  0  0  0  0  0  0  0
   -1.4339    0.7646   -0.7526 C   0  0  0  0  0  0  0  0  0  0  0  0
    0.0246   -1.5209    1.7286 S   0  0  0  0  0  6  0  0  0  0  0  0
    0.3200   -2.8387    2.4697 O   0  0  0  0  0  0  0  0  0  0  0  0
   -0.5683   -0.6606    2.8475 O   0  0  0  0  0  0  0  0  0  0  0  0
    1.5019   -0.7730    1.2392 C   0  0  0  0  0  0  0  0  0  0  0  0
    1.7504    0.5554    1.6208 C   0  0  0  0  0  0  0  0  0  0  0  0
    2.8800    1.2364    1.2387 C   0  0  0  0  0  0  0  0  0  0  0  0
    3.8362    0.6501    0.4557 C   0  0  0  0  0  0  0  0  0  0  0  0
    5.0009    1.2439    0.0180 O   0  0  0  0  0  0  0  0  0  0  0  0
    5.3880    2.5415    0.3065 C   0  0  0  0  0  0  0  0  0  0  0  0
    6.6971    2.5692    1.0949 C   0  0  0  0  0  0  0  0  0  0  0  0
    5.6546    3.2633   -0.9580 C   0  0  0  0  0  0  0  0  0  0  0  0
    5.5148    2.6794   -2.0448 O   0  0  0  0  0  0  0  0  0  0  0  0
    6.0552    4.5777   -0.9053 O   0  0  0  0  0  0  0  0  0  0  0  0
    3.6259   -0.6775    0.0534 C   0  0  0  0  0  0  0  0  0  0  0  0
    4.6388   -1.3470   -0.7953 C   0  0  0  0  0  0  0  0  0  0  0  0
    2.4771   -1.3304    0.4586 C   0  0  0  0  0  0  0  0  0  0  0  0
    2.3505   -2.7533    0.0303 C   0  0  0  0  0  0  0  0  0  0  0  0
   -3.5393   -4.5759   -1.9774 H   0  0  0  0  0  0  0  0  0  0  0  0
   -3.6542   -3.0885   -1.0181 H   0  0  0  0  0  0  0  0  0  0  0  0
   -4.5425   -4.5088   -0.4421 H   0  0  0  0  0  0  0  0  0  0  0  0
   -2.4001   -5.7629   -0.2662 H   0  0  0  0  0  0  0  0  0  0  0  0
   -2.6328   -4.4515    0.9450 H   0  0  0  0  0  0  0  0  0  0  0  0
   -0.2531   -4.5691   -0.2024 H   0  0  0  0  0  0  0  0  0  0  0  0
   -1.1031   -4.3768   -1.7221 H   0  0  0  0  0  0  0  0  0  0  0  0
   -0.1106   -2.3129   -1.2849 H   0  0  0  0  0  0  0  0  0  0  0  0
   -1.8481   -2.2422   -1.4113 H   0  0  0  0  0  0  0  0  0  0  0  0
   -3.2914   -2.5248    1.9087 H   0  0  0  0  0  0  0  0  0  0  0  0
   -5.3126   -1.2747    2.2478 H   0  0  0  0  0  0  0  0  0  0  0  0
   -5.6118    0.9748    1.2347 H   0  0  0  0  0  0  0  0  0  0  0  0
   -4.5474    3.0987    1.5597 H   0  0  0  0  0  0  0  0  0  0  0  0
   -4.9406    5.3439    0.6481 H   0  0  0  0  0  0  0  0  0  0  0  0
   -3.6874    3.9455   -3.1895 H   0  0  0  0  0  0  0  0  0  0  0  0
   -3.2943    1.6987   -2.2894 H   0  0  0  0  0  0  0  0  0  0  0  0
   -0.4674    0.5109   -0.3074 H   0  0  0  0  0  0  0  0  0  0  0  0
   -1.4332    1.8936   -0.7970 H   0  0  0  0  0  0  0  0  0  0  0  0
   -1.4102    0.3236   -1.7811 H   0  0  0  0  0  0  0  0  0  0  0  0
    1.0060    1.0544    2.2466 H   0  0  0  0  0  0  0  0  0  0  0  0
    3.0104    2.2488    1.5635 H   0  0  0  0  0  0  0  0  0  0  0  0
    4.6653    3.1166    0.9510 H   0  0  0  0  0  0  0  0  0  0  0  0
    7.3012    3.4439    0.7881 H   0  0  0  0  0  0  0  0  0  0  0  0
    7.2960    1.6580    0.9282 H   0  0  0  0  0  0  0  0  0  0  0  0
    6.5070    2.6743    2.1774 H   0  0  0  0  0  0  0  0  0  0  0  0
    6.5891    4.9908   -1.6640 H   0  0  0  0  0  0  0  0  0  0  0  0
    5.5217   -0.6913   -0.8967 H   0  0  0  0  0  0  0  0  0  0  0  0
    4.2454   -1.5495   -1.8182 H   0  0  0  0  0  0  0  0  0  0  0  0
    5.0097   -2.2937   -0.3502 H   0  0  0  0  0  0  0  0  0  0  0  0
    1.5175   -3.2210    0.5383 H   0  0  0  0  0  0  0  0  0  0  0  0
    2.2008   -2.7832   -1.0616 H   0  0  0  0  0  0  0  0  0  0  0  0
    3.3223   -3.2901    0.2077 H   0  0  0  0  0  0  0  0  0  0  0  0
  1  2  1  0
  2  3  1  0
  3  4  1  0
  4  5  1  0
  5  6  1  0
  6  7  2  0
  7  8  1  0
  8  9  2  0
  9 10  1  0
 10 11  1  0
 11 12  2  0
 12 13  1  0
 13 14  2  0
 14 15  1  0
 14 16  1  0
 16 17  2  0
 10 18  2  0
 18 19  1  0
  5 20  1  0
 20 21  2  0
 20 22  2  0
 20 23  1  0
 23 24  2  0
 24 25  1  0
 25 26  2  0
 26 27  1  0
 27 28  1  0
 28 29  1  0
 28 30  1  0
 30 31  2  0
 30 32  1  0
 26 33  1  0
 33 34  1  0
 33 35  2  0
 35 36  1  0
 18  6  1  0
 35 23  1  0
 17 11  1  0
  1 37  1  0
  1 38  1  0
  1 39  1  0
  2 40  1  0
  2 41  1  0
  3 42  1  0
  3 43  1  0
  4 44  1  0
  4 45  1  0
  7 46  1  0
  8 47  1  0
  9 48  1  0
 12 49  1  0
 13 50  1  0
 16 51  1  0
 17 52  1  0
 19 53  1  0
 19 54  1  0
 19 55  1  0
 24 56  1  0
 25 57  1  0
 28 58  1  0
 29 59  1  0
 29 60  1  0
 29 61  1  0
 32 62  1  0
 34 63  1  0
 34 64  1  0
 34 65  1  0
 36 66  1  0
 36 67  1  0
 36 68  1  0
M  END
$$$$
