@<TRIPOS>MOLECULE
*****
 61 65 0 0 0
SMALL
GASTEIGER

@<TRIPOS>ATOM
      1 O          -2.1048    0.4374   -4.5964 O.2     1  UNL1       -0.2741
      2 C          -2.4563    0.0999   -3.4132 C.2     1  UNL1        0.2304
      3 C          -3.8707   -0.2518   -3.1979 C.3     1  UNL1        0.0858
      4 N          -4.1669   -0.5903   -1.8020 N.pl3   1  UNL1       -0.3348
      5 C          -4.0995    0.4363   -0.8412 C.ar    1  UNL1        0.0382
      6 C          -3.7927    1.7199   -1.2217 C.ar    1  UNL1       -0.0221
      7 C          -3.7243    2.7833   -0.3402 C.ar    1  UNL1        0.0300
      8 N          -3.9749    2.5134    0.9385 N.ar    1  UNL1       -0.2549
      9 C          -4.2825    1.2773    1.3830 C.ar    1  UNL1        0.0727
     10 C          -4.5282    1.0818    2.7247 C.ar    1  UNL1       -0.0352
     11 C          -4.8433   -0.1721    3.1971 C.ar    1  UNL1       -0.0481
     12 C          -4.9174   -1.2446    2.3414 C.ar    1  UNL1        0.0556
     13 C          -5.2562   -2.6103    2.8283 C.3     1  UNL1        0.4174
     14 F          -6.5751   -2.9202    2.5668 F       1  UNL1       -0.1659
     15 F          -4.9855   -2.6593    4.1756 F       1  UNL1       -0.1659
     16 F          -4.4311   -3.4986    2.1525 F       1  UNL1       -0.1659
     17 C          -4.6667   -1.0388    0.9802 C.ar    1  UNL1       -0.0392
     18 C          -4.3518    0.2031    0.4938 C.ar    1  UNL1        0.0217
     19 N          -1.4822    0.0798   -2.3844 N.am    1  UNL1       -0.3087
     20 C          -0.1368    0.4474   -2.7233 C.3     1  UNL1        0.0486
     21 C           0.5261    1.4216   -1.7474 C.3     1  UNL1        0.0189
     22 N           1.7485    0.7129   -1.9880 N.3     1  UNL1       -0.2958
     23 C           2.7147    0.6713   -0.9509 C.3     1  UNL1        0.0107
     24 C           2.2498    0.0374    0.3260 C.3     1  UNL1       -0.0344
     25 C           3.3131    0.2374    1.3862 C.3     1  UNL1       -0.0179
     26 C           4.7028    0.2117    0.8394 C.3     1  UNL1        0.0985
     27 O           5.2086    1.4794    0.5759 O.3     1  UNL1       -0.3834
     28 C           5.5928   -0.4201    1.8374 C.ar    1  UNL1        0.0405
     29 C           6.3139    0.0827    2.8548 C.ar    1  UNL1        0.0406
     30 N           7.0184   -0.7176    3.5830 N.ar    1  UNL1       -0.2553
     31 C           7.0849   -1.9780    3.4078 C.ar    1  UNL1        0.0650
     32 S           5.9417   -2.1215    1.9294 S.2     1  UNL1       -0.0775
     33 C           4.7500   -0.6578   -0.4096 C.3     1  UNL1       -0.0179
     34 C           3.9762    0.0378   -1.4824 C.3     1  UNL1       -0.0344
     35 C           0.9313   -0.4963   -2.1506 C.3     1  UNL1        0.0189
     36 H          -4.2033   -1.0829   -3.8773 H       1  UNL1        0.0557
     37 H          -4.5436    0.5998   -3.4520 H       1  UNL1        0.0557
     38 H          -4.4141   -1.5833   -1.5968 H       1  UNL1        0.1466
     39 H          -3.5899    1.9439   -2.2552 H       1  UNL1        0.0651
     40 H          -3.4826    3.7923   -0.6426 H       1  UNL1        0.0830
     41 H          -4.4627    1.9498    3.3816 H       1  UNL1        0.0639
     42 H          -5.0403   -0.3355    4.2640 H       1  UNL1        0.0624
     43 H          -4.7182   -1.8644    0.2889 H       1  UNL1        0.0630
     44 H          -1.6960   -0.1909   -1.4215 H       1  UNL1        0.1491
     45 H           0.0720    0.7249   -3.7556 H       1  UNL1        0.0523
     46 H           0.4583    2.4393   -2.1660 H       1  UNL1        0.0445
     47 H           0.0674    1.2991   -0.7467 H       1  UNL1        0.0445
     48 H           2.9797    1.7395   -0.6947 H       1  UNL1        0.0462
     49 H           1.3536    0.5924    0.6717 H       1  UNL1        0.0281
     50 H           1.9925   -1.0261    0.2211 H       1  UNL1        0.0281
     51 H           3.2084   -0.6135    2.1038 H       1  UNL1        0.0297
     52 H           3.1556    1.1578    1.9823 H       1  UNL1        0.0297
     53 H           5.3107    1.9570    1.4321 H       1  UNL1        0.2106
     54 H           6.2897    1.1883    3.0518 H       1  UNL1        0.0839
     55 H           7.5530   -2.8572    3.8200 H       1  UNL1        0.0907
     56 H           5.7970   -0.8185   -0.7404 H       1  UNL1        0.0297
     57 H           4.2401   -1.6078   -0.1491 H       1  UNL1        0.0297
     58 H           4.6188    0.8206   -1.9406 H       1  UNL1        0.0281
     59 H           3.7740   -0.6987   -2.2863 H       1  UNL1        0.0281
     60 H           0.5371   -0.9095   -1.2031 H       1  UNL1        0.0445
     61 H           1.3169   -1.2107   -2.8754 H       1  UNL1        0.0445
@<TRIPOS>BOND
     1     1     2    2
     2     2     3    1
     3     3     4    1
     4     4     5    1
     5     5     6   ar
     6     6     7   ar
     7     7     8   ar
     8     8     9   ar
     9     9    10   ar
    10    10    11   ar
    11    11    12   ar
    12    12    13    1
    13    13    14    1
    14    13    15    1
    15    13    16    1
    16    12    17   ar
    17    17    18   ar
    18     2    19   am
    19    19    20    1
    20    20    21    1
    21    21    22    1
    22    22    23    1
    23    23    24    1
    24    24    25    1
    25    25    26    1
    26    26    27    1
    27    26    28    1
    28    28    29   ar
    29    29    30   ar
    30    30    31   ar
    31    31    32   ar
    32    26    33    1
    33    33    34    1
    34    22    35    1
    35    18     5   ar
    36    35    20    1
    37    18     9   ar
    38    34    23    1
    39    32    28   ar
    40     3    36    1
    41     3    37    1
    42     4    38    1
    43     6    39    1
    44     7    40    1
    45    10    41    1
    46    11    42    1
    47    17    43    1
    48    19    44    1
    49    20    45    1
    50    21    46    1
    51    21    47    1
    52    23    48    1
    53    24    49    1
    54    24    50    1
    55    25    51    1
    56    25    52    1
    57    27    53    1
    58    29    54    1
    59    31    55    1
    60    33    56    1
    61    33    57    1
    62    34    58    1
    63    34    59    1
    64    35    60    1
    65    35    61    1
