
     RDKit          3D

 61 65  0  0  0  0  0  0  0  0999 V2000
   -2.1048    0.4374   -4.5964 O   0  0  0  0  0  0  0  0  0  0  0  0
   -2.4563    0.0999   -3.4132 C   0  0  0  0  0  0  0  0  0  0  0  0
   -3.8707   -0.2518   -3.1979 C   0  0  0  0  0  0  0  0  0  0  0  0
   -4.1669   -0.5903   -1.8020 N   0  0  0  0  0  0  0  0  0  0  0  0
   -4.0995    0.4363   -0.8412 C   0  0  0  0  0  0  0  0  0  0  0  0
   -3.7927    1.7199   -1.2217 C   0  0  0  0  0  0  0  0  0  0  0  0
   -3.7243    2.7833   -0.3402 C   0  0  0  0  0  0  0  0  0  0  0  0
   -3.9749    2.5134    0.9385 N   0  0  0  0  0  0  0  0  0  0  0  0
   -4.2825    1.2773    1.3830 C   0  0  0  0  0  0  0  0  0  0  0  0
   -4.5282    1.0818    2.7247 C   0  0  0  0  0  0  0  0  0  0  0  0
   -4.8433   -0.1721    3.1971 C   0  0  0  0  0  0  0  0  0  0  0  0
   -4.9174   -1.2446    2.3414 C   0  0  0  0  0  0  0  0  0  0  0  0
   -5.2562   -2.6103    2.8283 C   0  0  0  0  0  0  0  0  0  0  0  0
   -6.5751   -2.9202    2.5668 F   0  0  0  0  0  0  0  0  0  0  0  0
   -4.9855   -2.6593    4.1756 F   0  0  0  0  0  0  0  0  0  0  0  0
   -4.4311   -3.4986    2.1525 F   0  0  0  0  0  0  0  0  0  0  0  0
   -4.6667   -1.0388    0.9802 C   0  0  0  0  0  0  0  0  0  0  0  0
   -4.3518    0.2031    0.4938 C   0  0  0  0  0  0  0  0  0  0  0  0
   -1.4822    0.0798   -2.3844 N   0  0  0  0  0  0  0  0  0  0  0  0
   -0.1368    0.4474   -2.7233 C   0  0  0  0  0  0  0  0  0  0  0  0
    0.5261    1.4216   -1.7474 C   0  0  0  0  0  0  0  0  0  0  0  0
    1.7485    0.7129   -1.9880 N   0  0  0  0  0  0  0  0  0  0  0  0
    2.7147    0.6713   -0.9509 C   0  0  1  0  0  0  0  0  0  0  0  0
    2.2498    0.0374    0.3260 C   0  0  0  0  0  0  0  0  0  0  0  0
    3.3131    0.2374    1.3862 C   0  0  0  0  0  0  0  0  0  0  0  0
    4.7028    0.2117    0.8394 C   0  0  1  0  0  0  0  0  0  0  0  0
    5.2086    1.4794    0.5759 O   0  0  0  0  0  0  0  0  0  0  0  0
    5.5928   -0.4201    1.8374 C   0  0  0  0  0  0  0  0  0  0  0  0
    6.3139    0.0827    2.8548 C   0  0  0  0  0  0  0  0  0  0  0  0
    7.0184   -0.7176    3.5830 N   0  0  0  0  0  0  0  0  0  0  0  0
    7.0849   -1.9780    3.4078 C   0  0  0  0  0  0  0  0  0  0  0  0
    5.9417   -2.1215    1.9294 S   0  0  0  0  0  0  0  0  0  0  0  0
    4.7500   -0.6578   -0.4096 C   0  0  0  0  0  0  0  0  0  0  0  0
    3.9762    0.0378   -1.4824 C   0  0  0  0  0  0  0  0  0  0  0  0
    0.9313   -0.4963   -2.1506 C   0  0  0  0  0  0  0  0  0  0  0  0
   -4.2033   -1.0829   -3.8773 H   0  0  0  0  0  0  0  0  0  0  0  0
   -4.5436    0.5998   -3.4520 H   0  0  0  0  0  0  0  0  0  0  0  0
   -4.4141   -1.5833   -1.5968 H   0  0  0  0  0  0  0  0  0  0  0  0
   -3.5899    1.9439   -2.2552 H   0  0  0  0  0  0  0  0  0  0  0  0
   -3.4826    3.7923   -0.6426 H   0  0  0  0  0  0  0  0  0  0  0  0
   -4.4627    1.9498    3.3816 H   0  0  0  0  0  0  0  0  0  0  0  0
   -5.0403   -0.3355    4.2640 H   0  0  0  0  0  0  0  0  0  0  0  0
   -4.7182   -1.8644    0.2889 H   0  0  0  0  0  0  0  0  0  0  0  0
   -1.6960   -0.1909   -1.4215 H   0  0  0  0  0  0  0  0  0  0  0  0
    0.0720    0.7249   -3.7556 H   0  0  0  0  0  0  0  0  0  0  0  0
    0.4583    2.4393   -2.1660 H   0  0  0  0  0  0  0  0  0  0  0  0
    0.0674    1.2991   -0.7467 H   0  0  0  0  0  0  0  0  0  0  0  0
    2.9797    1.7395   -0.6947 H   0  0  0  0  0  0  0  0  0  0  0  0
    1.3536    0.5924    0.6717 H   0  0  0  0  0  0  0  0  0  0  0  0
    1.9925   -1.0261    0.2211 H   0  0  0  0  0  0  0  0  0  0  0  0
    3.2084   -0.6135    2.1038 H   0  0  0  0  0  0  0  0  0  0  0  0
    3.1556    1.1578    1.9823 H   0  0  0  0  0  0  0  0  0  0  0  0
    5.3107    1.9570    1.4321 H   0  0  0  0  0  0  0  0  0  0  0  0
    6.2897    1.1883    3.0518 H   0  0  0  0  0  0  0  0  0  0  0  0
    7.5530   -2.8572    3.8200 H   0  0  0  0  0  0  0  0  0  0  0  0
    5.7970   -0.8185   -0.7404 H   0  0  0  0  0  0  0  0  0  0  0  0
    4.2401   -1.6078   -0.1491 H   0  0  0  0  0  0  0  0  0  0  0  0
    4.6188    0.8206   -1.9406 H   0  0  0  0  0  0  0  0  0  0  0  0
    3.7740   -0.6987   -2.2863 H   0  0  0  0  0  0  0  0  0  0  0  0
    0.5371   -0.9095   -1.2031 H   0  0  0  0  0  0  0  0  0  0  0  0
    1.3169   -1.2107   -2.8754 H   0  0  0  0  0  0  0  0  0  0  0  0
  1  2  2  0
  2  3  1  0
  3  4  1  0
  4  5  1  0
  5  6  2  0
  6  7  1  0
  7  8  2  0
  8  9  1  0
  9 10  2  0
 10 11  1  0
 11 12  2  0
 12 13  1  0
 13 14  1  0
 13 15  1  0
 13 16  1  0
 12 17  1  0
 17 18  2  0
  2 19  1  0
 19 20  1  0
 20 21  1  0
 21 22  1  0
 22 23  1  0
 23 24  1  0
 24 25  1  0
 25 26  1  0
 26 27  1  6
 26 28  1  0
 28 29  2  0
 29 30  1  0
 30 31  2  0
 31 32  1  0
 26 33  1  0
 33 34  1  0
 22 35  1  0
 18  5  1  0
 35 20  1  0
 18  9  1  0
 34 23  1  0
 32 28  1  0
  3 36  1  0
  3 37  1  0
  4 38  1  0
  6 39  1  0
  7 40  1  0
 10 41  1  0
 11 42  1  0
 17 43  1  0
 19 44  1  0
 20 45  1  0
 21 46  1  0
 21 47  1  0
 23 48  1  1
 24 49  1  0
 24 50  1  0
 25 51  1  0
 25 52  1  0
 27 53  1  0
 29 54  1  0
 31 55  1  0
 33 56  1  0
 33 57  1  0
 34 58  1  0
 34 59  1  0
 35 60  1  0
 35 61  1  0
M  END
$$$$
