@<TRIPOS>MOLECULE
*****
 44 47 0 0 0
SMALL
GASTEIGER

@<TRIPOS>ATOM
      1 O           3.2161    1.2096   -0.5705 O.2     1  UNL1       -0.2443
      2 C           2.8689    0.2293   -1.2222 C.2     1  UNL1        0.3477
      3 O           3.7965   -0.6444   -1.6955 O.3     1  UNL1       -0.4560
      4 C           5.1853   -0.5926   -1.5417 C.3     1  UNL1        0.1179
      5 C           5.6750   -0.6240   -0.1592 C.ar    1  UNL1       -0.0103
      6 C           5.8781   -1.8047    0.5204 C.ar    1  UNL1       -0.0554
      7 C           6.3505   -1.8519    1.8115 C.ar    1  UNL1       -0.0614
      8 C           6.6186   -0.6466    2.4122 C.ar    1  UNL1       -0.0617
      9 C           6.4336    0.5427    1.7802 C.ar    1  UNL1       -0.0614
     10 C           5.9593    0.5516    0.4874 C.ar    1  UNL1       -0.0554
     11 C           1.4318    0.0496   -1.4610 C.ar    1  UNL1        0.1146
     12 C           0.3544    0.8102   -1.0722 C.ar    1  UNL1        0.0358
     13 N          -0.8399    0.4069   -1.4317 N.ar    1  UNL1       -0.2618
     14 C          -2.0317    1.0472   -1.1288 C.ar    1  UNL1        0.3371
     15 O          -2.0387    2.1171   -0.4542 O.2     1  UNL1       -0.2458
     16 N          -3.2001    0.5712   -1.5311 N.ar    1  UNL1       -0.2561
     17 C          -4.4203    1.3010   -1.1634 C.3     1  UNL1        0.0560
     18 C          -5.0067    0.8527    0.0985 C.ar    1  UNL1       -0.0275
     19 C          -6.0121   -0.1097    0.0899 C.ar    1  UNL1       -0.0569
     20 C          -6.5918   -0.5634    1.2369 C.ar    1  UNL1       -0.0614
     21 C          -6.1983   -0.0797    2.4509 C.ar    1  UNL1       -0.0617
     22 C          -5.2212    0.8616    2.5160 C.ar    1  UNL1       -0.0614
     23 C          -4.6423    1.3129    1.3507 C.ar    1  UNL1       -0.0569
     24 C          -3.3727   -0.5453   -2.2552 C.ar    1  UNL1        0.2579
     25 O          -4.4625   -1.0160   -2.6507 O.2     1  UNL1       -0.2675
     26 C          -2.2066   -1.2074   -2.5741 C.ar    1  UNL1        0.0339
     27 C          -0.9859   -0.6867   -2.1378 C.ar    1  UNL1        0.0945
     28 S           0.6542   -1.2526   -2.3542 S.2     1  UNL1       -0.0625
     29 H           5.5749   -1.5382   -2.0266 H       1  UNL1        0.0749
     30 H           5.6499    0.2155   -2.1477 H       1  UNL1        0.0749
     31 H           5.6666   -2.7764    0.0487 H       1  UNL1        0.0621
     32 H           6.4910   -2.8012    2.2958 H       1  UNL1        0.0618
     33 H           6.9917   -0.6370    3.4275 H       1  UNL1        0.0618
     34 H           6.6446    1.5122    2.2510 H       1  UNL1        0.0618
     35 H           5.8303    1.5343    0.0027 H       1  UNL1        0.0621
     36 H           0.5826    1.7295   -0.4695 H       1  UNL1        0.0828
     37 H          -5.1357    1.1807   -1.9746 H       1  UNL1        0.0544
     38 H          -4.1355    2.3886   -1.0424 H       1  UNL1        0.0544
     39 H          -6.3551   -0.5049   -0.8659 H       1  UNL1        0.0621
     40 H          -7.3892   -1.3282    1.2193 H       1  UNL1        0.0618
     41 H          -6.6427   -0.4236    3.3775 H       1  UNL1        0.0618
     42 H          -4.9001    1.2551    3.4887 H       1  UNL1        0.0618
     43 H          -3.8848    2.0589    1.4434 H       1  UNL1        0.0621
     44 H          -2.1800   -2.1042   -3.1409 H       1  UNL1        0.0698
@<TRIPOS>BOND
     1     1     2    2
     2     2     3    1
     3     3     4    1
     4     4     5    1
     5     5     6   ar
     6     6     7   ar
     7     7     8   ar
     8     8     9   ar
     9     9    10   ar
    10     2    11    1
    11    11    12   ar
    12    12    13   ar
    13    13    14   ar
    14    14    15    2
    15    14    16   ar
    16    16    17    1
    17    17    18    1
    18    18    19   ar
    19    19    20   ar
    20    20    21   ar
    21    21    22   ar
    22    22    23   ar
    23    16    24   ar
    24    24    25    2
    25    24    26   ar
    26    26    27   ar
    27    27    28   ar
    28    10     5   ar
    29    28    11   ar
    30    27    13   ar
    31    23    18   ar
    32     4    29    1
    33     4    30    1
    34     6    31    1
    35     7    32    1
    36     8    33    1
    37     9    34    1
    38    10    35    1
    39    12    36    1
    40    17    37    1
    41    17    38    1
    42    19    39    1
    43    20    40    1
    44    21    41    1
    45    22    42    1
    46    23    43    1
    47    26    44    1
