
     RDKit          3D

 44 47  0  0  0  0  0  0  0  0999 V2000
    3.2161    1.2096   -0.5705 O   0  0  0  0  0  0  0  0  0  0  0  0
    2.8689    0.2293   -1.2222 C   0  0  0  0  0  0  0  0  0  0  0  0
    3.7965   -0.6444   -1.6955 O   0  0  0  0  0  0  0  0  0  0  0  0
    5.1853   -0.5926   -1.5417 C   0  0  0  0  0  0  0  0  0  0  0  0
    5.6750   -0.6240   -0.1592 C   0  0  0  0  0  0  0  0  0  0  0  0
    5.8781   -1.8047    0.5204 C   0  0  0  0  0  0  0  0  0  0  0  0
    6.3505   -1.8519    1.8115 C   0  0  0  0  0  0  0  0  0  0  0  0
    6.6186   -0.6466    2.4122 C   0  0  0  0  0  0  0  0  0  0  0  0
    6.4336    0.5427    1.7802 C   0  0  0  0  0  0  0  0  0  0  0  0
    5.9593    0.5516    0.4874 C   0  0  0  0  0  0  0  0  0  0  0  0
    1.4318    0.0496   -1.4610 C   0  0  0  0  0  0  0  0  0  0  0  0
    0.3544    0.8102   -1.0722 C   0  0  0  0  0  0  0  0  0  0  0  0
   -0.8399    0.4069   -1.4317 N   0  0  0  0  0  0  0  0  0  0  0  0
   -2.0317    1.0472   -1.1288 C   0  0  0  0  0  0  0  0  0  0  0  0
   -2.0387    2.1171   -0.4542 O   0  0  0  0  0  0  0  0  0  0  0  0
   -3.2001    0.5712   -1.5311 N   0  0  0  0  0  0  0  0  0  0  0  0
   -4.4203    1.3010   -1.1634 C   0  0  0  0  0  0  0  0  0  0  0  0
   -5.0067    0.8527    0.0985 C   0  0  0  0  0  0  0  0  0  0  0  0
   -6.0121   -0.1097    0.0899 C   0  0  0  0  0  0  0  0  0  0  0  0
   -6.5918   -0.5634    1.2369 C   0  0  0  0  0  0  0  0  0  0  0  0
   -6.1983   -0.0797    2.4509 C   0  0  0  0  0  0  0  0  0  0  0  0
   -5.2212    0.8616    2.5160 C   0  0  0  0  0  0  0  0  0  0  0  0
   -4.6423    1.3129    1.3507 C   0  0  0  0  0  0  0  0  0  0  0  0
   -3.3727   -0.5453   -2.2552 C   0  0  0  0  0  0  0  0  0  0  0  0
   -4.4625   -1.0160   -2.6507 O   0  0  0  0  0  0  0  0  0  0  0  0
   -2.2066   -1.2074   -2.5741 C   0  0  0  0  0  0  0  0  0  0  0  0
   -0.9859   -0.6867   -2.1378 C   0  0  0  0  0  0  0  0  0  0  0  0
    0.6542   -1.2526   -2.3542 S   0  0  0  0  0  0  0  0  0  0  0  0
    5.5749   -1.5382   -2.0266 H   0  0  0  0  0  0  0  0  0  0  0  0
    5.6499    0.2155   -2.1477 H   0  0  0  0  0  0  0  0  0  0  0  0
    5.6666   -2.7764    0.0487 H   0  0  0  0  0  0  0  0  0  0  0  0
    6.4910   -2.8012    2.2958 H   0  0  0  0  0  0  0  0  0  0  0  0
    6.9917   -0.6370    3.4275 H   0  0  0  0  0  0  0  0  0  0  0  0
    6.6446    1.5122    2.2510 H   0  0  0  0  0  0  0  0  0  0  0  0
    5.8303    1.5343    0.0027 H   0  0  0  0  0  0  0  0  0  0  0  0
    0.5826    1.7295   -0.4695 H   0  0  0  0  0  0  0  0  0  0  0  0
   -5.1357    1.1807   -1.9746 H   0  0  0  0  0  0  0  0  0  0  0  0
   -4.1355    2.3886   -1.0424 H   0  0  0  0  0  0  0  0  0  0  0  0
   -6.3551   -0.5049   -0.8659 H   0  0  0  0  0  0  0  0  0  0  0  0
   -7.3892   -1.3282    1.2193 H   0  0  0  0  0  0  0  0  0  0  0  0
   -6.6427   -0.4236    3.3775 H   0  0  0  0  0  0  0  0  0  0  0  0
   -4.9001    1.2551    3.4887 H   0  0  0  0  0  0  0  0  0  0  0  0
   -3.8848    2.0589    1.4434 H   0  0  0  0  0  0  0  0  0  0  0  0
   -2.1800   -2.1042   -3.1409 H   0  0  0  0  0  0  0  0  0  0  0  0
  1  2  2  0
  2  3  1  0
  3  4  1  0
  4  5  1  0
  5  6  2  0
  6  7  1  0
  7  8  2  0
  8  9  1  0
  9 10  2  0
  2 11  1  0
 11 12  2  0
 12 13  1  0
 13 14  1  0
 14 15  2  0
 14 16  1  0
 16 17  1  0
 17 18  1  0
 18 19  2  0
 19 20  1  0
 20 21  2  0
 21 22  1  0
 22 23  2  0
 16 24  1  0
 24 25  2  0
 24 26  1  0
 26 27  2  0
 27 28  1  0
 10  5  1  0
 28 11  1  0
 27 13  1  0
 23 18  1  0
  4 29  1  0
  4 30  1  0
  6 31  1  0
  7 32  1  0
  8 33  1  0
  9 34  1  0
 10 35  1  0
 12 36  1  0
 17 37  1  0
 17 38  1  0
 19 39  1  0
 20 40  1  0
 21 41  1  0
 22 42  1  0
 23 43  1  0
 26 44  1  0
M  END
$$$$
