@<TRIPOS>MOLECULE
*****
 50 51 0 0 0
SMALL
GASTEIGER

@<TRIPOS>ATOM
      1 O           9.5150   -0.4209   -1.3369 O.3     1  UNL1       -0.3199
      2 P           7.8460   -0.1469   -1.5944 P.3     1  UNL1        0.4007
      3 O           7.7278    1.3950   -2.2596 O.3     1  UNL1       -0.3199
      4 O           7.2812   -1.2162   -2.5035 O.2     1  UNL1       -0.2522
      5 C           7.0689   -0.1699    0.0211 C.3     1  UNL1        0.3711
      6 F           7.5873    0.9021    0.7461 F       1  UNL1       -0.1866
      7 F           7.4222   -1.2972    0.7576 F       1  UNL1       -0.1866
      8 C           5.5872   -0.1251   -0.0318 C.ar    1  UNL1        0.0328
      9 C           4.7829   -0.7878    0.8713 C.ar    1  UNL1       -0.0521
     10 C           3.4038   -0.7488    0.8257 C.ar    1  UNL1       -0.0581
     11 C           2.7915   -0.0130   -0.1690 C.ar    1  UNL1       -0.0473
     12 C           1.2894    0.0975   -0.3111 C.3     1  UNL1       -0.0277
     13 C           0.7591    1.2522    0.4609 C.3     1  UNL1       -0.0488
     14 C          -0.7284    1.4004    0.3320 C.3     1  UNL1       -0.0488
     15 C          -1.4369    0.1886    0.8368 C.3     1  UNL1       -0.0277
     16 C          -2.9226    0.3190    0.7320 C.ar    1  UNL1       -0.0473
     17 C          -3.5714   -0.1060   -0.4298 C.ar    1  UNL1       -0.0581
     18 C          -4.9443    0.0460   -0.4534 C.ar    1  UNL1       -0.0521
     19 C          -5.7112    0.5761    0.5643 C.ar    1  UNL1        0.0328
     20 C          -5.0265    0.9906    1.7114 C.ar    1  UNL1       -0.0521
     21 C          -3.6528    0.8555    1.7746 C.ar    1  UNL1       -0.0581
     22 C          -7.1882    0.7021    0.4519 C.3     1  UNL1        0.3711
     23 F          -7.4985    1.6462   -0.5350 F       1  UNL1       -0.1866
     24 F          -7.6571    1.2254    1.6343 F       1  UNL1       -0.1866
     25 P          -7.9676   -0.8655    0.0149 P.3     1  UNL1        0.4007
     26 O          -7.3757   -2.0581    1.0311 O.3     1  UNL1       -0.3199
     27 O          -7.5744   -1.2348   -1.5831 O.3     1  UNL1       -0.3199
     28 O          -9.4777   -0.6733    0.1783 O.2     1  UNL1       -0.2522
     29 C           3.5533    0.6786   -1.1109 C.ar    1  UNL1       -0.0581
     30 C           4.9259    0.5955   -1.0054 C.ar    1  UNL1       -0.0521
     31 H           9.6764   -1.1243   -0.6795 H       1  UNL1        0.2199
     32 H           7.5124    1.3489   -3.2436 H       1  UNL1        0.2199
     33 H           5.2530   -1.3708    1.6595 H       1  UNL1        0.0622
     34 H           2.7748   -1.2716    1.5381 H       1  UNL1        0.0620
     35 H           1.0554    0.2395   -1.3791 H       1  UNL1        0.0313
     36 H           0.8741   -0.8743   -0.0134 H       1  UNL1        0.0313
     37 H           1.2850    2.1984    0.1453 H       1  UNL1        0.0268
     38 H           0.9563    1.1366    1.5638 H       1  UNL1        0.0268
     39 H          -1.0798    2.3432    0.7996 H       1  UNL1        0.0268
     40 H          -0.9201    1.5494   -0.7717 H       1  UNL1        0.0268
     41 H          -1.0911   -0.6904    0.2214 H       1  UNL1        0.0313
     42 H          -1.2018    0.0054    1.8941 H       1  UNL1        0.0313
     43 H          -3.0401   -0.5319   -1.2706 H       1  UNL1        0.0620
     44 H          -5.4558   -0.2756   -1.3381 H       1  UNL1        0.0622
     45 H          -5.6126    1.4026    2.5053 H       1  UNL1        0.0622
     46 H          -3.1219    1.1712    2.6510 H       1  UNL1        0.0620
     47 H          -7.2366   -1.7434    1.9687 H       1  UNL1        0.2199
     48 H          -7.9432   -0.5959   -2.2266 H       1  UNL1        0.2199
     49 H           3.0504    1.2492   -1.8820 H       1  UNL1        0.0620
     50 H           5.4566    1.1514   -1.7622 H       1  UNL1        0.0622
@<TRIPOS>BOND
     1     1     2    1
     2     2     3    1
     3     2     4    2
     4     2     5    1
     5     5     6    1
     6     5     7    1
     7     5     8    1
     8     8     9   ar
     9     9    10   ar
    10    10    11   ar
    11    11    12    1
    12    12    13    1
    13    13    14    1
    14    14    15    1
    15    15    16    1
    16    16    17   ar
    17    17    18   ar
    18    18    19   ar
    19    19    20   ar
    20    20    21   ar
    21    19    22    1
    22    22    23    1
    23    22    24    1
    24    22    25    1
    25    25    26    1
    26    25    27    1
    27    25    28    2
    28    11    29   ar
    29    29    30   ar
    30    30     8   ar
    31    21    16   ar
    32     1    31    1
    33     3    32    1
    34     9    33    1
    35    10    34    1
    36    12    35    1
    37    12    36    1
    38    13    37    1
    39    13    38    1
    40    14    39    1
    41    14    40    1
    42    15    41    1
    43    15    42    1
    44    17    43    1
    45    18    44    1
    46    20    45    1
    47    21    46    1
    48    26    47    1
    49    27    48    1
    50    29    49    1
    51    30    50    1
