
     RDKit          3D

 61 65  0  0  0  0  0  0  0  0999 V2000
    6.8588   -3.3369    0.1174 C   0  0  0  0  0  0  0  0  0  0  0  0
    6.1922   -3.1261   -1.1017 O   0  0  0  0  0  0  0  0  0  0  0  0
    5.4980   -1.9660   -1.3966 C   0  0  0  0  0  0  0  0  0  0  0  0
    4.8523   -1.7727   -2.5860 C   0  0  0  0  0  0  0  0  0  0  0  0
    4.1615   -0.5835   -2.8431 C   0  0  0  0  0  0  0  0  0  0  0  0
    4.1184    0.4219   -1.8964 C   0  0  0  0  0  0  0  0  0  0  0  0
    3.4035    1.6842   -2.1223 C   0  0  0  0  0  0  0  0  0  0  0  0
    2.0329    1.6320   -1.6507 N   0  0  0  0  0  0  0  0  0  0  0  0
    0.9088    1.2566   -2.2824 C   0  0  0  0  0  0  0  0  0  0  0  0
   -0.1488    1.3867   -1.3841 C   0  0  0  0  0  0  0  0  0  0  0  0
    0.3490    1.8461   -0.2000 C   0  0  0  0  0  0  0  0  0  0  0  0
   -0.2427    2.1475    1.0049 C   0  0  0  0  0  0  0  0  0  0  0  0
   -1.6232    2.0131    1.2351 N   0  0  0  0  0  0  0  0  0  0  0  0
   -2.4126    0.8614    1.1419 C   0  0  0  0  0  0  0  0  0  0  0  0
   -3.4569    0.8600    0.2075 C   0  0  0  0  0  0  0  0  0  0  0  0
   -4.3108   -0.2003    0.0220 C   0  0  0  0  0  0  0  0  0  0  0  0
   -5.3932   -0.1845   -0.9523 C   0  0  0  0  0  0  0  0  0  0  0  0
   -5.5729   -1.2596   -1.7327 N   0  0  0  0  0  0  0  0  0  0  0  0
   -6.5414   -1.3457   -2.6587 C   0  0  0  0  0  0  0  0  0  0  0  0
   -7.4169   -0.3046   -2.8527 C   0  0  0  0  0  0  0  0  0  0  0  0
   -7.2778    0.8233   -2.0783 C   0  0  0  0  0  0  0  0  0  0  0  0
   -6.2665    0.8618   -1.1412 C   0  0  0  0  0  0  0  0  0  0  0  0
   -6.1283    1.9698   -0.3800 F   0  0  0  0  0  0  0  0  0  0  0  0
   -4.0947   -1.2903    0.8107 N   0  0  0  0  0  0  0  0  0  0  0  0
   -3.1049   -1.3189    1.7129 C   0  0  0  0  0  0  0  0  0  0  0  0
   -2.2241   -0.2546    1.9205 C   0  0  0  0  0  0  0  0  0  0  0  0
   -1.1664   -0.3800    2.9479 C   0  0  0  0  0  0  0  0  0  0  0  0
    0.0594   -1.0194    2.3290 C   0  0  0  0  0  0  0  0  0  0  0  0
   -1.6193   -1.3944    4.0222 C   0  0  0  0  0  0  0  0  0  0  0  0
    0.5518    2.6024    2.0322 C   0  0  0  0  0  0  0  0  0  0  0  0
    1.9051    2.7492    1.8506 C   0  0  0  0  0  0  0  0  0  0  0  0
    2.4289    2.4403    0.6552 N   0  0  0  0  0  0  0  0  0  0  0  0
    1.7003    1.9934   -0.3794 C   0  0  0  0  0  0  0  0  0  0  0  0
    4.7780    0.2005   -0.7064 C   0  0  0  0  0  0  0  0  0  0  0  0
    5.4672   -0.9649   -0.4279 C   0  0  0  0  0  0  0  0  0  0  0  0
    7.4556   -2.4641    0.4218 H   0  0  0  0  0  0  0  0  0  0  0  0
    7.5796   -4.1892    0.0013 H   0  0  0  0  0  0  0  0  0  0  0  0
    6.1252   -3.5864    0.9177 H   0  0  0  0  0  0  0  0  0  0  0  0
    4.8729   -2.5532   -3.3485 H   0  0  0  0  0  0  0  0  0  0  0  0
    3.6531   -0.4213   -3.7686 H   0  0  0  0  0  0  0  0  0  0  0  0
    3.3853    1.9037   -3.2090 H   0  0  0  0  0  0  0  0  0  0  0  0
    3.9757    2.4994   -1.6212 H   0  0  0  0  0  0  0  0  0  0  0  0
    0.8837    0.9216   -3.3048 H   0  0  0  0  0  0  0  0  0  0  0  0
   -1.1766    1.1673   -1.5790 H   0  0  0  0  0  0  0  0  0  0  0  0
   -2.0982    2.9288    1.5147 H   0  0  0  0  0  0  0  0  0  0  0  0
   -3.6273    1.7455   -0.4281 H   0  0  0  0  0  0  0  0  0  0  0  0
   -6.6475   -2.2504   -3.2755 H   0  0  0  0  0  0  0  0  0  0  0  0
   -8.2119   -0.3195   -3.5798 H   0  0  0  0  0  0  0  0  0  0  0  0
   -7.9680    1.6489   -2.2282 H   0  0  0  0  0  0  0  0  0  0  0  0
   -2.9316   -2.2017    2.3513 H   0  0  0  0  0  0  0  0  0  0  0  0
   -0.8553    0.5528    3.4088 H   0  0  0  0  0  0  0  0  0  0  0  0
    0.9209   -0.7688    3.0159 H   0  0  0  0  0  0  0  0  0  0  0  0
    0.0018   -2.1361    2.3930 H   0  0  0  0  0  0  0  0  0  0  0  0
    0.2553   -0.6613    1.3212 H   0  0  0  0  0  0  0  0  0  0  0  0
   -1.3462   -2.4088    3.7360 H   0  0  0  0  0  0  0  0  0  0  0  0
   -2.7302   -1.2592    4.1735 H   0  0  0  0  0  0  0  0  0  0  0  0
   -1.1608   -1.0522    4.9684 H   0  0  0  0  0  0  0  0  0  0  0  0
    0.1454    2.8563    3.0057 H   0  0  0  0  0  0  0  0  0  0  0  0
    2.5091    3.1108    2.6803 H   0  0  0  0  0  0  0  0  0  0  0  0
    4.7630    0.9603    0.0466 H   0  0  0  0  0  0  0  0  0  0  0  0
    5.9623   -1.0707    0.5267 H   0  0  0  0  0  0  0  0  0  0  0  0
  1  2  1  0
  2  3  1  0
  3  4  2  0
  4  5  1  0
  5  6  2  0
  6  7  1  0
  7  8  1  0
  8  9  1  0
  9 10  2  0
 10 11  1  0
 11 12  2  0
 12 13  1  0
 13 14  1  0
 14 15  2  0
 15 16  1  0
 16 17  1  0
 17 18  2  0
 18 19  1  0
 19 20  2  0
 20 21  1  0
 21 22  2  0
 22 23  1  0
 16 24  2  0
 24 25  1  0
 25 26  2  0
 26 27  1  0
 27 28  1  0
 27 29  1  0
 12 30  1  0
 30 31  2  0
 31 32  1  0
 32 33  2  0
  6 34  1  0
 34 35  2  0
 35  3  1  0
 33  8  1  0
 33 11  1  0
 26 14  1  0
 22 17  1  0
  1 36  1  0
  1 37  1  0
  1 38  1  0
  4 39  1  0
  5 40  1  0
  7 41  1  0
  7 42  1  0
  9 43  1  0
 10 44  1  0
 13 45  1  0
 15 46  1  0
 19 47  1  0
 20 48  1  0
 21 49  1  0
 25 50  1  0
 27 51  1  0
 28 52  1  0
 28 53  1  0
 28 54  1  0
 29 55  1  0
 29 56  1  0
 29 57  1  0
 30 58  1  0
 31 59  1  0
 34 60  1  0
 35 61  1  0
M  END
$$$$
