@<TRIPOS>MOLECULE
*****
 61 65 0 0 0
SMALL
GASTEIGER

@<TRIPOS>ATOM
      1 C           6.8588   -3.3369    0.1174 C.3     1  UNL1        0.0788
      2 O           6.1922   -3.1261   -1.1017 O.3     1  UNL1       -0.4951
      3 C           5.4980   -1.9660   -1.3966 C.ar    1  UNL1        0.1201
      4 C           4.8523   -1.7727   -2.5860 C.ar    1  UNL1       -0.0196
      5 C           4.1615   -0.5835   -2.8431 C.ar    1  UNL1       -0.0534
      6 C           4.1184    0.4219   -1.8964 C.ar    1  UNL1       -0.0275
      7 C           3.4035    1.6842   -2.1223 C.3     1  UNL1        0.0497
      8 N           2.0329    1.6320   -1.6507 N.ar    1  UNL1       -0.3275
      9 C           0.9088    1.2566   -2.2824 C.ar    1  UNL1        0.0075
     10 C          -0.1488    1.3867   -1.3841 C.ar    1  UNL1       -0.0331
     11 C           0.3490    1.8461   -0.2000 C.ar    1  UNL1        0.0400
     12 C          -0.2427    2.1475    1.0049 C.ar    1  UNL1        0.0436
     13 N          -1.6232    2.0131    1.2351 N.pl3   1  UNL1       -0.3136
     14 C          -2.4126    0.8614    1.1419 C.ar    1  UNL1        0.0383
     15 C          -3.4569    0.8600    0.2075 C.ar    1  UNL1       -0.0126
     16 C          -4.3108   -0.2003    0.0220 C.ar    1  UNL1        0.0937
     17 C          -5.3932   -0.1845   -0.9523 C.ar    1  UNL1        0.1242
     18 N          -5.5729   -1.2596   -1.7327 N.ar    1  UNL1       -0.2505
     19 C          -6.5414   -1.3457   -2.6587 C.ar    1  UNL1        0.0285
     20 C          -7.4169   -0.3046   -2.8527 C.ar    1  UNL1       -0.0408
     21 C          -7.2778    0.8233   -2.0783 C.ar    1  UNL1       -0.0228
     22 C          -6.2665    0.8618   -1.1412 C.ar    1  UNL1        0.1507
     23 F          -6.1283    1.9698   -0.3800 F       1  UNL1       -0.2032
     24 N          -4.0947   -1.2903    0.8107 N.ar    1  UNL1       -0.2529
     25 C          -3.1049   -1.3189    1.7129 C.ar    1  UNL1        0.0335
     26 C          -2.2241   -0.2546    1.9205 C.ar    1  UNL1       -0.0056
     27 C          -1.1664   -0.3800    2.9479 C.3     1  UNL1       -0.0183
     28 C           0.0594   -1.0194    2.3290 C.3     1  UNL1       -0.0585
     29 C          -1.6193   -1.3944    4.0222 C.3     1  UNL1       -0.0585
     30 C           0.5518    2.6024    2.0322 C.ar    1  UNL1       -0.0217
     31 C           1.9051    2.7492    1.8506 C.ar    1  UNL1        0.0317
     32 N           2.4289    2.4403    0.6552 N.ar    1  UNL1       -0.2372
     33 C           1.7003    1.9934   -0.3794 C.ar    1  UNL1        0.1427
     34 C           4.7780    0.2005   -0.7064 C.ar    1  UNL1       -0.0534
     35 C           5.4672   -0.9649   -0.4279 C.ar    1  UNL1       -0.0196
     36 H           7.4556   -2.4641    0.4218 H       1  UNL1        0.0660
     37 H           7.5796   -4.1892    0.0013 H       1  UNL1        0.0660
     38 H           6.1252   -3.5864    0.9177 H       1  UNL1        0.0660
     39 H           4.8729   -2.5532   -3.3485 H       1  UNL1        0.0654
     40 H           3.6531   -0.4213   -3.7686 H       1  UNL1        0.0622
     41 H           3.3853    1.9037   -3.2090 H       1  UNL1        0.0542
     42 H           3.9757    2.4994   -1.6212 H       1  UNL1        0.0542
     43 H           0.8837    0.9216   -3.3048 H       1  UNL1        0.0810
     44 H          -1.1766    1.1673   -1.5790 H       1  UNL1        0.0640
     45 H          -2.0982    2.9288    1.5147 H       1  UNL1        0.1522
     46 H          -3.6273    1.7455   -0.4281 H       1  UNL1        0.0658
     47 H          -6.6475   -2.2504   -3.2755 H       1  UNL1        0.0830
     48 H          -8.2119   -0.3195   -3.5798 H       1  UNL1        0.0634
     49 H          -7.9680    1.6489   -2.2282 H       1  UNL1        0.0647
     50 H          -2.9316   -2.2017    2.3513 H       1  UNL1        0.0833
     51 H          -0.8553    0.5528    3.4088 H       1  UNL1        0.0344
     52 H           0.9209   -0.7688    3.0159 H       1  UNL1        0.0235
     53 H           0.0018   -2.1361    2.3930 H       1  UNL1        0.0235
     54 H           0.2553   -0.6613    1.3212 H       1  UNL1        0.0235
     55 H          -1.3462   -2.4088    3.7360 H       1  UNL1        0.0235
     56 H          -2.7302   -1.2592    4.1735 H       1  UNL1        0.0235
     57 H          -1.1608   -1.0522    4.9684 H       1  UNL1        0.0235
     58 H           0.1454    2.8563    3.0057 H       1  UNL1        0.0651
     59 H           2.5091    3.1108    2.6803 H       1  UNL1        0.0831
     60 H           4.7630    0.9603    0.0466 H       1  UNL1        0.0622
     61 H           5.9623   -1.0707    0.5267 H       1  UNL1        0.0654
@<TRIPOS>BOND
     1     1     2    1
     2     2     3    1
     3     3     4   ar
     4     4     5   ar
     5     5     6   ar
     6     6     7    1
     7     7     8    1
     8     8     9   ar
     9     9    10   ar
    10    10    11   ar
    11    11    12   ar
    12    12    13    1
    13    13    14    1
    14    14    15   ar
    15    15    16   ar
    16    16    17    1
    17    17    18   ar
    18    18    19   ar
    19    19    20   ar
    20    20    21   ar
    21    21    22   ar
    22    22    23    1
    23    16    24   ar
    24    24    25   ar
    25    25    26   ar
    26    26    27    1
    27    27    28    1
    28    27    29    1
    29    12    30   ar
    30    30    31   ar
    31    31    32   ar
    32    32    33   ar
    33     6    34   ar
    34    34    35   ar
    35    35     3   ar
    36    33     8   ar
    37    33    11   ar
    38    26    14   ar
    39    22    17   ar
    40     1    36    1
    41     1    37    1
    42     1    38    1
    43     4    39    1
    44     5    40    1
    45     7    41    1
    46     7    42    1
    47     9    43    1
    48    10    44    1
    49    13    45    1
    50    15    46    1
    51    19    47    1
    52    20    48    1
    53    21    49    1
    54    25    50    1
    55    27    51    1
    56    28    52    1
    57    28    53    1
    58    28    54    1
    59    29    55    1
    60    29    56    1
    61    29    57    1
    62    30    58    1
    63    31    59    1
    64    34    60    1
    65    35    61    1
