@<TRIPOS>MOLECULE
*****
 30 31 0 0 0
SMALL
GASTEIGER

@<TRIPOS>ATOM
      1 O          -3.9366   -2.8833    0.1389 O.3     1  UNL1       -0.4771
      2 C          -2.7390   -2.2153    0.0556 C.2     1  UNL1        0.3386
      3 O          -1.8307   -3.0646    0.0123 O.2     1  UNL1       -0.2451
      4 C          -2.6732   -0.7710    0.0301 C.ar    1  UNL1        0.0799
      5 C          -3.8598   -0.0717    0.0830 C.ar    1  UNL1       -0.0460
      6 C          -4.0023    1.2930    0.0660 C.ar    1  UNL1       -0.0609
      7 C          -2.8537    2.0466   -0.0109 C.ar    1  UNL1       -0.0600
      8 C          -1.6444    1.3901   -0.0656 C.ar    1  UNL1       -0.0397
      9 C          -1.5534    0.0164   -0.0462 C.ar    1  UNL1        0.0454
     10 N          -0.2895   -0.6165   -0.1210 N.pl3   1  UNL1       -0.3138
     11 C           1.0390   -0.1417   -0.2738 C.ar    1  UNL1        0.0319
     12 C           2.2072   -0.5335    0.3884 C.ar    1  UNL1       -0.0289
     13 C           3.4238    0.0305    0.0847 C.ar    1  UNL1        0.0566
     14 C           3.5637    1.0003   -0.8755 C.ar    1  UNL1       -0.0500
     15 C           2.4251    1.3978   -1.5377 C.ar    1  UNL1       -0.0595
     16 C           1.1928    0.8462   -1.2503 C.ar    1  UNL1       -0.0405
     17 C           4.6008   -0.4590    0.8490 C.3     1  UNL1        0.4175
     18 F           5.5522    0.5638    0.9316 F       1  UNL1       -0.1659
     19 F           5.2166   -1.4946    0.1325 F       1  UNL1       -0.1659
     20 F           4.1984   -0.8626    2.0884 F       1  UNL1       -0.1659
     21 H          -4.0191   -3.7306    0.6791 H       1  UNL1        0.2954
     22 H          -4.8065   -0.6278    0.1454 H       1  UNL1        0.0626
     23 H          -4.9723    1.7699    0.1108 H       1  UNL1        0.0618
     24 H          -2.9595    3.1190   -0.0246 H       1  UNL1        0.0618
     25 H          -0.8066    2.0647   -0.1115 H       1  UNL1        0.0636
     26 H          -0.1069   -1.6365   -0.0737 H       1  UNL1        0.1522
     27 H           2.0060   -1.3037    1.1306 H       1  UNL1        0.0642
     28 H           4.5457    1.3921   -1.0554 H       1  UNL1        0.0623
     29 H           2.6346    2.1741   -2.2844 H       1  UNL1        0.0618
     30 H           0.4476    1.3079   -1.9102 H       1  UNL1        0.0636
@<TRIPOS>BOND
     1     1     2    1
     2     2     3    2
     3     2     4    1
     4     4     5   ar
     5     5     6   ar
     6     6     7   ar
     7     7     8   ar
     8     8     9   ar
     9     9    10    1
    10    10    11    1
    11    11    12   ar
    12    12    13   ar
    13    13    14   ar
    14    14    15   ar
    15    15    16   ar
    16    13    17    1
    17    17    18    1
    18    17    19    1
    19    17    20    1
    20     9     4   ar
    21    16    11   ar
    22     1    21    1
    23     5    22    1
    24     6    23    1
    25     7    24    1
    26     8    25    1
    27    10    26    1
    28    12    27    1
    29    14    28    1
    30    15    29    1
    31    16    30    1
