
     RDKit          3D

 30 31  0  0  0  0  0  0  0  0999 V2000
   -3.9366   -2.8833    0.1389 O   0  0  0  0  0  0  0  0  0  0  0  0
   -2.7390   -2.2153    0.0556 C   0  0  0  0  0  0  0  0  0  0  0  0
   -1.8307   -3.0646    0.0123 O   0  0  0  0  0  0  0  0  0  0  0  0
   -2.6732   -0.7710    0.0301 C   0  0  0  0  0  0  0  0  0  0  0  0
   -3.8598   -0.0717    0.0830 C   0  0  0  0  0  0  0  0  0  0  0  0
   -4.0023    1.2930    0.0660 C   0  0  0  0  0  0  0  0  0  0  0  0
   -2.8537    2.0466   -0.0109 C   0  0  0  0  0  0  0  0  0  0  0  0
   -1.6444    1.3901   -0.0656 C   0  0  0  0  0  0  0  0  0  0  0  0
   -1.5534    0.0164   -0.0462 C   0  0  0  0  0  0  0  0  0  0  0  0
   -0.2895   -0.6165   -0.1210 N   0  0  0  0  0  0  0  0  0  0  0  0
    1.0390   -0.1417   -0.2738 C   0  0  0  0  0  0  0  0  0  0  0  0
    2.2072   -0.5335    0.3884 C   0  0  0  0  0  0  0  0  0  0  0  0
    3.4238    0.0305    0.0847 C   0  0  0  0  0  0  0  0  0  0  0  0
    3.5637    1.0003   -0.8755 C   0  0  0  0  0  0  0  0  0  0  0  0
    2.4251    1.3978   -1.5377 C   0  0  0  0  0  0  0  0  0  0  0  0
    1.1928    0.8462   -1.2503 C   0  0  0  0  0  0  0  0  0  0  0  0
    4.6008   -0.4590    0.8490 C   0  0  0  0  0  0  0  0  0  0  0  0
    5.5522    0.5638    0.9316 F   0  0  0  0  0  0  0  0  0  0  0  0
    5.2166   -1.4946    0.1325 F   0  0  0  0  0  0  0  0  0  0  0  0
    4.1984   -0.8626    2.0884 F   0  0  0  0  0  0  0  0  0  0  0  0
   -4.0191   -3.7306    0.6791 H   0  0  0  0  0  0  0  0  0  0  0  0
   -4.8065   -0.6278    0.1454 H   0  0  0  0  0  0  0  0  0  0  0  0
   -4.9723    1.7699    0.1108 H   0  0  0  0  0  0  0  0  0  0  0  0
   -2.9595    3.1190   -0.0246 H   0  0  0  0  0  0  0  0  0  0  0  0
   -0.8066    2.0647   -0.1115 H   0  0  0  0  0  0  0  0  0  0  0  0
   -0.1069   -1.6365   -0.0737 H   0  0  0  0  0  0  0  0  0  0  0  0
    2.0060   -1.3037    1.1306 H   0  0  0  0  0  0  0  0  0  0  0  0
    4.5457    1.3921   -1.0554 H   0  0  0  0  0  0  0  0  0  0  0  0
    2.6346    2.1741   -2.2844 H   0  0  0  0  0  0  0  0  0  0  0  0
    0.4476    1.3079   -1.9102 H   0  0  0  0  0  0  0  0  0  0  0  0
  1  2  1  0
  2  3  2  0
  2  4  1  0
  4  5  2  0
  5  6  1  0
  6  7  2  0
  7  8  1  0
  8  9  2  0
  9 10  1  0
 10 11  1  0
 11 12  2  0
 12 13  1  0
 13 14  2  0
 14 15  1  0
 15 16  2  0
 13 17  1  0
 17 18  1  0
 17 19  1  0
 17 20  1  0
  9  4  1  0
 16 11  1  0
  1 21  1  0
  5 22  1  0
  6 23  1  0
  7 24  1  0
  8 25  1  0
 10 26  1  0
 12 27  1  0
 14 28  1  0
 15 29  1  0
 16 30  1  0
M  END
$$$$
