@<TRIPOS>MOLECULE
*****
 54 58 0 0 0
SMALL
GASTEIGER

@<TRIPOS>ATOM
      1 C          -1.4004    3.2764    0.7060 C.3     1  UNL1       -0.0464
      2 C          -1.2646    2.1388    1.6718 C.3     1  UNL1        0.0237
      3 C           0.0538    2.1353    2.4163 C.3     1  UNL1       -0.0311
      4 C           0.6744    0.7434    2.2542 C.3     1  UNL1       -0.0126
      5 C           0.9356    0.5792    0.7564 C.3     1  UNL1        0.1159
      6 O           1.8869   -0.2349    0.4131 O.3     1  UNL1       -0.4866
      7 C           2.8315   -1.0430    0.0723 C.ar    1  UNL1        0.1316
      8 C           2.7915   -2.4011    0.4423 C.ar    1  UNL1       -0.0012
      9 C           3.8008   -3.2423    0.0724 C.ar    1  UNL1        0.0318
     10 N           4.8379   -2.7794   -0.6468 N.ar    1  UNL1       -0.2519
     11 C           4.9140   -1.4919   -1.0198 C.ar    1  UNL1        0.1095
     12 C           6.0002   -1.0220   -1.7692 C.ar    1  UNL1        0.1493
     13 F           6.9547   -1.9240   -2.0918 F       1  UNL1       -0.2032
     14 C           6.0719    0.3024   -2.1487 C.ar    1  UNL1       -0.0243
     15 C           5.0849    1.2017   -1.8064 C.ar    1  UNL1       -0.0582
     16 C           4.0194    0.7316   -1.0691 C.ar    1  UNL1       -0.0489
     17 C           3.9350   -0.5898   -0.6829 C.ar    1  UNL1        0.0449
     18 C          -0.4568    0.2675    0.1544 C.3     1  UNL1        0.0523
     19 N          -1.4661    0.8685    0.9956 N.am    1  UNL1       -0.2912
     20 C          -2.7109    0.2034    1.1743 C.2     1  UNL1        0.2491
     21 O          -3.6356    0.6571    1.8882 O.2     1  UNL1       -0.2699
     22 C          -2.9219   -1.0612    0.4978 C.ar    1  UNL1        0.0640
     23 C          -2.5559   -2.1930    1.1653 C.ar    1  UNL1       -0.0475
     24 C          -2.7399   -3.4147    0.5485 C.ar    1  UNL1       -0.0609
     25 C          -3.2836   -3.4493   -0.7120 C.ar    1  UNL1       -0.0597
     26 C          -3.6485   -2.3030   -1.3741 C.ar    1  UNL1       -0.0338
     27 C          -3.4685   -1.0956   -0.7691 C.ar    1  UNL1        0.0982
     28 N          -3.8210    0.1451   -1.3841 N.ar    1  UNL1       -0.1496
     29 N          -3.3439    0.6885   -2.4845 N.ar    1  UNL1       -0.1556
     30 C          -3.9488    1.8729   -2.7178 C.ar    1  UNL1        0.0697
     31 C          -4.8468    2.0488   -1.6887 C.ar    1  UNL1        0.0697
     32 N          -4.7321    0.9668   -0.8992 N.ar    1  UNL1       -0.1556
     33 H          -1.4819    4.2488    1.1873 H       1  UNL1        0.0248
     34 H          -2.3659    3.0938    0.1512 H       1  UNL1        0.0248
     35 H          -0.6057    3.3027   -0.0628 H       1  UNL1        0.0248
     36 H          -2.0528    2.2519    2.4398 H       1  UNL1        0.0498
     37 H          -0.0611    2.2969    3.5070 H       1  UNL1        0.0284
     38 H           0.7718    2.8593    2.0163 H       1  UNL1        0.0284
     39 H          -0.0696    0.0055    2.6123 H       1  UNL1        0.0302
     40 H           1.5766    0.6422    2.8525 H       1  UNL1        0.0302
     41 H           1.1553    1.6360    0.3704 H       1  UNL1        0.0749
     42 H           1.9321   -2.7318    1.0249 H       1  UNL1        0.0669
     43 H           3.7720   -4.3140    0.3630 H       1  UNL1        0.0831
     44 H           6.9259    0.6299   -2.7271 H       1  UNL1        0.0647
     45 H           5.1619    2.2439   -2.1170 H       1  UNL1        0.0619
     46 H           3.2315    1.4058   -0.7848 H       1  UNL1        0.0625
     47 H          -0.5195   -0.8556    0.2097 H       1  UNL1        0.0501
     48 H          -0.5198    0.6140   -0.8805 H       1  UNL1        0.0501
     49 H          -2.1230   -2.2045    2.1628 H       1  UNL1        0.0626
     50 H          -2.4598   -4.3385    1.0503 H       1  UNL1        0.0618
     51 H          -3.4150   -4.4361   -1.1712 H       1  UNL1        0.0618
     52 H          -4.0666   -2.3708   -2.3497 H       1  UNL1        0.0639
     53 H          -3.7965    2.5775   -3.5310 H       1  UNL1        0.0864
     54 H          -5.5370    2.8610   -1.4865 H       1  UNL1        0.0864
@<TRIPOS>BOND
     1     1     2    1
     2     2     3    1
     3     3     4    1
     4     4     5    1
     5     5     6    1
     6     6     7    1
     7     7     8   ar
     8     8     9   ar
     9     9    10   ar
    10    10    11   ar
    11    11    12   ar
    12    12    13    1
    13    12    14   ar
    14    14    15   ar
    15    15    16   ar
    16    16    17   ar
    17     5    18    1
    18    18    19    1
    19    19    20   am
    20    20    21    2
    21    20    22    1
    22    22    23   ar
    23    23    24   ar
    24    24    25   ar
    25    25    26   ar
    26    26    27   ar
    27    27    28    1
    28    28    29   ar
    29    29    30   ar
    30    30    31   ar
    31    31    32   ar
    32    19     2    1
    33    27    22   ar
    34    32    28   ar
    35    17     7   ar
    36    17    11   ar
    37     1    33    1
    38     1    34    1
    39     1    35    1
    40     2    36    1
    41     3    37    1
    42     3    38    1
    43     4    39    1
    44     4    40    1
    45     5    41    1
    46     8    42    1
    47     9    43    1
    48    14    44    1
    49    15    45    1
    50    16    46    1
    51    18    47    1
    52    18    48    1
    53    23    49    1
    54    24    50    1
    55    25    51    1
    56    26    52    1
    57    30    53    1
    58    31    54    1
