@<TRIPOS>MOLECULE
*****
 56 58 0 0 0
SMALL
GASTEIGER

@<TRIPOS>ATOM
      1 O           7.3426   -1.7135   -1.0486 O.2     1  UNL1       -0.2484
      2 C           7.6343   -0.5056   -1.1463 C.2     1  UNL1        0.3308
      3 O           8.9593   -0.1702   -1.4675 O.3     1  UNL1       -0.4790
      4 C           6.6945    0.6106   -0.9506 C.3     1  UNL1        0.1443
      5 O           5.4216    0.1575   -0.6388 O.3     1  UNL1       -0.3684
      6 C           4.5736    1.2521   -0.4644 C.3     1  UNL1        0.0512
      7 C           3.1659    0.8080   -0.1209 C.3     1  UNL1       -0.0175
      8 C           2.6269   -0.0577   -1.2599 C.3     1  UNL1       -0.0478
      9 C           1.1800   -0.3454   -0.9441 C.3     1  UNL1       -0.0468
     10 C           1.0054   -0.9390    0.4302 C.3     1  UNL1       -0.0066
     11 C           0.2440   -0.0409    1.3534 C.3     1  UNL1        0.0969
     12 O          -1.0485    0.2682    0.9232 O.3     1  UNL1       -0.4495
     13 C          -2.0264   -0.6852    0.7037 C.2     1  UNL1        0.4117
     14 O          -1.7298   -1.8893    0.9037 O.2     1  UNL1       -0.2255
     15 N          -3.3069   -0.2749    0.2681 N.am    1  UNL1       -0.2061
     16 C          -3.5771    1.0918    0.0617 C.ar    1  UNL1        0.0445
     17 C          -4.0627    1.8925    1.0684 C.ar    1  UNL1       -0.0398
     18 C          -4.3261    3.2464    0.8489 C.ar    1  UNL1       -0.0600
     19 C          -4.1062    3.8143   -0.3815 C.ar    1  UNL1       -0.0616
     20 C          -3.6205    3.0182   -1.3924 C.ar    1  UNL1       -0.0600
     21 C          -3.3610    1.6731   -1.1667 C.ar    1  UNL1       -0.0398
     22 C          -4.2951   -1.2734    0.0495 C.ar    1  UNL1        0.0472
     23 C          -4.4453   -1.8775   -1.1798 C.ar    1  UNL1       -0.0396
     24 C          -5.4004   -2.8480   -1.4057 C.ar    1  UNL1       -0.0573
     25 C          -6.2543   -3.2602   -0.4032 C.ar    1  UNL1       -0.0263
     26 C          -6.1138   -2.6639    0.8296 C.ar    1  UNL1        0.1252
     27 F          -6.9374   -3.0484    1.8309 F       1  UNL1       -0.2054
     28 C          -5.1618   -1.6942    1.0608 C.ar    1  UNL1       -0.0046
     29 C           2.3646   -1.2022    1.0898 C.3     1  UNL1       -0.0468
     30 C           3.1415    0.0863    1.1873 C.3     1  UNL1       -0.0478
     31 H           9.7237   -0.8202   -1.3401 H       1  UNL1        0.2951
     32 H           7.0679    1.1915   -0.0649 H       1  UNL1        0.0676
     33 H           6.6922    1.3304   -1.8095 H       1  UNL1        0.0676
     34 H           4.9701    1.8166    0.4152 H       1  UNL1        0.0563
     35 H           4.5869    1.8786   -1.3679 H       1  UNL1        0.0563
     36 H           2.5081    1.6918   -0.0776 H       1  UNL1        0.0323
     37 H           3.2233   -0.9949   -1.3701 H       1  UNL1        0.0269
     38 H           2.6606    0.5494   -2.1727 H       1  UNL1        0.0269
     39 H           0.7140   -0.9866   -1.7242 H       1  UNL1        0.0269
     40 H           0.6403    0.6240   -0.9809 H       1  UNL1        0.0269
     41 H           0.5322   -1.9220    0.3194 H       1  UNL1        0.0334
     42 H           0.2559   -0.4937    2.3661 H       1  UNL1        0.0701
     43 H           0.8008    0.9337    1.4291 H       1  UNL1        0.0701
     44 H          -4.2495    1.4796    2.0556 H       1  UNL1        0.0636
     45 H          -4.7082    3.8908    1.6294 H       1  UNL1        0.0618
     46 H          -4.3189    4.8830   -0.5381 H       1  UNL1        0.0618
     47 H          -3.4496    3.4681   -2.3556 H       1  UNL1        0.0618
     48 H          -2.9787    1.0352   -1.9533 H       1  UNL1        0.0636
     49 H          -3.7708   -1.5552   -1.9807 H       1  UNL1        0.0636
     50 H          -5.4772   -3.2924   -2.3928 H       1  UNL1        0.0619
     51 H          -6.9940   -4.0243   -0.6113 H       1  UNL1        0.0646
     52 H          -5.0222   -1.2039    2.0150 H       1  UNL1        0.0665
     53 H           2.9448   -1.9408    0.5357 H       1  UNL1        0.0269
     54 H           2.1365   -1.5742    2.1145 H       1  UNL1        0.0269
     55 H           4.1837   -0.1406    1.4757 H       1  UNL1        0.0269
     56 H           2.7468    0.7469    2.0116 H       1  UNL1        0.0269
@<TRIPOS>BOND
     1     1     2    2
     2     2     3    1
     3     2     4    1
     4     4     5    1
     5     5     6    1
     6     6     7    1
     7     7     8    1
     8     8     9    1
     9     9    10    1
    10    10    11    1
    11    11    12    1
    12    12    13    1
    13    13    14    2
    14    13    15   am
    15    15    16    1
    16    16    17   ar
    17    17    18   ar
    18    18    19   ar
    19    19    20   ar
    20    20    21   ar
    21    15    22    1
    22    22    23   ar
    23    23    24   ar
    24    24    25   ar
    25    25    26   ar
    26    26    27    1
    27    26    28   ar
    28    10    29    1
    29    29    30    1
    30    30     7    1
    31    21    16   ar
    32    28    22   ar
    33     3    31    1
    34     4    32    1
    35     4    33    1
    36     6    34    1
    37     6    35    1
    38     7    36    1
    39     8    37    1
    40     8    38    1
    41     9    39    1
    42     9    40    1
    43    10    41    1
    44    11    42    1
    45    11    43    1
    46    17    44    1
    47    18    45    1
    48    19    46    1
    49    20    47    1
    50    21    48    1
    51    23    49    1
    52    24    50    1
    53    25    51    1
    54    28    52    1
    55    29    53    1
    56    29    54    1
    57    30    55    1
    58    30    56    1
