@<TRIPOS>MOLECULE
*****
 40 41 0 0 0
SMALL
GASTEIGER

@<TRIPOS>ATOM
      1 C           6.9046   -0.5697   -0.6660 C.3     1  UNL1       -0.0135
      2 S           5.9851    0.8895   -0.0722 S.3     1  UNL1       -0.1286
      3 C           4.2467    0.4306   -0.0857 C.ar    1  UNL1        0.0076
      4 C           3.6820   -0.1408    1.0332 C.ar    1  UNL1       -0.0481
      5 C           2.3569   -0.4762    0.9830 C.ar    1  UNL1       -0.0572
      6 C           1.5783   -0.2678   -0.1256 C.ar    1  UNL1       -0.0430
      7 C           0.1369   -0.6547   -0.1230 C.3     1  UNL1       -0.0021
      8 C          -0.6790    0.4803    0.3537 C.ar    1  UNL1       -0.0387
      9 C          -0.0778    1.6673    0.7103 C.ar    1  UNL1       -0.0580
     10 C          -0.7873    2.7549    1.1603 C.ar    1  UNL1       -0.0615
     11 C          -2.1539    2.6339    1.2516 C.ar    1  UNL1       -0.0614
     12 C          -2.7610    1.4390    0.8929 C.ar    1  UNL1       -0.0571
     13 C          -2.0594    0.3487    0.4428 C.ar    1  UNL1       -0.0299
     14 C          -2.6414   -0.9372    0.0528 C.3     1  UNL1        0.0237
     15 N          -4.0776   -0.9873    0.1233 N.3     1  UNL1       -0.3042
     16 C          -4.4781   -2.3487   -0.2720 C.3     1  UNL1       -0.0127
     17 C          -4.6980   -0.0798   -0.8377 C.3     1  UNL1       -0.0127
     18 C           2.1441    0.3024   -1.2403 C.ar    1  UNL1       -0.0572
     19 C           3.4738    0.6460   -1.2090 C.ar    1  UNL1       -0.0481
     20 H           7.0354   -1.3205    0.1615 H       1  UNL1        0.0344
     21 H           7.8785   -0.2630   -1.0809 H       1  UNL1        0.0344
     22 H           6.3298   -1.0377   -1.5009 H       1  UNL1        0.0344
     23 H           4.2733   -0.3168    1.9231 H       1  UNL1        0.0629
     24 H           1.8972   -0.9323    1.8674 H       1  UNL1        0.0621
     25 H           0.0089   -1.5150    0.5408 H       1  UNL1        0.0362
     26 H          -0.1964   -0.8708   -1.1788 H       1  UNL1        0.0362
     27 H           1.0010    1.7592    0.6367 H       1  UNL1        0.0620
     28 H          -0.2738    3.6592    1.4264 H       1  UNL1        0.0618
     29 H          -2.7735    3.4363    1.5920 H       1  UNL1        0.0618
     30 H          -3.8322    1.3545    0.9703 H       1  UNL1        0.0621
     31 H          -2.2582   -1.7108    0.7566 H       1  UNL1        0.0476
     32 H          -2.2853   -1.2699   -0.9592 H       1  UNL1        0.0476
     33 H          -3.6002   -3.0223   -0.3363 H       1  UNL1        0.0391
     34 H          -4.9625   -2.3512   -1.2695 H       1  UNL1        0.0391
     35 H          -5.2253   -2.7277    0.4847 H       1  UNL1        0.0391
     36 H          -5.5713    0.4493   -0.4046 H       1  UNL1        0.0391
     37 H          -3.9500    0.5992   -1.2971 H       1  UNL1        0.0391
     38 H          -5.1242   -0.6488   -1.7161 H       1  UNL1        0.0391
     39 H           1.5806    0.4951   -2.1525 H       1  UNL1        0.0621
     40 H           3.9533    1.1034   -2.0878 H       1  UNL1        0.0629
@<TRIPOS>BOND
     1     1     2    1
     2     2     3    1
     3     3     4   ar
     4     4     5   ar
     5     5     6   ar
     6     6     7    1
     7     7     8    1
     8     8     9   ar
     9     9    10   ar
    10    10    11   ar
    11    11    12   ar
    12    12    13   ar
    13    13    14    1
    14    14    15    1
    15    15    16    1
    16    15    17    1
    17     6    18   ar
    18    18    19   ar
    19    19     3   ar
    20    13     8   ar
    21     1    20    1
    22     1    21    1
    23     1    22    1
    24     4    23    1
    25     5    24    1
    26     7    25    1
    27     7    26    1
    28     9    27    1
    29    10    28    1
    30    11    29    1
    31    12    30    1
    32    14    31    1
    33    14    32    1
    34    16    33    1
    35    16    34    1
    36    16    35    1
    37    17    36    1
    38    17    37    1
    39    17    38    1
    40    18    39    1
    41    19    40    1
