@<TRIPOS>MOLECULE
*****
 56 57 0 0 0
SMALL
GASTEIGER

@<TRIPOS>ATOM
      1 C           1.4372   -0.4342   -0.2733 C.3     1  UNL1        0.0441
      2 C           1.7335   -1.8269   -0.5581 C.3     1  UNL1       -0.0391
      3 C           2.9732   -2.4828   -0.1450 C.3     1  UNL1       -0.0460
      4 C           4.2069   -1.8252   -0.7262 C.3     1  UNL1       -0.0626
      5 C           3.0196   -3.9214   -0.7171 C.3     1  UNL1       -0.0626
      6 C           1.3582    0.0926    1.0978 C.3     1  UNL1        0.0370
      7 C           2.5956   -0.0091    1.9100 C.2     1  UNL1        0.2362
      8 O           3.7990   -0.3219    2.1076 O.2     1  UNL1       -0.2737
      9 N           2.3103    0.5501    3.2046 N.am    1  UNL1       -0.1975
     10 O           3.2442    0.6150    4.2087 O.3     1  UNL1       -0.2952
     11 C           0.1453   -0.1100   -0.9956 C.2     1  UNL1        0.2172
     12 O          -0.2526   -1.1609   -1.6075 O.2     1  UNL1       -0.2755
     13 N          -0.5697    1.1153   -1.0416 N.am    1  UNL1       -0.3034
     14 C          -1.7559    1.1720   -1.7881 C.3     1  UNL1        0.1033
     15 C          -3.0437    1.5073   -1.1671 C.3     1  UNL1        0.0013
     16 C          -3.4235    0.5487   -0.0974 C.ar    1  UNL1       -0.0201
     17 C          -4.3476   -0.4862   -0.1764 C.ar    1  UNL1        0.0060
     18 N          -4.4674   -1.1898    0.9624 N.ar    1  UNL1       -0.3604
     19 C          -3.6163   -0.6196    1.8086 C.ar    1  UNL1        0.0467
     20 C          -3.3275   -0.9328    3.1235 C.ar    1  UNL1       -0.0378
     21 C          -2.3866   -0.1946    3.8478 C.ar    1  UNL1       -0.0598
     22 C          -1.7442    0.8662    3.2150 C.ar    1  UNL1       -0.0611
     23 C          -2.0237    1.1978    1.8844 C.ar    1  UNL1       -0.0523
     24 C          -2.9579    0.4392    1.2168 C.ar    1  UNL1        0.0029
     25 C          -1.5165    2.0405   -2.9961 C.2     1  UNL1        0.2334
     26 O          -2.4624    2.2254   -3.8065 O.2     1  UNL1       -0.2738
     27 N          -0.2719    2.6411   -3.2323 N.am    1  UNL1       -0.3168
     28 C           0.1092    3.4895   -4.3283 C.3     1  UNL1        0.0001
     29 H           2.1763    0.2419   -0.8153 H       1  UNL1        0.0399
     30 H           1.6632   -1.9629   -1.6849 H       1  UNL1        0.0275
     31 H           0.8778   -2.4952   -0.2190 H       1  UNL1        0.0275
     32 H           3.1430   -2.6368    0.9151 H       1  UNL1        0.0296
     33 H           5.0030   -1.7572    0.0365 H       1  UNL1        0.0232
     34 H           4.5995   -2.3664   -1.6107 H       1  UNL1        0.0232
     35 H           3.9113   -0.8076   -1.0972 H       1  UNL1        0.0232
     36 H           2.2908   -4.5691   -0.2064 H       1  UNL1        0.0232
     37 H           2.7985   -3.7854   -1.7936 H       1  UNL1        0.0232
     38 H           4.0550   -4.2601   -0.5996 H       1  UNL1        0.0232
     39 H           1.1544    1.1987    1.0131 H       1  UNL1        0.0366
     40 H           0.4687   -0.2559    1.6736 H       1  UNL1        0.0366
     41 H           1.4970    0.9969    3.7203 H       1  UNL1        0.1822
     42 H           3.9448    1.2800    3.9371 H       1  UNL1        0.2414
     43 H          -0.0720    1.8374   -0.4767 H       1  UNL1        0.1495
     44 H          -1.9100    0.1493   -2.2470 H       1  UNL1        0.0598
     45 H          -3.8101    1.3934   -1.9744 H       1  UNL1        0.0337
     46 H          -3.1777    2.5585   -0.8534 H       1  UNL1        0.0337
     47 H          -4.9003   -0.6768   -1.0893 H       1  UNL1        0.0810
     48 H          -5.1017   -1.9974    1.1032 H       1  UNL1        0.1653
     49 H          -3.8121   -1.7599    3.6541 H       1  UNL1        0.0638
     50 H          -2.1665   -0.4463    4.8774 H       1  UNL1        0.0618
     51 H          -1.0059    1.4432    3.7894 H       1  UNL1        0.0618
     52 H          -1.5165    2.0161    1.4270 H       1  UNL1        0.0624
     53 H           0.5253    2.4890   -2.5554 H       1  UNL1        0.1484
     54 H          -0.6531    3.5256   -5.1361 H       1  UNL1        0.0426
     55 H           0.1992    4.5408   -3.9605 H       1  UNL1        0.0426
     56 H           1.0533    3.1212   -4.7581 H       1  UNL1        0.0426
@<TRIPOS>BOND
     1     1     2    1
     2     2     3    1
     3     3     4    1
     4     3     5    1
     5     1     6    1
     6     6     7    1
     7     7     8    2
     8     7     9   am
     9     9    10    1
    10     1    11    1
    11    11    12    2
    12    11    13   am
    13    13    14    1
    14    14    15    1
    15    15    16    1
    16    16    17   ar
    17    17    18   ar
    18    18    19   ar
    19    19    20   ar
    20    20    21   ar
    21    21    22   ar
    22    22    23   ar
    23    23    24   ar
    24    14    25    1
    25    25    26    2
    26    25    27   am
    27    27    28    1
    28    24    16   ar
    29    24    19   ar
    30     1    29    1
    31     2    30    1
    32     2    31    1
    33     3    32    1
    34     4    33    1
    35     4    34    1
    36     4    35    1
    37     5    36    1
    38     5    37    1
    39     5    38    1
    40     6    39    1
    41     6    40    1
    42     9    41    1
    43    10    42    1
    44    13    43    1
    45    14    44    1
    46    15    45    1
    47    15    46    1
    48    17    47    1
    49    18    48    1
    50    20    49    1
    51    21    50    1
    52    22    51    1
    53    23    52    1
    54    27    53    1
    55    28    54    1
    56    28    55    1
    57    28    56    1
