@<TRIPOS>MOLECULE
*****
 101 107 0 0 0
SMALL
GASTEIGER

@<TRIPOS>ATOM
      1 C           9.0311    2.3699    4.4464 C.3     1  UNL1        0.0788
      2 O           8.8048    2.1783    3.0538 O.3     1  UNL1       -0.4950
      3 C           7.7177    1.3862    2.6410 C.ar    1  UNL1        0.1226
      4 C           6.8813    0.7998    3.5492 C.ar    1  UNL1        0.0013
      5 C           5.7977    0.0132    3.1279 C.ar    1  UNL1        0.0378
      6 N           4.9828   -0.6392    4.0874 N.pl3   1  UNL1       -0.2834
      7 C           3.6433   -0.9575    3.7961 C.ar    1  UNL1        0.2226
      8 N           3.0320   -1.8079    4.6603 N.ar    1  UNL1       -0.2225
      9 C           1.7451   -2.1603    4.5267 C.ar    1  UNL1        0.0362
     10 C           1.0321   -1.6375    3.4802 C.ar    1  UNL1        0.0186
     11 C           1.6376   -0.7636    2.5869 C.ar    1  UNL1        0.2249
     12 O           0.8953   -0.2331    1.5206 O.3     1  UNL1       -0.4373
     13 C          -0.4759   -0.5258    1.4716 C.ar    1  UNL1        0.1381
     14 C          -1.0326   -1.2943    0.4898 C.ar    1  UNL1       -0.0169
     15 C          -2.3947   -1.5570    0.4960 C.ar    1  UNL1       -0.0363
     16 C          -3.2337   -1.0682    1.4672 C.ar    1  UNL1        0.0427
     17 N          -4.6203   -1.3301    1.5106 N.am    1  UNL1       -0.2686
     18 C          -5.6322   -0.5087    0.9274 C.2     1  UNL1        0.3092
     19 O          -5.3297    0.5403    0.3148 O.2     1  UNL1       -0.2521
     20 N          -7.0069   -0.8419    1.0177 N.am    1  UNL1       -0.2538
     21 C          -7.9867   -0.0112    0.4575 C.ar    1  UNL1        0.1300
     22 C          -8.5482    1.0481    1.1837 C.ar    1  UNL1        0.0018
     23 C          -9.4659    1.6150    0.3402 C.ar    1  UNL1        0.0679
     24 C         -10.3443    2.7891    0.6528 C.3     1  UNL1       -0.0025
     25 C         -10.2272    3.8964   -0.3481 C.3     1  UNL1       -0.0572
     26 C         -11.7709    2.2239    0.6496 C.3     1  UNL1       -0.0572
     27 N          -9.4345    0.9314   -0.7844 N.ar    1  UNL1       -0.1693
     28 N          -8.5369   -0.0700   -0.7390 N.ar    1  UNL1       -0.2166
     29 C          -8.3083   -0.9619   -1.8185 C.ar    1  UNL1        0.0857
     30 C          -7.4876   -2.0605   -1.7681 C.ar    1  UNL1       -0.0297
     31 C          -7.3161   -2.8986   -2.8863 C.ar    1  UNL1        0.0020
     32 C          -7.9805   -2.6196   -4.0540 C.ar    1  UNL1        0.2145
     33 O          -7.8048   -3.4694   -5.1717 O.3     1  UNL1       -0.4796
     34 C          -8.4895   -3.2045   -6.3864 C.3     1  UNL1        0.0804
     35 N          -8.7823   -1.5449   -4.0985 N.ar    1  UNL1       -0.2192
     36 C          -8.9546   -0.7328   -3.0356 C.ar    1  UNL1        0.0568
     37 C          -2.6898   -0.2795    2.4781 C.ar    1  UNL1        0.0069
     38 C          -3.5391    0.2267    3.4306 C.ar    1  UNL1       -0.0521
     39 C          -2.9994    1.0350    4.4202 C.ar    1  UNL1       -0.0611
     40 C          -1.6401    1.3055    4.4180 C.ar    1  UNL1       -0.0611
     41 C          -0.8028    0.7812    3.4456 C.ar    1  UNL1       -0.0505
     42 C          -1.3143   -0.0208    2.4623 C.ar    1  UNL1        0.0262
     43 N           2.9196   -0.4609    2.7803 N.ar    1  UNL1       -0.1789
     44 C           5.5990   -0.1502    1.7782 C.ar    1  UNL1       -0.0281
     45 C           6.4277    0.4297    0.8317 C.ar    1  UNL1        0.0419
     46 C           6.1465    0.1932   -0.5847 C.2     1  UNL1        0.2443
     47 O           5.0571   -0.3700   -0.9118 O.2     1  UNL1       -0.2702
     48 N           7.0531    0.5670   -1.6044 N.am    1  UNL1       -0.3101
     49 C           6.7245    0.2958   -2.9670 C.3     1  UNL1        0.0247
     50 C           7.7565    0.6791   -3.9712 C.3     1  UNL1        0.0146
     51 N           9.0062    0.0717   -3.9213 N.3     1  UNL1       -0.2965
     52 C           9.9008    0.2961   -2.8660 C.3     1  UNL1        0.0225
     53 C          11.3065   -0.0453   -3.3445 C.3     1  UNL1        0.0604
     54 O          11.4271   -1.3758   -3.6789 O.3     1  UNL1       -0.3772
     55 C          10.3745   -1.9240   -4.3542 C.3     1  UNL1        0.0604
     56 C           9.3336   -0.9506   -4.8415 C.3     1  UNL1        0.0225
     57 C           7.4747    1.1893    1.2851 C.ar    1  UNL1       -0.0077
     58 H           9.9765    2.9170    4.5806 H       1  UNL1        0.0660
     59 H           8.2265    3.0234    4.8651 H       1  UNL1        0.0660
     60 H           9.1159    1.4222    4.9982 H       1  UNL1        0.0660
     61 H           7.0231    0.9286    4.6232 H       1  UNL1        0.0673
     62 H           5.4337   -0.8636    5.0132 H       1  UNL1        0.1550
     63 H           1.2731   -2.8510    5.2346 H       1  UNL1        0.0832
     64 H          -0.0026   -1.9399    3.3664 H       1  UNL1        0.0686
     65 H          -0.4041   -1.6961   -0.2923 H       1  UNL1        0.0655
     66 H          -2.8363   -2.1642   -0.2911 H       1  UNL1        0.0637
     67 H          -4.9106   -2.2117    2.0248 H       1  UNL1        0.1564
     68 H          -7.3210   -1.7127    1.5179 H       1  UNL1        0.1578
     69 H          -8.3209    1.3602    2.1854 H       1  UNL1        0.0671
     70 H         -10.1233    3.1776    1.6802 H       1  UNL1        0.0359
     71 H         -10.0194    3.5235   -1.3686 H       1  UNL1        0.0236
     72 H         -11.1971    4.4726   -0.3532 H       1  UNL1        0.0236
     73 H          -9.4466    4.6633   -0.0549 H       1  UNL1        0.0236
     74 H         -12.5108    2.9866    0.8804 H       1  UNL1        0.0236
     75 H         -11.9613    1.8211   -0.3783 H       1  UNL1        0.0236
     76 H         -11.7507    1.3704    1.3707 H       1  UNL1        0.0236
     77 H          -6.9716   -2.2836   -0.8594 H       1  UNL1        0.0641
     78 H          -6.6487   -3.7554   -2.7865 H       1  UNL1        0.0671
     79 H          -9.5767   -3.1687   -6.2217 H       1  UNL1        0.0660
     80 H          -8.1472   -2.1848   -6.7172 H       1  UNL1        0.0660
     81 H          -8.1887   -3.9805   -7.1094 H       1  UNL1        0.0660
     82 H          -9.6258    0.1334   -3.1201 H       1  UNL1        0.0852
     83 H          -4.5882    0.0194    3.4337 H       1  UNL1        0.0624
     84 H          -3.5931    1.4700    5.2056 H       1  UNL1        0.0618
     85 H          -1.1985    1.9397    5.1841 H       1  UNL1        0.0618
     86 H           0.2508    1.0279    3.4618 H       1  UNL1        0.0625
     87 H           4.7744   -0.7469    1.4108 H       1  UNL1        0.0644
     88 H           7.9257    1.0411   -1.2870 H       1  UNL1        0.1490
     89 H           6.3887   -0.7782   -3.1099 H       1  UNL1        0.0475
     90 H           5.8010    0.8895   -3.2132 H       1  UNL1        0.0475
     91 H           7.2921    0.4482   -4.9799 H       1  UNL1        0.0442
     92 H           7.8639    1.7897   -3.9793 H       1  UNL1        0.0442
     93 H           9.7095   -0.2900   -1.9383 H       1  UNL1        0.0449
     94 H           9.9097    1.3662   -2.5829 H       1  UNL1        0.0449
     95 H          11.9732    0.1302   -2.4626 H       1  UNL1        0.0572
     96 H          11.6464    0.6019   -4.1417 H       1  UNL1        0.0572
     97 H          10.8102   -2.3867   -5.2871 H       1  UNL1        0.0572
     98 H           9.9797   -2.7656   -3.7679 H       1  UNL1        0.0572
     99 H           9.7816   -0.4628   -5.7402 H       1  UNL1        0.0449
    100 H           8.4866   -1.5443   -5.2229 H       1  UNL1        0.0449
    101 H           8.1426    1.6700    0.5794 H       1  UNL1        0.0662
@<TRIPOS>BOND
     1     1     2    1
     2     2     3    1
     3     3     4   ar
     4     4     5   ar
     5     5     6    1
     6     6     7    1
     7     7     8   ar
     8     8     9   ar
     9     9    10   ar
    10    10    11   ar
    11    11    12    1
    12    12    13    1
    13    13    14   ar
    14    14    15   ar
    15    15    16   ar
    16    16    17    1
    17    17    18   am
    18    18    19    2
    19    18    20   am
    20    20    21    1
    21    21    22   ar
    22    22    23   ar
    23    23    24    1
    24    24    25    1
    25    24    26    1
    26    23    27   ar
    27    27    28   ar
    28    28    29    1
    29    29    30   ar
    30    30    31   ar
    31    31    32   ar
    32    32    33    1
    33    33    34    1
    34    32    35   ar
    35    35    36   ar
    36    16    37   ar
    37    37    38   ar
    38    38    39   ar
    39    39    40   ar
    40    40    41   ar
    41    41    42   ar
    42    11    43   ar
    43     5    44   ar
    44    44    45   ar
    45    45    46    1
    46    46    47    2
    47    46    48   am
    48    48    49    1
    49    49    50    1
    50    50    51    1
    51    51    52    1
    52    52    53    1
    53    53    54    1
    54    54    55    1
    55    55    56    1
    56    45    57   ar
    57    57     3   ar
    58    43     7   ar
    59    56    51    1
    60    42    13   ar
    61    28    21   ar
    62    36    29   ar
    63    42    37   ar
    64     1    58    1
    65     1    59    1
    66     1    60    1
    67     4    61    1
    68     6    62    1
    69     9    63    1
    70    10    64    1
    71    14    65    1
    72    15    66    1
    73    17    67    1
    74    20    68    1
    75    22    69    1
    76    24    70    1
    77    25    71    1
    78    25    72    1
    79    25    73    1
    80    26    74    1
    81    26    75    1
    82    26    76    1
    83    30    77    1
    84    31    78    1
    85    34    79    1
    86    34    80    1
    87    34    81    1
    88    36    82    1
    89    38    83    1
    90    39    84    1
    91    40    85    1
    92    41    86    1
    93    44    87    1
    94    48    88    1
    95    49    89    1
    96    49    90    1
    97    50    91    1
    98    50    92    1
    99    52    93    1
   100    52    94    1
   101    53    95    1
   102    53    96    1
   103    55    97    1
   104    55    98    1
   105    56    99    1
   106    56   100    1
   107    57   101    1
