
     RDKit          3D

 26 28  0  0  0  0  0  0  0  0999 V2000
   -1.6250   -3.6748    0.1134 O   0  0  0  0  0  0  0  0  0  0  0  0
   -1.3348   -2.4570   -0.1061 C   0  0  0  0  0  0  0  0  0  0  0  0
   -1.6014   -1.4947    0.9268 C   0  0  0  0  0  0  0  0  0  0  0  0
   -1.8323   -1.6500    2.2625 C   0  0  0  0  0  0  0  0  0  0  0  0
   -2.1300   -0.5994    3.0292 C   0  0  0  0  0  0  0  0  0  0  0  0
   -2.1953    0.6492    2.4189 C   0  0  0  0  0  0  0  0  0  0  0  0
   -1.8197    0.2704    0.7287 S   0  0  0  0  0  0  0  0  0  0  0  0
   -0.7567   -2.0608   -1.3729 C   0  0  0  0  0  0  0  0  0  0  0  0
   -1.0414   -2.6357   -2.5836 N   0  0  0  0  0  0  0  0  0  0  0  0
   -0.3302   -2.0586   -3.4869 O   0  0  0  0  0  3  0  0  0  0  0  0
    0.4316   -1.1264   -3.0075 N   0  0  0  0  0  0  0  0  0  0  0  0
    1.3206   -0.3430   -3.7452 O   0  0  0  0  0  1  0  0  0  0  0  0
    0.1886   -1.1018   -1.6709 C   0  0  0  0  0  0  0  0  0  0  0  0
    0.9168   -0.2921   -0.7371 C   0  0  0  0  0  0  0  0  0  0  0  0
    1.1576   -0.7444    0.4370 O   0  0  0  0  0  0  0  0  0  0  0  0
    1.4207    1.0341   -1.0029 C   0  0  0  0  0  0  0  0  0  0  0  0
    2.2426    1.8553   -0.2860 C   0  0  0  0  0  0  0  0  0  0  0  0
    2.5206    3.0672   -0.7705 C   0  0  0  0  0  0  0  0  0  0  0  0
    2.0206    3.5060   -1.9371 C   0  0  0  0  0  0  0  0  0  0  0  0
    1.0233    2.0538   -2.4523 S   0  0  0  0  0  0  0  0  0  0  0  0
   -1.7539   -2.7110    2.6607 H   0  0  0  0  0  0  0  0  0  0  0  0
   -2.3197   -0.7346    4.1325 H   0  0  0  0  0  0  0  0  0  0  0  0
   -2.4329    1.6590    2.8999 H   0  0  0  0  0  0  0  0  0  0  0  0
    2.6419    1.4451    0.6907 H   0  0  0  0  0  0  0  0  0  0  0  0
    3.2005    3.7650   -0.1919 H   0  0  0  0  0  0  0  0  0  0  0  0
    2.0879    4.3791   -2.5057 H   0  0  0  0  0  0  0  0  0  0  0  0
  1  2  2  0
  2  3  1  0
  3  4  2  0
  4  5  1  0
  5  6  2  0
  6  7  1  0
  2  8  1  0
  8  9  1  0
  9 10  2  0
 10 11  1  0
 11 12  1  0
 11 13  1  0
 13 14  1  0
 14 15  2  0
 14 16  1  0
 16 17  2  0
 17 18  1  0
 18 19  2  0
 19 20  1  0
  7  3  1  0
 13  8  2  0
 20 16  1  0
  4 21  1  0
  5 22  1  0
  6 23  1  0
 17 24  1  0
 18 25  1  0
 19 26  1  0
M  CHG  2  10   1  12  -1
M  END
$$$$
