@<TRIPOS>MOLECULE
*****
 26 28 0 0 0
SMALL
GASTEIGER

@<TRIPOS>ATOM
      1 O          -1.6250   -3.6748    0.1134 O.2     1  UNL1       -0.2841
      2 C          -1.3348   -2.4570   -0.1061 C.2     1  UNL1        0.2285
      3 C          -1.6014   -1.4947    0.9268 C.ar    1  UNL1        0.0613
      4 C          -1.8323   -1.6500    2.2625 C.ar    1  UNL1       -0.0437
      5 C          -2.1300   -0.5994    3.0292 C.ar    1  UNL1       -0.0540
      6 C          -2.1953    0.6492    2.4189 C.ar    1  UNL1       -0.0236
      7 S          -1.8197    0.2704    0.7287 S.2     1  UNL1       -0.0934
      8 C          -0.7567   -2.0608   -1.3729 C.ar    1  UNL1        0.2487
      9 N          -1.0414   -2.6357   -2.5836 N.ar    1  UNL1        0.2122
     10 O          -0.3302   -2.0586   -3.4869 O.2     1  UNL1        0.0649
     11 N           0.4316   -1.1264   -3.0075 N.ar    1  UNL1        0.0267
     12 O           1.3206   -0.3430   -3.7452 O.co2   1  UNL1       -0.7357
     13 C           0.1886   -1.1018   -1.6709 C.ar    1  UNL1        0.2150
     14 C           0.9168   -0.2921   -0.7371 C.2     1  UNL1        0.2258
     15 O           1.1576   -0.7444    0.4370 O.2     1  UNL1       -0.2842
     16 C           1.4207    1.0341   -1.0029 C.ar    1  UNL1        0.0612
     17 C           2.2426    1.8553   -0.2860 C.ar    1  UNL1       -0.0437
     18 C           2.5206    3.0672   -0.7705 C.ar    1  UNL1       -0.0540
     19 C           2.0206    3.5060   -1.9371 C.ar    1  UNL1       -0.0236
     20 S           1.0233    2.0538   -2.4523 S.2     1  UNL1       -0.0934
     21 H          -1.7539   -2.7110    2.6607 H       1  UNL1        0.0630
     22 H          -2.3197   -0.7346    4.1325 H       1  UNL1        0.0623
     23 H          -2.4329    1.6590    2.8999 H       1  UNL1        0.0693
     24 H           2.6419    1.4451    0.6907 H       1  UNL1        0.0630
     25 H           3.2005    3.7650   -0.1919 H       1  UNL1        0.0623
     26 H           2.0879    4.3791   -2.5057 H       1  UNL1        0.0693
@<TRIPOS>UNITY_ATOM_ATTR
10 1
charge 1
12 1
charge -1
@<TRIPOS>BOND
     1     1     2    2
     2     2     3    1
     3     3     4   ar
     4     4     5   ar
     5     5     6   ar
     6     6     7   ar
     7     2     8    1
     8     8     9   ar
     9     9    10   ar
    10    10    11   ar
    11    11    12    1
    12    11    13   ar
    13    13    14    1
    14    14    15    2
    15    14    16    1
    16    16    17   ar
    17    17    18   ar
    18    18    19   ar
    19    19    20   ar
    20     7     3   ar
    21    13     8   ar
    22    20    16   ar
    23     4    21    1
    24     5    22    1
    25     6    23    1
    26    17    24    1
    27    18    25    1
    28    19    26    1
