@<TRIPOS>MOLECULE
*****
 22 22 0 0 0
SMALL
GASTEIGER

@<TRIPOS>ATOM
      1 C          -1.3177   -0.7996    0.5177 C.3     1  UNL1        0.1195
      2 O          -2.2891   -1.5984   -0.0487 O.3     1  UNL1       -0.3861
      3 C          -0.0713   -0.7463   -0.3724 C.3     1  UNL1        0.1122
      4 O           0.5921   -1.9837   -0.2949 O.3     1  UNL1       -0.3865
      5 C           0.8713    0.2853    0.1915 C.3     1  UNL1        0.1133
      6 C           2.1925    0.2202   -0.5519 C.3     1  UNL1        0.0730
      7 O           3.1537    1.0174    0.0488 O.3     1  UNL1       -0.3924
      8 O           0.3571    1.5553    0.2415 O.3     1  UNL1       -0.3365
      9 C          -1.0024    1.6149   -0.0348 C.3     1  UNL1        0.2342
     10 F          -1.4784    2.8698    0.2930 F       1  UNL1       -0.2114
     11 C          -1.8066    0.6023    0.7375 C.3     1  UNL1        0.1842
     12 F          -3.1199    0.7318    0.3273 F       1  UNL1       -0.2371
     13 H          -0.9638   -1.2729    1.4602 H       1  UNL1        0.0651
     14 H          -1.8384   -2.2824   -0.6352 H       1  UNL1        0.2100
     15 H          -0.3209   -0.5019   -1.4197 H       1  UNL1        0.0647
     16 H           0.8037   -2.3102   -1.1926 H       1  UNL1        0.2100
     17 H           1.1174   -0.0606    1.2360 H       1  UNL1        0.0647
     18 H           2.5238   -0.8383   -0.5601 H       1  UNL1        0.0584
     19 H           2.0900    0.5901   -1.5903 H       1  UNL1        0.0584
     20 H           3.4580    0.6488    0.9184 H       1  UNL1        0.2095
     21 H          -1.2001    1.4514   -1.1116 H       1  UNL1        0.0996
     22 H          -1.7511    0.8071    1.8404 H       1  UNL1        0.0733
@<TRIPOS>BOND
     1     1     2    1
     2     1     3    1
     3     3     4    1
     4     3     5    1
     5     5     6    1
     6     6     7    1
     7     5     8    1
     8     8     9    1
     9     9    10    1
    10     9    11    1
    11    11    12    1
    12    11     1    1
    13     1    13    1
    14     2    14    1
    15     3    15    1
    16     4    16    1
    17     5    17    1
    18     6    18    1
    19     6    19    1
    20     7    20    1
    21     9    21    1
    22    11    22    1
