
     RDKit          3D

 22 22  0  0  0  0  0  0  0  0999 V2000
   -1.3177   -0.7996    0.5177 C   0  0  1  0  0  0  0  0  0  0  0  0
   -2.2891   -1.5984   -0.0487 O   0  0  0  0  0  0  0  0  0  0  0  0
   -0.0713   -0.7463   -0.3724 C   0  0  2  0  0  0  0  0  0  0  0  0
    0.5921   -1.9837   -0.2949 O   0  0  0  0  0  0  0  0  0  0  0  0
    0.8713    0.2853    0.1915 C   0  0  1  0  0  0  0  0  0  0  0  0
    2.1925    0.2202   -0.5519 C   0  0  0  0  0  0  0  0  0  0  0  0
    3.1537    1.0174    0.0488 O   0  0  0  0  0  0  0  0  0  0  0  0
    0.3571    1.5553    0.2415 O   0  0  0  0  0  0  0  0  0  0  0  0
   -1.0024    1.6149   -0.0348 C   0  0  0  0  0  0  0  0  0  0  0  0
   -1.4784    2.8698    0.2930 F   0  0  0  0  0  0  0  0  0  0  0  0
   -1.8066    0.6023    0.7375 C   0  0  1  0  0  0  0  0  0  0  0  0
   -3.1199    0.7318    0.3273 F   0  0  0  0  0  0  0  0  0  0  0  0
   -0.9638   -1.2729    1.4602 H   0  0  0  0  0  0  0  0  0  0  0  0
   -1.8384   -2.2824   -0.6352 H   0  0  0  0  0  0  0  0  0  0  0  0
   -0.3209   -0.5019   -1.4197 H   0  0  0  0  0  0  0  0  0  0  0  0
    0.8037   -2.3102   -1.1926 H   0  0  0  0  0  0  0  0  0  0  0  0
    1.1174   -0.0606    1.2360 H   0  0  0  0  0  0  0  0  0  0  0  0
    2.5238   -0.8383   -0.5601 H   0  0  0  0  0  0  0  0  0  0  0  0
    2.0900    0.5901   -1.5903 H   0  0  0  0  0  0  0  0  0  0  0  0
    3.4580    0.6488    0.9184 H   0  0  0  0  0  0  0  0  0  0  0  0
   -1.2001    1.4514   -1.1116 H   0  0  0  0  0  0  0  0  0  0  0  0
   -1.7511    0.8071    1.8404 H   0  0  0  0  0  0  0  0  0  0  0  0
  1  2  1  0
  1  3  1  0
  3  4  1  0
  3  5  1  0
  5  6  1  0
  6  7  1  0
  5  8  1  0
  8  9  1  0
  9 10  1  0
  9 11  1  0
 11 12  1  0
 11  1  1  0
  1 13  1  1
  2 14  1  0
  3 15  1  6
  4 16  1  0
  5 17  1  1
  6 18  1  0
  6 19  1  0
  7 20  1  0
  9 21  1  0
 11 22  1  1
M  END
$$$$
