
     RDKit          3D

 41 44  0  0  0  0  0  0  0  0999 V2000
    6.5007   -1.3435    0.8026 O   0  0  0  0  0  0  0  0  0  0  0  0
    5.6375   -0.5547    0.0649 C   0  0  0  0  0  0  0  0  0  0  0  0
    6.1341    0.3681   -0.8265 C   0  0  0  0  0  0  0  0  0  0  0  0
    5.2452    1.1381   -1.5460 C   0  0  0  0  0  0  0  0  0  0  0  0
    3.8626    1.0005   -1.3886 C   0  0  0  0  0  0  0  0  0  0  0  0
    3.3679    0.0752   -0.4950 C   0  0  0  0  0  0  0  0  0  0  0  0
    1.9319   -0.0852   -0.3154 C   0  0  0  0  0  0  0  0  0  0  0  0
    1.0311    0.9524   -0.4475 C   0  0  0  0  0  0  0  0  0  0  0  0
   -0.3185    0.7320   -0.2655 C   0  0  0  0  0  0  0  0  0  0  0  0
   -0.7698   -0.5333    0.0502 C   0  0  0  0  0  0  0  0  0  0  0  0
   -2.1143   -0.7215    0.2240 C   0  0  0  0  0  0  0  0  0  0  0  0
   -3.0825    0.3761    0.0844 C   0  0  0  0  0  0  0  0  0  0  0  0
   -3.4180    1.1364    1.1899 C   0  0  0  0  0  0  0  0  0  0  0  0
   -4.3222    2.1671    1.0756 C   0  0  0  0  0  0  0  0  0  0  0  0
   -4.8847    2.4277   -0.1518 C   0  0  0  0  0  0  0  0  0  0  0  0
   -4.5498    1.6689   -1.2555 C   0  0  0  0  0  0  0  0  0  0  0  0
   -5.1494    1.9794   -2.4668 O   0  0  0  0  0  0  0  0  0  0  0  0
   -3.6489    0.6409   -1.1441 C   0  0  0  0  0  0  0  0  0  0  0  0
   -2.5571   -1.9924    0.5395 C   0  0  0  0  0  0  0  0  0  0  0  0
   -3.9041   -2.2067    0.7190 O   0  0  0  0  0  0  0  0  0  0  0  0
   -1.6823   -3.0552    0.6794 C   0  0  0  0  0  0  0  0  0  0  0  0
   -0.3244   -2.8781    0.5066 C   0  0  0  0  0  0  0  0  0  0  0  0
    0.1051   -1.6005    0.1911 C   0  0  0  0  0  0  0  0  0  0  0  0
    1.4377   -1.3479    0.0040 C   0  0  0  0  0  0  0  0  0  0  0  0
    4.2614   -0.6910    0.2210 C   0  0  0  0  0  0  0  0  0  0  0  0
    7.0073   -0.9321    1.5763 H   0  0  0  0  0  0  0  0  0  0  0  0
    7.1920    0.5244   -0.9952 H   0  0  0  0  0  0  0  0  0  0  0  0
    5.6412    1.8649   -2.2482 H   0  0  0  0  0  0  0  0  0  0  0  0
    3.1691    1.5895   -1.9390 H   0  0  0  0  0  0  0  0  0  0  0  0
    1.4199    1.9183   -0.6928 H   0  0  0  0  0  0  0  0  0  0  0  0
   -1.0138    1.5306   -0.3663 H   0  0  0  0  0  0  0  0  0  0  0  0
   -2.9793    0.9424    2.1732 H   0  0  0  0  0  0  0  0  0  0  0  0
   -4.5640    2.7475    1.9704 H   0  0  0  0  0  0  0  0  0  0  0  0
   -5.5893    3.2445   -0.1977 H   0  0  0  0  0  0  0  0  0  0  0  0
   -5.5362    2.9174   -2.6253 H   0  0  0  0  0  0  0  0  0  0  0  0
   -3.3957    0.0532   -2.0246 H   0  0  0  0  0  0  0  0  0  0  0  0
   -4.4983   -2.6971    0.0867 H   0  0  0  0  0  0  0  0  0  0  0  0
   -2.0192   -4.0556    0.9265 H   0  0  0  0  0  0  0  0  0  0  0  0
    0.3896   -3.6971    0.6109 H   0  0  0  0  0  0  0  0  0  0  0  0
    2.1208   -2.1778    0.1137 H   0  0  0  0  0  0  0  0  0  0  0  0
    3.8665   -1.4260    0.9307 H   0  0  0  0  0  0  0  0  0  0  0  0
  1  2  1  0
  2  3  2  0
  3  4  1  0
  4  5  2  0
  5  6  1  0
  6  7  1  0
  7  8  2  0
  8  9  1  0
  9 10  2  0
 10 11  1  0
 11 12  1  0
 12 13  2  0
 13 14  1  0
 14 15  2  0
 15 16  1  0
 16 17  1  0
 16 18  2  0
 11 19  2  0
 19 20  1  0
 19 21  1  0
 21 22  2  0
 22 23  1  0
 23 24  2  0
  6 25  2  0
 25  2  1  0
 24  7  1  0
 23 10  1  0
 18 12  1  0
  1 26  1  0
  3 27  1  0
  4 28  1  0
  5 29  1  0
  8 30  1  0
  9 31  1  0
 13 32  1  0
 14 33  1  0
 15 34  1  0
 17 35  1  0
 18 36  1  0
 20 37  1  0
 21 38  1  0
 22 39  1  0
 24 40  1  0
 25 41  1  0
M  END
$$$$
