@<TRIPOS>MOLECULE
*****
 41 44 0 0 0
SMALL
GASTEIGER

@<TRIPOS>ATOM
      1 O           6.5007   -1.3435    0.8026 O.3     1  UNL1       -0.5067
      2 C           5.6375   -0.5547    0.0649 C.ar    1  UNL1        0.1174
      3 C           6.1341    0.3681   -0.8265 C.ar    1  UNL1       -0.0201
      4 C           5.2452    1.1381   -1.5460 C.ar    1  UNL1       -0.0577
      5 C           3.8626    1.0005   -1.3886 C.ar    1  UNL1       -0.0538
      6 C           3.3679    0.0752   -0.4950 C.ar    1  UNL1       -0.0144
      7 C           1.9319   -0.0852   -0.3154 C.ar    1  UNL1       -0.0172
      8 C           1.0311    0.9524   -0.4475 C.ar    1  UNL1       -0.0534
      9 C          -0.3185    0.7320   -0.2655 C.ar    1  UNL1       -0.0528
     10 C          -0.7698   -0.5333    0.0502 C.ar    1  UNL1       -0.0067
     11 C          -2.1143   -0.7215    0.2240 C.ar    1  UNL1        0.0314
     12 C          -3.0825    0.3761    0.0844 C.ar    1  UNL1       -0.0104
     13 C          -3.4180    1.1364    1.1899 C.ar    1  UNL1       -0.0537
     14 C          -4.3222    2.1671    1.0756 C.ar    1  UNL1       -0.0577
     15 C          -4.8847    2.4277   -0.1518 C.ar    1  UNL1       -0.0201
     16 C          -4.5498    1.6689   -1.2555 C.ar    1  UNL1        0.1174
     17 O          -5.1494    1.9794   -2.4668 O.3     1  UNL1       -0.5067
     18 C          -3.6489    0.6409   -1.1441 C.ar    1  UNL1       -0.0123
     19 C          -2.5571   -1.9924    0.5395 C.ar    1  UNL1        0.1251
     20 O          -3.9041   -2.2067    0.7190 O.3     1  UNL1       -0.5061
     21 C          -1.6823   -3.0552    0.6794 C.ar    1  UNL1       -0.0190
     22 C          -0.3244   -2.8781    0.5066 C.ar    1  UNL1       -0.0505
     23 C           0.1051   -1.6005    0.1911 C.ar    1  UNL1       -0.0165
     24 C           1.4377   -1.3479    0.0040 C.ar    1  UNL1       -0.0463
     25 C           4.2614   -0.6910    0.2210 C.ar    1  UNL1       -0.0125
     26 H           7.0073   -0.9321    1.5763 H       1  UNL1        0.2921
     27 H           7.1920    0.5244   -0.9952 H       1  UNL1        0.0654
     28 H           5.6412    1.8649   -2.2482 H       1  UNL1        0.0619
     29 H           3.1691    1.5895   -1.9390 H       1  UNL1        0.0624
     30 H           1.4199    1.9183   -0.6928 H       1  UNL1        0.0624
     31 H          -1.0138    1.5306   -0.3663 H       1  UNL1        0.0624
     32 H          -2.9793    0.9424    2.1732 H       1  UNL1        0.0624
     33 H          -4.5640    2.7475    1.9704 H       1  UNL1        0.0619
     34 H          -5.5893    3.2445   -0.1977 H       1  UNL1        0.0654
     35 H          -5.5362    2.9174   -2.6253 H       1  UNL1        0.2921
     36 H          -3.3957    0.0532   -2.0246 H       1  UNL1        0.0660
     37 H          -4.4983   -2.6971    0.0867 H       1  UNL1        0.2922
     38 H          -2.0192   -4.0556    0.9265 H       1  UNL1        0.0654
     39 H           0.3896   -3.6971    0.6109 H       1  UNL1        0.0625
     40 H           2.1208   -2.1778    0.1137 H       1  UNL1        0.0630
     41 H           3.8665   -1.4260    0.9307 H       1  UNL1        0.0660
@<TRIPOS>BOND
     1     1     2    1
     2     2     3   ar
     3     3     4   ar
     4     4     5   ar
     5     5     6   ar
     6     6     7    1
     7     7     8   ar
     8     8     9   ar
     9     9    10   ar
    10    10    11   ar
    11    11    12    1
    12    12    13   ar
    13    13    14   ar
    14    14    15   ar
    15    15    16   ar
    16    16    17    1
    17    16    18   ar
    18    11    19   ar
    19    19    20    1
    20    19    21   ar
    21    21    22   ar
    22    22    23   ar
    23    23    24   ar
    24     6    25   ar
    25    25     2   ar
    26    24     7   ar
    27    23    10   ar
    28    18    12   ar
    29     1    26    1
    30     3    27    1
    31     4    28    1
    32     5    29    1
    33     8    30    1
    34     9    31    1
    35    13    32    1
    36    14    33    1
    37    15    34    1
    38    17    35    1
    39    18    36    1
    40    20    37    1
    41    21    38    1
    42    22    39    1
    43    24    40    1
    44    25    41    1
