@<TRIPOS>MOLECULE
*****
 54 58 0 0 0
SMALL
GASTEIGER

@<TRIPOS>ATOM
      1 O          -7.2548   -0.7441   -2.1246 O.3     1  UNL1       -0.3947
      2 C          -6.4551    0.3058   -1.7326 C.3     1  UNL1        0.0471
      3 C          -5.4076   -0.1550   -0.7366 C.3     1  UNL1       -0.0150
      4 C          -4.5429    1.0129   -0.3214 C.3     1  UNL1       -0.0322
      5 C          -3.1520    0.5668    0.0760 C.3     1  UNL1        0.0140
      6 N          -3.1592   -0.7829    0.6092 N.pl3   1  UNL1       -0.3110
      7 C          -2.6446   -1.1055    1.8935 C.ar    1  UNL1        0.1839
      8 N          -3.4467   -1.6525    2.8404 N.ar    1  UNL1       -0.2338
      9 C          -2.9869   -1.9667    4.0632 C.ar    1  UNL1        0.0480
     10 C          -1.6619   -1.7179    4.3406 C.ar    1  UNL1        0.0496
     11 N          -0.8831   -1.1754    3.3891 N.ar    1  UNL1       -0.2169
     12 C          -1.3169   -0.8510    2.1566 C.ar    1  UNL1        0.2565
     13 O          -0.5503   -0.2997    1.1710 O.3     1  UNL1       -0.4676
     14 C           0.8120    0.0194    1.2754 C.3     1  UNL1        0.1330
     15 C           1.6117   -0.5842    0.1420 C.3     1  UNL1        0.0522
     16 N           2.3952    0.6352    0.1309 N.pl3   1  UNL1       -0.3080
     17 C           3.7250    0.9288   -0.2837 C.ar    1  UNL1        0.1221
     18 C           4.2612    2.1973   -0.1885 C.ar    1  UNL1       -0.0211
     19 C           5.5571    2.4677   -0.5963 C.ar    1  UNL1       -0.0493
     20 C           6.3544    1.4683   -1.1132 C.ar    1  UNL1        0.0005
     21 C           7.6495    1.7240   -1.5239 C.ar    1  UNL1       -0.0526
     22 C           8.4397    0.7217   -2.0387 C.ar    1  UNL1       -0.0611
     23 C           7.8724   -0.5443   -2.1221 C.ar    1  UNL1       -0.0597
     24 C           6.5850   -0.7926   -1.7125 C.ar    1  UNL1       -0.0357
     25 C           5.7870    0.1981   -1.1975 C.ar    1  UNL1        0.0731
     26 N           4.5240   -0.0256   -0.7909 N.ar    1  UNL1       -0.2320
     27 C           1.2574    1.3221    0.6947 C.3     1  UNL1        0.0522
     28 C          -3.7092   -1.8350   -0.1951 C.3     1  UNL1        0.0140
     29 C          -4.6145   -1.2977   -1.2837 C.3     1  UNL1       -0.0322
     30 H          -8.1045   -0.4345   -2.5227 H       1  UNL1        0.2094
     31 H          -7.1190    1.0623   -1.2403 H       1  UNL1        0.0560
     32 H          -5.9990    0.7923   -2.6082 H       1  UNL1        0.0560
     33 H          -5.9429   -0.5194    0.1728 H       1  UNL1        0.0324
     34 H          -4.4482    1.7250   -1.1619 H       1  UNL1        0.0284
     35 H          -5.0085    1.5626    0.5347 H       1  UNL1        0.0284
     36 H          -2.7803    1.2952    0.8288 H       1  UNL1        0.0464
     37 H          -2.5053    0.5761   -0.8137 H       1  UNL1        0.0464
     38 H          -3.6674   -2.4020    4.7859 H       1  UNL1        0.0846
     39 H          -1.2513   -1.9638    5.3353 H       1  UNL1        0.0846
     40 H           1.2067   -0.2246    2.2621 H       1  UNL1        0.0765
     41 H           2.2033   -1.4746    0.5014 H       1  UNL1        0.0501
     42 H           1.0664   -0.7886   -0.7837 H       1  UNL1        0.0501
     43 H           3.6189    2.9694    0.2204 H       1  UNL1        0.0652
     44 H           5.9754    3.4643   -0.5204 H       1  UNL1        0.0625
     45 H           8.0835    2.7126   -1.4555 H       1  UNL1        0.0624
     46 H           9.4557    0.8825   -2.3698 H       1  UNL1        0.0618
     47 H           8.4635   -1.3559   -2.5215 H       1  UNL1        0.0618
     48 H           6.1930   -1.7873   -1.7973 H       1  UNL1        0.0639
     49 H           1.4990    2.0571    1.4894 H       1  UNL1        0.0501
     50 H           0.5698    1.7770   -0.0468 H       1  UNL1        0.0501
     51 H          -4.3307   -2.4781    0.4595 H       1  UNL1        0.0464
     52 H          -2.8699   -2.4283   -0.6163 H       1  UNL1        0.0464
     53 H          -4.0314   -0.9632   -2.1669 H       1  UNL1        0.0284
     54 H          -5.3226   -2.0938   -1.5762 H       1  UNL1        0.0284
@<TRIPOS>BOND
     1     1     2    1
     2     2     3    1
     3     3     4    1
     4     4     5    1
     5     5     6    1
     6     6     7    1
     7     7     8   ar
     8     8     9   ar
     9     9    10   ar
    10    10    11   ar
    11    11    12   ar
    12    12    13    1
    13    13    14    1
    14    14    15    1
    15    15    16    1
    16    16    17    1
    17    17    18   ar
    18    18    19   ar
    19    19    20   ar
    20    20    21   ar
    21    21    22   ar
    22    22    23   ar
    23    23    24   ar
    24    24    25   ar
    25    25    26   ar
    26    16    27    1
    27     6    28    1
    28    28    29    1
    29    29     3    1
    30    12     7   ar
    31    27    14    1
    32    26    17   ar
    33    25    20   ar
    34     1    30    1
    35     2    31    1
    36     2    32    1
    37     3    33    1
    38     4    34    1
    39     4    35    1
    40     5    36    1
    41     5    37    1
    42     9    38    1
    43    10    39    1
    44    14    40    1
    45    15    41    1
    46    15    42    1
    47    18    43    1
    48    19    44    1
    49    21    45    1
    50    22    46    1
    51    23    47    1
    52    24    48    1
    53    27    49    1
    54    27    50    1
    55    28    51    1
    56    28    52    1
    57    29    53    1
    58    29    54    1
