@<TRIPOS>MOLECULE
*****
 57 60 0 0 0
SMALL
GASTEIGER

@<TRIPOS>ATOM
      1 C          -6.9223    2.8588    2.0568 C.2     1  UNL1       -0.0938
      2 C          -5.9202    2.5645    1.2428 C.2     1  UNL1       -0.0066
      3 C          -5.9708    1.3257    0.4827 C.2     1  UNL1        0.2406
      4 O          -6.9630    0.5751    0.6234 O.2     1  UNL1       -0.2705
      5 N          -4.8912    0.9919   -0.4056 N.am    1  UNL1       -0.2804
      6 C          -4.9862   -0.2302   -1.1274 C.ar    1  UNL1        0.0553
      7 C          -5.5644   -0.3039   -2.3738 C.ar    1  UNL1       -0.0386
      8 C          -5.6322   -1.5421   -3.0245 C.ar    1  UNL1       -0.0596
      9 C          -5.1270   -2.6716   -2.4260 C.ar    1  UNL1       -0.0570
     10 C          -4.5432   -2.6064   -1.1715 C.ar    1  UNL1       -0.0274
     11 C          -3.9905   -3.8180   -0.5100 C.3     1  UNL1       -0.0379
     12 C          -4.4871   -1.3752   -0.5490 C.ar    1  UNL1        0.0580
     13 N          -3.8896   -1.2847    0.7257 N.pl3   1  UNL1       -0.2819
     14 C          -2.4621   -1.0842    0.7378 C.ar    1  UNL1        0.2201
     15 N          -1.6795   -2.0338    1.2905 N.ar    1  UNL1       -0.2220
     16 C          -0.3432   -1.9346    1.3367 C.ar    1  UNL1        0.0404
     17 C           0.2429   -0.8139    0.7945 C.ar    1  UNL1        0.0192
     18 C           1.6180   -0.6926    0.8282 C.ar    1  UNL1       -0.0433
     19 C           2.2415    0.4115    0.2930 C.ar    1  UNL1       -0.0141
     20 C           3.7075    0.5814    0.3128 C.ar    1  UNL1        0.0259
     21 C           4.3480    1.2354    1.3459 C.ar    1  UNL1        0.0918
     22 CL          3.4309    1.8883    2.6638 Cl      1  UNL1       -0.0791
     23 C           5.7292    1.3735    1.3355 C.ar    1  UNL1        0.1425
     24 O           6.3618    2.0442    2.3986 O.3     1  UNL1       -0.4935
     25 C           7.7700    2.1869    2.3891 C.3     1  UNL1        0.0789
     26 C           6.4984    0.8679    0.3053 C.ar    1  UNL1        0.0247
     27 C           5.8586    0.2066   -0.7407 C.ar    1  UNL1        0.1425
     28 O           6.5489   -0.3337   -1.8176 O.3     1  UNL1       -0.4935
     29 C           7.9554   -0.2112   -1.8584 C.3     1  UNL1        0.0789
     30 C           4.4862    0.0740   -0.7225 C.ar    1  UNL1        0.0918
     31 CL          3.6840   -0.7591   -2.0404 Cl      1  UNL1       -0.0791
     32 C           1.4519    1.3907   -0.2764 C.ar    1  UNL1       -0.0519
     33 C           0.0704    1.2793   -0.3151 C.ar    1  UNL1       -0.0350
     34 C          -0.5331    0.1647    0.2269 C.ar    1  UNL1        0.0761
     35 N          -1.8831    0.0076    0.2105 N.ar    1  UNL1       -0.2142
     36 H          -7.7705    2.2143    2.1745 H       1  UNL1        0.0536
     37 H          -6.8879    3.7730    2.6189 H       1  UNL1        0.0536
     38 H          -5.0788    3.2584    1.1624 H       1  UNL1        0.0663
     39 H          -4.1123    1.6671   -0.4620 H       1  UNL1        0.1552
     40 H          -5.9591    0.5786   -2.8411 H       1  UNL1        0.0637
     41 H          -6.0771   -1.6402   -4.0006 H       1  UNL1        0.0618
     42 H          -5.1937   -3.6067   -2.9505 H       1  UNL1        0.0621
     43 H          -2.9402   -4.0032   -0.7913 H       1  UNL1        0.0278
     44 H          -4.1294   -3.7486    0.6045 H       1  UNL1        0.0278
     45 H          -4.6246   -4.6730   -0.8383 H       1  UNL1        0.0278
     46 H          -4.4244   -1.3556    1.6198 H       1  UNL1        0.1551
     47 H           0.2839   -2.6898    1.7774 H       1  UNL1        0.0837
     48 H           2.2309   -1.4769    1.2817 H       1  UNL1        0.0631
     49 H           8.2400    1.1910    2.2792 H       1  UNL1        0.0660
     50 H           8.0659    2.8534    1.5265 H       1  UNL1        0.0660
     51 H           8.1229    2.7226    3.3016 H       1  UNL1        0.0660
     52 H           7.5746    0.9722    0.2913 H       1  UNL1        0.0692
     53 H           8.3005    0.7924   -2.1090 H       1  UNL1        0.0660
     54 H           8.3689   -0.8917   -2.6589 H       1  UNL1        0.0660
     55 H           8.4286   -0.5704   -0.9135 H       1  UNL1        0.0660
     56 H           1.9322    2.2686   -0.7042 H       1  UNL1        0.0624
     57 H          -0.5653    2.0315   -0.7558 H       1  UNL1        0.0639
@<TRIPOS>BOND
     1     1     2    2
     2     2     3    1
     3     3     4    2
     4     3     5   am
     5     5     6    1
     6     6     7   ar
     7     7     8   ar
     8     8     9   ar
     9     9    10   ar
    10    10    11    1
    11    10    12   ar
    12    12    13    1
    13    13    14    1
    14    14    15   ar
    15    15    16   ar
    16    16    17   ar
    17    17    18   ar
    18    18    19   ar
    19    19    20    1
    20    20    21   ar
    21    21    22    1
    22    21    23   ar
    23    23    24    1
    24    24    25    1
    25    23    26   ar
    26    26    27   ar
    27    27    28    1
    28    28    29    1
    29    27    30   ar
    30    30    31    1
    31    19    32   ar
    32    32    33   ar
    33    33    34   ar
    34    34    35   ar
    35    12     6   ar
    36    35    14   ar
    37    34    17   ar
    38    30    20   ar
    39     1    36    1
    40     1    37    1
    41     2    38    1
    42     5    39    1
    43     7    40    1
    44     8    41    1
    45     9    42    1
    46    11    43    1
    47    11    44    1
    48    11    45    1
    49    13    46    1
    50    16    47    1
    51    18    48    1
    52    25    49    1
    53    25    50    1
    54    25    51    1
    55    26    52    1
    56    29    53    1
    57    29    54    1
    58    29    55    1
    59    32    56    1
    60    33    57    1
