
     RDKit          3D

 57 60  0  0  0  0  0  0  0  0999 V2000
   -6.9223    2.8588    2.0568 C   0  0  0  0  0  0  0  0  0  0  0  0
   -5.9202    2.5645    1.2428 C   0  0  0  0  0  0  0  0  0  0  0  0
   -5.9708    1.3257    0.4827 C   0  0  0  0  0  0  0  0  0  0  0  0
   -6.9630    0.5751    0.6234 O   0  0  0  0  0  0  0  0  0  0  0  0
   -4.8912    0.9919   -0.4056 N   0  0  0  0  0  0  0  0  0  0  0  0
   -4.9862   -0.2302   -1.1274 C   0  0  0  0  0  0  0  0  0  0  0  0
   -5.5644   -0.3039   -2.3738 C   0  0  0  0  0  0  0  0  0  0  0  0
   -5.6322   -1.5421   -3.0245 C   0  0  0  0  0  0  0  0  0  0  0  0
   -5.1270   -2.6716   -2.4260 C   0  0  0  0  0  0  0  0  0  0  0  0
   -4.5432   -2.6064   -1.1715 C   0  0  0  0  0  0  0  0  0  0  0  0
   -3.9905   -3.8180   -0.5100 C   0  0  0  0  0  0  0  0  0  0  0  0
   -4.4871   -1.3752   -0.5490 C   0  0  0  0  0  0  0  0  0  0  0  0
   -3.8896   -1.2847    0.7257 N   0  0  0  0  0  0  0  0  0  0  0  0
   -2.4621   -1.0842    0.7378 C   0  0  0  0  0  0  0  0  0  0  0  0
   -1.6795   -2.0338    1.2905 N   0  0  0  0  0  0  0  0  0  0  0  0
   -0.3432   -1.9346    1.3367 C   0  0  0  0  0  0  0  0  0  0  0  0
    0.2429   -0.8139    0.7945 C   0  0  0  0  0  0  0  0  0  0  0  0
    1.6180   -0.6926    0.8282 C   0  0  0  0  0  0  0  0  0  0  0  0
    2.2415    0.4115    0.2930 C   0  0  0  0  0  0  0  0  0  0  0  0
    3.7075    0.5814    0.3128 C   0  0  0  0  0  0  0  0  0  0  0  0
    4.3480    1.2354    1.3459 C   0  0  0  0  0  0  0  0  0  0  0  0
    3.4309    1.8883    2.6638 Cl  0  0  0  0  0  0  0  0  0  0  0  0
    5.7292    1.3735    1.3355 C   0  0  0  0  0  0  0  0  0  0  0  0
    6.3618    2.0442    2.3986 O   0  0  0  0  0  0  0  0  0  0  0  0
    7.7700    2.1869    2.3891 C   0  0  0  0  0  0  0  0  0  0  0  0
    6.4984    0.8679    0.3053 C   0  0  0  0  0  0  0  0  0  0  0  0
    5.8586    0.2066   -0.7407 C   0  0  0  0  0  0  0  0  0  0  0  0
    6.5489   -0.3337   -1.8176 O   0  0  0  0  0  0  0  0  0  0  0  0
    7.9554   -0.2112   -1.8584 C   0  0  0  0  0  0  0  0  0  0  0  0
    4.4862    0.0740   -0.7225 C   0  0  0  0  0  0  0  0  0  0  0  0
    3.6840   -0.7591   -2.0404 Cl  0  0  0  0  0  0  0  0  0  0  0  0
    1.4519    1.3907   -0.2764 C   0  0  0  0  0  0  0  0  0  0  0  0
    0.0704    1.2793   -0.3151 C   0  0  0  0  0  0  0  0  0  0  0  0
   -0.5331    0.1647    0.2269 C   0  0  0  0  0  0  0  0  0  0  0  0
   -1.8831    0.0076    0.2105 N   0  0  0  0  0  0  0  0  0  0  0  0
   -7.7705    2.2143    2.1745 H   0  0  0  0  0  0  0  0  0  0  0  0
   -6.8879    3.7730    2.6189 H   0  0  0  0  0  0  0  0  0  0  0  0
   -5.0788    3.2584    1.1624 H   0  0  0  0  0  0  0  0  0  0  0  0
   -4.1123    1.6671   -0.4620 H   0  0  0  0  0  0  0  0  0  0  0  0
   -5.9591    0.5786   -2.8411 H   0  0  0  0  0  0  0  0  0  0  0  0
   -6.0771   -1.6402   -4.0006 H   0  0  0  0  0  0  0  0  0  0  0  0
   -5.1937   -3.6067   -2.9505 H   0  0  0  0  0  0  0  0  0  0  0  0
   -2.9402   -4.0032   -0.7913 H   0  0  0  0  0  0  0  0  0  0  0  0
   -4.1294   -3.7486    0.6045 H   0  0  0  0  0  0  0  0  0  0  0  0
   -4.6246   -4.6730   -0.8383 H   0  0  0  0  0  0  0  0  0  0  0  0
   -4.4244   -1.3556    1.6198 H   0  0  0  0  0  0  0  0  0  0  0  0
    0.2839   -2.6898    1.7774 H   0  0  0  0  0  0  0  0  0  0  0  0
    2.2309   -1.4769    1.2817 H   0  0  0  0  0  0  0  0  0  0  0  0
    8.2400    1.1910    2.2792 H   0  0  0  0  0  0  0  0  0  0  0  0
    8.0659    2.8534    1.5265 H   0  0  0  0  0  0  0  0  0  0  0  0
    8.1229    2.7226    3.3016 H   0  0  0  0  0  0  0  0  0  0  0  0
    7.5746    0.9722    0.2913 H   0  0  0  0  0  0  0  0  0  0  0  0
    8.3005    0.7924   -2.1090 H   0  0  0  0  0  0  0  0  0  0  0  0
    8.3689   -0.8917   -2.6589 H   0  0  0  0  0  0  0  0  0  0  0  0
    8.4286   -0.5704   -0.9135 H   0  0  0  0  0  0  0  0  0  0  0  0
    1.9322    2.2686   -0.7042 H   0  0  0  0  0  0  0  0  0  0  0  0
   -0.5653    2.0315   -0.7558 H   0  0  0  0  0  0  0  0  0  0  0  0
  1  2  2  3
  2  3  1  0
  3  4  2  0
  3  5  1  0
  5  6  1  0
  6  7  2  0
  7  8  1  0
  8  9  2  0
  9 10  1  0
 10 11  1  0
 10 12  2  0
 12 13  1  0
 13 14  1  0
 14 15  2  0
 15 16  1  0
 16 17  2  0
 17 18  1  0
 18 19  2  0
 19 20  1  0
 20 21  2  0
 21 22  1  0
 21 23  1  0
 23 24  1  0
 24 25  1  0
 23 26  2  0
 26 27  1  0
 27 28  1  0
 28 29  1  0
 27 30  2  0
 30 31  1  0
 19 32  1  0
 32 33  2  0
 33 34  1  0
 34 35  2  0
 12  6  1  0
 35 14  1  0
 34 17  1  0
 30 20  1  0
  1 36  1  0
  1 37  1  0
  2 38  1  0
  5 39  1  0
  7 40  1  0
  8 41  1  0
  9 42  1  0
 11 43  1  0
 11 44  1  0
 11 45  1  0
 13 46  1  0
 16 47  1  0
 18 48  1  0
 25 49  1  0
 25 50  1  0
 25 51  1  0
 26 52  1  0
 29 53  1  0
 29 54  1  0
 29 55  1  0
 32 56  1  0
 33 57  1  0
M  END
$$$$
