@<TRIPOS>MOLECULE
*****
 95 100 0 0 0
SMALL
GASTEIGER

@<TRIPOS>ATOM
      1 C           9.8018    1.5192    3.2470 C.3     1  UNL1        0.0790
      2 O           9.5039    1.3146    1.8798 O.3     1  UNL1       -0.4914
      3 C           8.2454    1.0008    1.4193 C.ar    1  UNL1        0.1618
      4 C           7.1386    0.8524    2.2419 C.ar    1  UNL1       -0.0160
      5 C           5.9073    0.5374    1.7117 C.ar    1  UNL1       -0.0534
      6 C           5.7563    0.3620    0.3272 C.ar    1  UNL1       -0.0255
      7 C           6.8412    0.5077   -0.4722 C.ar    1  UNL1        0.0158
      8 C           8.0713    0.8214    0.0453 C.ar    1  UNL1        0.1667
      9 O           8.9944    0.9072   -1.0154 O.3     1  UNL1       -0.4836
     10 C           8.2494    1.0911   -2.2156 C.3     1  UNL1        0.1161
     11 C           8.9245    0.4974   -3.4213 C.3     1  UNL1        0.0151
     12 C           9.3701   -0.9094   -2.9918 C.3     1  UNL1        0.0768
     13 O           9.9903   -0.8764   -1.7444 O.3     1  UNL1       -0.3876
     14 C           8.0814   -1.6655   -2.8323 C.2     1  UNL1       -0.0588
     15 C           7.0240   -1.0433   -2.3521 C.2     1  UNL1       -0.0715
     16 C           6.9599    0.3692   -1.9358 C.3     1  UNL1        0.0558
     17 C           5.8408    1.1130   -2.6524 C.3     1  UNL1       -0.0235
     18 C           4.8520    1.6712   -1.6468 C.3     1  UNL1        0.0004
     19 N           4.0058    0.5943   -1.2221 N.3     1  UNL1       -0.2981
     20 C           2.7981    0.4804   -1.8723 C.3     1  UNL1       -0.0008
     21 C           1.8208   -0.5652   -1.6020 C.3     1  UNL1       -0.0402
     22 C           1.2486   -0.6318   -0.2130 C.3     1  UNL1       -0.0519
     23 C           0.2200   -1.7601   -0.1189 C.3     1  UNL1       -0.0530
     24 C          -0.3172   -1.7978    1.2999 C.3     1  UNL1       -0.0531
     25 C          -0.9793   -0.5389    1.7358 C.3     1  UNL1       -0.0530
     26 C          -2.1678   -0.1655    0.8974 C.3     1  UNL1       -0.0500
     27 C          -2.7757    1.1370    1.4146 C.3     1  UNL1       -0.0186
     28 C          -3.2145    1.0104    2.8297 C.3     1  UNL1        0.0896
     29 O          -4.1640    0.0612    3.0365 O.3     1  UNL1       -0.4920
     30 C          -5.4373    0.0090    2.5983 C.ar    1  UNL1        0.1205
     31 C          -6.0985    0.9420    1.8508 C.ar    1  UNL1       -0.0196
     32 C          -7.4218    0.7512    1.4647 C.ar    1  UNL1       -0.0539
     33 C          -8.1118   -0.3704    1.8158 C.ar    1  UNL1       -0.0331
     34 C          -9.5370   -0.6177    1.4288 C.3     1  UNL1        0.0240
     35 N          -9.5753   -1.3144    0.1819 N.3     1  UNL1       -0.2982
     36 C         -10.9335   -1.6067   -0.1716 C.3     1  UNL1       -0.0008
     37 C         -11.6933   -0.3799   -0.6262 C.3     1  UNL1       -0.0402
     38 C         -10.9786    0.1227   -1.8759 C.3     1  UNL1       -0.0507
     39 C          -9.5989    0.5578   -1.4223 C.3     1  UNL1       -0.0402
     40 C          -8.8811   -0.6626   -0.8879 C.3     1  UNL1       -0.0008
     41 C          -7.4744   -1.3323    2.5710 C.ar    1  UNL1       -0.0539
     42 C          -6.1784   -1.1359    2.9435 C.ar    1  UNL1       -0.0196
     43 C           4.3119    0.0297    0.0119 C.3     1  UNL1        0.0244
     44 H          10.8941    1.6277    3.3490 H       1  UNL1        0.0660
     45 H           9.4810    0.6524    3.8665 H       1  UNL1        0.0660
     46 H           9.2852    2.4395    3.6251 H       1  UNL1        0.0660
     47 H           7.3087    0.9992    3.3104 H       1  UNL1        0.0655
     48 H           5.0725    0.4318    2.3900 H       1  UNL1        0.0622
     49 H           8.0120    2.1626   -2.3860 H       1  UNL1        0.0746
     50 H           8.1356    0.3299   -4.2029 H       1  UNL1        0.0329
     51 H           9.7580    1.0818   -3.8062 H       1  UNL1        0.0329
     52 H           9.9679   -1.3980   -3.7646 H       1  UNL1        0.0639
     53 H           9.6563   -1.6254   -1.1995 H       1  UNL1        0.2102
     54 H           8.0458   -2.7209   -3.1185 H       1  UNL1        0.0595
     55 H           6.1172   -1.6669   -2.2660 H       1  UNL1        0.0580
     56 H           6.2364    1.9799   -3.2171 H       1  UNL1        0.0290
     57 H           5.2718    0.4272   -3.3308 H       1  UNL1        0.0290
     58 H           5.3408    2.0910   -0.7671 H       1  UNL1        0.0427
     59 H           4.2259    2.4457   -2.1112 H       1  UNL1        0.0427
     60 H           2.9829    0.4858   -2.9964 H       1  UNL1        0.0427
     61 H           2.2468    1.4771   -1.7488 H       1  UNL1        0.0427
     62 H           0.9157   -0.3408   -2.2586 H       1  UNL1        0.0278
     63 H           2.1138   -1.5862   -1.9726 H       1  UNL1        0.0278
     64 H           1.9710   -0.8430    0.5667 H       1  UNL1        0.0266
     65 H           0.6919    0.3286   -0.0552 H       1  UNL1        0.0266
     66 H          -0.5727   -1.5697   -0.8495 H       1  UNL1        0.0265
     67 H           0.7689   -2.7104   -0.2790 H       1  UNL1        0.0265
     68 H          -1.1072   -2.6004    1.3053 H       1  UNL1        0.0265
     69 H           0.4626   -2.1285    1.9831 H       1  UNL1        0.0265
     70 H          -0.3043    0.3352    1.7791 H       1  UNL1        0.0265
     71 H          -1.3373   -0.7004    2.7811 H       1  UNL1        0.0265
     72 H          -1.8970   -0.0157   -0.1588 H       1  UNL1        0.0266
     73 H          -2.9163   -0.9560    0.9751 H       1  UNL1        0.0266
     74 H          -3.5897    1.3843    0.7455 H       1  UNL1        0.0298
     75 H          -2.0088    1.9452    1.3203 H       1  UNL1        0.0298
     76 H          -3.6633    2.0197    3.1012 H       1  UNL1        0.0696
     77 H          -2.3347    0.9395    3.5344 H       1  UNL1        0.0696
     78 H          -5.6006    1.8689    1.5635 H       1  UNL1        0.0654
     79 H          -7.8766    1.5210    0.8814 H       1  UNL1        0.0622
     80 H         -10.0122    0.3919    1.4028 H       1  UNL1        0.0476
     81 H          -9.9955   -1.1906    2.2586 H       1  UNL1        0.0476
     82 H         -11.4338   -1.9835    0.7650 H       1  UNL1        0.0427
     83 H         -10.9360   -2.3708   -0.9781 H       1  UNL1        0.0427
     84 H         -11.6270    0.4028    0.1532 H       1  UNL1        0.0278
     85 H         -12.7397   -0.6904   -0.8365 H       1  UNL1        0.0278
     86 H         -11.5219    0.9535   -2.3616 H       1  UNL1        0.0266
     87 H         -10.8411   -0.7589   -2.5349 H       1  UNL1        0.0266
     88 H          -9.6341    1.4025   -0.7280 H       1  UNL1        0.0278
     89 H          -9.0494    0.8863   -2.3231 H       1  UNL1        0.0278
     90 H          -8.8509   -1.3875   -1.7387 H       1  UNL1        0.0427
     91 H          -7.8324   -0.4664   -0.6297 H       1  UNL1        0.0427
     92 H          -8.0096   -2.2378    2.8628 H       1  UNL1        0.0622
     93 H          -5.7042   -1.9250    3.5452 H       1  UNL1        0.0654
     94 H           3.7581    0.6015    0.8077 H       1  UNL1        0.0476
     95 H           4.2555   -1.0472    0.0859 H       1  UNL1        0.0476
@<TRIPOS>BOND
     1     1     2    1
     2     2     3    1
     3     3     4   ar
     4     4     5   ar
     5     5     6   ar
     6     6     7   ar
     7     7     8   ar
     8     8     9    1
     9     9    10    1
    10    10    11    1
    11    11    12    1
    12    12    13    1
    13    12    14    1
    14    14    15    2
    15    15    16    1
    16    16    17    1
    17    17    18    1
    18    18    19    1
    19    19    20    1
    20    20    21    1
    21    21    22    1
    22    22    23    1
    23    23    24    1
    24    24    25    1
    25    25    26    1
    26    26    27    1
    27    27    28    1
    28    28    29    1
    29    29    30    1
    30    30    31   ar
    31    31    32   ar
    32    32    33   ar
    33    33    34    1
    34    34    35    1
    35    35    36    1
    36    36    37    1
    37    37    38    1
    38    38    39    1
    39    39    40    1
    40    33    41   ar
    41    41    42   ar
    42    19    43    1
    43     8     3   ar
    44    16    10    1
    45    42    30   ar
    46    43     6    1
    47    16     7    1
    48    40    35    1
    49     1    44    1
    50     1    45    1
    51     1    46    1
    52     4    47    1
    53     5    48    1
    54    10    49    1
    55    11    50    1
    56    11    51    1
    57    12    52    1
    58    13    53    1
    59    14    54    1
    60    15    55    1
    61    17    56    1
    62    17    57    1
    63    18    58    1
    64    18    59    1
    65    20    60    1
    66    20    61    1
    67    21    62    1
    68    21    63    1
    69    22    64    1
    70    22    65    1
    71    23    66    1
    72    23    67    1
    73    24    68    1
    74    24    69    1
    75    25    70    1
    76    25    71    1
    77    26    72    1
    78    26    73    1
    79    27    74    1
    80    27    75    1
    81    28    76    1
    82    28    77    1
    83    31    78    1
    84    32    79    1
    85    34    80    1
    86    34    81    1
    87    36    82    1
    88    36    83    1
    89    37    84    1
    90    37    85    1
    91    38    86    1
    92    38    87    1
    93    39    88    1
    94    39    89    1
    95    40    90    1
    96    40    91    1
    97    41    92    1
    98    42    93    1
    99    43    94    1
   100    43    95    1
