@<TRIPOS>MOLECULE
*****
 24 23 0 0 0
SMALL
GASTEIGER

@<TRIPOS>ATOM
      1 C          -1.4893   -0.3963   -1.3708 C.3     1  UNL1       -0.0247
      2 C          -1.0581    0.0015    0.0264 C.3     1  UNL1        0.1724
      3 O          -1.9406   -0.8104    0.8531 O.3     1  UNL1       -0.3769
      4 C           0.2831   -0.4678    0.3974 C.3     1  UNL1        0.1050
      5 C           1.4773   -0.0940   -0.3657 C.3     1  UNL1        0.0609
      6 C           1.8621    1.3237   -0.4489 C.2     1  UNL1        0.3056
      7 O           2.9724    1.4522   -1.2630 O.3     1  UNL1       -0.4806
      8 O           1.6704    2.5320   -0.1298 O.2     1  UNL1       -0.2510
      9 C           0.2601   -1.9712    0.5548 C.2     1  UNL1        0.3117
     10 O           1.3683   -2.7225    0.8955 O.3     1  UNL1       -0.4803
     11 O          -0.8117   -2.6138    0.3735 O.2     1  UNL1       -0.2506
     12 C          -1.4468    1.3757    0.3205 C.2     1  UNL1        0.3373
     13 O          -2.2748    1.8961    1.3291 O.3     1  UNL1       -0.4786
     14 O          -1.2524    2.5594   -0.1229 O.2     1  UNL1       -0.2477
     15 H          -1.2721   -1.4519   -1.5971 H       1  UNL1        0.0263
     16 H          -2.5942   -0.2564   -1.3815 H       1  UNL1        0.0263
     17 H          -1.0891    0.2924   -2.1386 H       1  UNL1        0.0263
     18 H          -1.8317   -0.4819    1.7804 H       1  UNL1        0.2109
     19 H           0.4732   -0.1153    1.4710 H       1  UNL1        0.0453
     20 H           1.4276   -0.4857   -1.4409 H       1  UNL1        0.0387
     21 H           2.3808   -0.6669    0.0298 H       1  UNL1        0.0387
     22 H           3.6193    2.2159   -1.3506 H       1  UNL1        0.2951
     23 H           1.2019   -3.5509    1.4567 H       1  UNL1        0.2951
     24 H          -1.9355    2.4362    2.1214 H       1  UNL1        0.2951
@<TRIPOS>BOND
     1     1     2    1
     2     2     3    1
     3     2     4    1
     4     4     5    1
     5     5     6    1
     6     6     7    1
     7     6     8    2
     8     4     9    1
     9     9    10    1
    10     9    11    2
    11     2    12    1
    12    12    13    1
    13    12    14    2
    14     1    15    1
    15     1    16    1
    16     1    17    1
    17     3    18    1
    18     4    19    1
    19     5    20    1
    20     5    21    1
    21     7    22    1
    22    10    23    1
    23    13    24    1
