@<TRIPOS>MOLECULE
*****
 68 72 0 0 0
SMALL
GASTEIGER

@<TRIPOS>ATOM
      1 C           5.2281    4.1733    2.9292 C.3     1  UNL1        0.0788
      2 O           4.4822    3.1014    2.3799 O.3     1  UNL1       -0.4944
      3 C           5.0687    1.8490    2.3255 C.ar    1  UNL1        0.1316
      4 C           6.3395    1.6074    2.7813 C.ar    1  UNL1       -0.0192
      5 C           6.9359    0.3581    2.7315 C.ar    1  UNL1       -0.0576
      6 C           6.1996   -0.6724    2.1956 C.ar    1  UNL1       -0.0500
      7 C           4.9205   -0.4689    1.7278 C.ar    1  UNL1        0.0367
      8 C           4.3462    0.8055    1.7923 C.ar    1  UNL1        0.0748
      9 C           2.9930    1.0309    1.2995 C.2     1  UNL1        0.2016
     10 O           2.4959    2.1973    1.3696 O.2     1  UNL1       -0.2864
     11 C           2.2028   -0.0642    0.7272 C.ar    1  UNL1        0.0784
     12 C           0.9220    0.1610    0.2636 C.ar    1  UNL1        0.1345
     13 O           0.3234    1.4139    0.3129 O.3     1  UNL1       -0.5057
     14 C           0.2199   -0.8919   -0.2634 C.ar    1  UNL1        0.0302
     15 C           0.7792   -2.1759   -0.3358 C.ar    1  UNL1        0.0070
     16 C           2.0514   -2.4017    0.1240 C.ar    1  UNL1        0.1322
     17 O           2.5957   -3.6803    0.0466 O.3     1  UNL1       -0.5057
     18 C           2.7478   -1.3340    0.6520 C.ar    1  UNL1        0.0782
     19 C           4.1128   -1.5367    1.1547 C.2     1  UNL1        0.1982
     20 O           4.6000   -2.7003    1.0808 O.2     1  UNL1       -0.2865
     21 C          -0.0714   -3.2445   -0.9214 C.3     1  UNL1        0.0123
     22 C          -0.6199   -2.7693   -2.2626 C.3     1  UNL1        0.1325
     23 O           0.4461   -2.9299   -3.1597 O.3     1  UNL1       -0.3806
     24 C          -1.7263   -3.6366   -2.7246 C.2     1  UNL1        0.1900
     25 O          -2.7636   -3.6713   -2.1019 O.2     1  UNL1       -0.2919
     26 C          -1.5858   -4.4643   -3.9378 C.3     1  UNL1        0.1051
     27 O          -2.7587   -5.1996   -4.1727 O.3     1  UNL1       -0.3874
     28 C          -1.0455   -1.3235   -2.2385 C.3     1  UNL1        0.0141
     29 C          -1.1586   -0.8013   -0.8015 C.3     1  UNL1        0.0934
     30 O          -1.7513    0.4091   -0.7201 O.3     1  UNL1       -0.3432
     31 C          -2.9496    0.4472   -0.0387 C.3     1  UNL1        0.1618
     32 C          -2.9781    1.4528    1.0911 C.3     1  UNL1        0.0161
     33 C          -4.3225    2.1950    1.0971 C.3     1  UNL1        0.0382
     34 N          -5.3748    1.2035    1.0238 N.3     1  UNL1       -0.3249
     35 C          -4.3147    3.0555   -0.1533 C.3     1  UNL1        0.0963
     36 O          -5.5846    3.4839   -0.5127 O.3     1  UNL1       -0.3877
     37 C          -3.6898    2.2245   -1.2553 C.3     1  UNL1        0.0861
     38 C          -4.2832    2.6518   -2.5588 C.3     1  UNL1       -0.0361
     39 O          -3.9204    0.8770   -0.9667 O.3     1  UNL1       -0.3457
     40 H           4.5978    5.0900    3.0032 H       1  UNL1        0.0660
     41 H           5.6232    3.8631    3.9326 H       1  UNL1        0.0660
     42 H           6.1074    4.4306    2.3256 H       1  UNL1        0.0660
     43 H           6.9336    2.4232    3.2103 H       1  UNL1        0.0654
     44 H           7.9572    0.2047    3.1071 H       1  UNL1        0.0619
     45 H           6.6557   -1.6490    2.1524 H       1  UNL1        0.0625
     46 H           0.1673    1.8816    1.2123 H       1  UNL1        0.2922
     47 H           2.8158   -4.2442    0.8440 H       1  UNL1        0.2922
     48 H           0.5346   -4.1440   -1.0178 H       1  UNL1        0.0347
     49 H          -0.9408   -3.4305   -0.2355 H       1  UNL1        0.0347
     50 H           0.6441   -3.9107   -3.1779 H       1  UNL1        0.2108
     51 H          -0.7632   -5.2027   -3.8897 H       1  UNL1        0.0637
     52 H          -1.4008   -3.8589   -4.8518 H       1  UNL1        0.0637
     53 H          -3.4301   -4.9331   -3.4915 H       1  UNL1        0.2100
     54 H          -0.2267   -0.7311   -2.6927 H       1  UNL1        0.0326
     55 H          -2.0087   -1.2439   -2.7670 H       1  UNL1        0.0326
     56 H          -1.7758   -1.5596   -0.2778 H       1  UNL1        0.0649
     57 H          -3.2550   -0.5460    0.3488 H       1  UNL1        0.0910
     58 H          -2.2101    2.2330    0.9940 H       1  UNL1        0.0330
     59 H          -2.9029    0.9731    2.0868 H       1  UNL1        0.0330
     60 H          -4.3934    2.7814    2.0125 H       1  UNL1        0.0486
     61 H          -5.8245    1.0148    1.9380 H       1  UNL1        0.1186
     62 H          -6.1092    1.4806    0.3096 H       1  UNL1        0.1186
     63 H          -3.6998    3.9629    0.0574 H       1  UNL1        0.0635
     64 H          -6.1622    3.6661    0.2650 H       1  UNL1        0.2100
     65 H          -2.6011    2.4433   -1.2363 H       1  UNL1        0.0620
     66 H          -4.4189    1.7593   -3.2074 H       1  UNL1        0.0255
     67 H          -3.7227    3.4670   -3.0532 H       1  UNL1        0.0255
     68 H          -5.3029    3.0475   -2.3656 H       1  UNL1        0.0255
@<TRIPOS>BOND
     1     1     2    1
     2     2     3    1
     3     3     4   ar
     4     4     5   ar
     5     5     6   ar
     6     6     7   ar
     7     7     8   ar
     8     8     9    1
     9     9    10    2
    10     9    11    1
    11    11    12   ar
    12    12    13    1
    13    12    14   ar
    14    14    15   ar
    15    15    16   ar
    16    16    17    1
    17    16    18   ar
    18    18    19    1
    19    19    20    2
    20    15    21    1
    21    21    22    1
    22    22    23    1
    23    22    24    1
    24    24    25    2
    25    24    26    1
    26    26    27    1
    27    22    28    1
    28    28    29    1
    29    29    30    1
    30    30    31    1
    31    31    32    1
    32    32    33    1
    33    33    34    1
    34    33    35    1
    35    35    36    1
    36    35    37    1
    37    37    38    1
    38    37    39    1
    39     8     3   ar
    40    18    11   ar
    41    39    31    1
    42    19     7    1
    43    29    14    1
    44     1    40    1
    45     1    41    1
    46     1    42    1
    47     4    43    1
    48     5    44    1
    49     6    45    1
    50    13    46    1
    51    17    47    1
    52    21    48    1
    53    21    49    1
    54    23    50    1
    55    26    51    1
    56    26    52    1
    57    27    53    1
    58    28    54    1
    59    28    55    1
    60    29    56    1
    61    31    57    1
    62    32    58    1
    63    32    59    1
    64    33    60    1
    65    34    61    1
    66    34    62    1
    67    35    63    1
    68    36    64    1
    69    37    65    1
    70    38    66    1
    71    38    67    1
    72    38    68    1
