@<TRIPOS>MOLECULE
*****
 68 71 0 0 0
SMALL
GASTEIGER

@<TRIPOS>ATOM
      1 C           7.4339    1.2573   -2.8198 C.3     1  UNL1       -0.0454
      2 C           6.7432    2.2382   -1.9016 C.3     1  UNL1        0.0425
      3 N           6.5199    1.6554   -0.5979 N.ar    1  UNL1       -0.2292
      4 N           5.3926    1.0056   -0.3885 N.ar    1  UNL1       -0.1682
      5 C           5.1036    0.4236    0.8092 C.ar    1  UNL1        0.0916
      6 C           3.8534   -0.2879    1.0150 C.ar    1  UNL1        0.0021
      7 C           2.9507   -0.3656   -0.0271 C.ar    1  UNL1       -0.0522
      8 C           1.7275   -1.0431    0.0975 C.ar    1  UNL1       -0.0562
      9 C           1.3777   -1.6599    1.2683 C.ar    1  UNL1       -0.0271
     10 C           0.1076   -2.4217    1.4946 C.3     1  UNL1        0.0515
     11 C           0.2905   -3.7999    0.9214 C.3     1  UNL1       -0.0421
     12 N          -1.0606   -1.8196    0.9306 N.am    1  UNL1       -0.2605
     13 C          -2.0727   -1.2558    1.7610 C.3     1  UNL1        0.0224
     14 C          -2.7699   -0.0375    1.1985 C.3     1  UNL1        0.0076
     15 C          -2.9539    0.0221   -0.2525 C.3     1  UNL1        0.1440
     16 C          -3.0434    1.3872   -0.8720 C.3     1  UNL1        0.0199
     17 C          -4.0994    2.3102   -0.5053 C.3     1  UNL1        0.0645
     18 C          -4.1570    2.7225    0.9394 C.3     1  UNL1       -0.0362
     19 C          -3.8777    3.6201   -1.2957 C.3     1  UNL1       -0.0362
     20 O          -5.3932    1.9390   -0.8615 O.3     1  UNL1       -0.3890
     21 C          -4.1042   -0.8062   -0.6920 C.ar    1  UNL1       -0.0040
     22 C          -4.3885   -0.9757   -2.0550 C.ar    1  UNL1       -0.0548
     23 C          -5.4476   -1.7251   -2.5043 C.ar    1  UNL1       -0.0614
     24 C          -6.2771   -2.3440   -1.5908 C.ar    1  UNL1       -0.0617
     25 C          -6.0285   -2.1993   -0.2503 C.ar    1  UNL1       -0.0614
     26 C          -4.9367   -1.4259    0.1820 C.ar    1  UNL1       -0.0548
     27 O          -1.8201   -0.5719   -0.9326 O.3     1  UNL1       -0.4387
     28 C          -1.2449   -1.7588   -0.4695 C.2     1  UNL1        0.4042
     29 O          -0.9101   -2.7170   -1.2319 O.2     1  UNL1       -0.2262
     30 C           2.3012   -1.5727    2.3144 C.ar    1  UNL1       -0.0562
     31 C           3.5076   -0.9027    2.1870 C.ar    1  UNL1       -0.0522
     32 C           6.0470    0.5449    1.7983 C.ar    1  UNL1       -0.0289
     33 C           7.2453    1.2362    1.5750 C.ar    1  UNL1        0.0064
     34 C           7.4655    1.7914    0.3541 C.ar    1  UNL1        0.2673
     35 O           8.5228    2.4353    0.0639 O.2     1  UNL1       -0.2662
     36 H           8.5232    1.2270   -2.7031 H       1  UNL1        0.0247
     37 H           6.9757    0.2383   -2.7320 H       1  UNL1        0.0247
     38 H           7.2370    1.5729   -3.8729 H       1  UNL1        0.0247
     39 H           5.7586    2.4774   -2.3659 H       1  UNL1        0.0507
     40 H           7.3365    3.1611   -1.8711 H       1  UNL1        0.0507
     41 H           3.2059    0.1154   -0.9651 H       1  UNL1        0.0624
     42 H           1.0720   -1.0642   -0.7382 H       1  UNL1        0.0621
     43 H           0.0164   -2.4354    2.6318 H       1  UNL1        0.0549
     44 H          -0.7412   -4.1758    0.6672 H       1  UNL1        0.0251
     45 H           0.8356   -3.7036   -0.0293 H       1  UNL1        0.0251
     46 H           0.7911   -4.4914    1.6287 H       1  UNL1        0.0251
     47 H          -1.5644   -0.9822    2.7391 H       1  UNL1        0.0467
     48 H          -2.7530   -2.0778    2.0548 H       1  UNL1        0.0467
     49 H          -2.0432    0.8094    1.4640 H       1  UNL1        0.0322
     50 H          -3.6601    0.1207    1.8308 H       1  UNL1        0.0322
     51 H          -2.0565    1.9360   -0.7537 H       1  UNL1        0.0335
     52 H          -3.0712    1.2149   -1.9909 H       1  UNL1        0.0335
     53 H          -4.8873    2.1004    1.5351 H       1  UNL1        0.0257
     54 H          -3.1813    2.8430    1.4310 H       1  UNL1        0.0257
     55 H          -4.6249    3.7613    1.0364 H       1  UNL1        0.0257
     56 H          -2.7904    3.7255   -1.4642 H       1  UNL1        0.0257
     57 H          -4.3193    4.4681   -0.7598 H       1  UNL1        0.0257
     58 H          -4.3326    3.4862   -2.3176 H       1  UNL1        0.0257
     59 H          -5.8960    1.5397   -0.1220 H       1  UNL1        0.2101
     60 H          -3.7607   -0.5084   -2.7954 H       1  UNL1        0.0622
     61 H          -5.6407   -1.8360   -3.5655 H       1  UNL1        0.0618
     62 H          -7.1139   -2.9368   -1.9309 H       1  UNL1        0.0618
     63 H          -6.6696   -2.6786    0.4738 H       1  UNL1        0.0618
     64 H          -4.8147   -1.3571    1.2313 H       1  UNL1        0.0622
     65 H           2.0619   -2.0421    3.2411 H       1  UNL1        0.0621
     66 H           4.2005   -0.8621    3.0423 H       1  UNL1        0.0624
     67 H           5.9139    0.1175    2.7886 H       1  UNL1        0.0641
     68 H           7.9882    1.3382    2.3358 H       1  UNL1        0.0673
@<TRIPOS>BOND
     1     1     2    1
     2     2     3    1
     3     3     4   ar
     4     4     5   ar
     5     5     6    1
     6     6     7   ar
     7     7     8   ar
     8     8     9   ar
     9     9    10    1
    10    10    11    1
    11    10    12    1
    12    12    13    1
    13    13    14    1
    14    14    15    1
    15    15    16    1
    16    16    17    1
    17    17    18    1
    18    17    19    1
    19    17    20    1
    20    15    21    1
    21    21    22   ar
    22    22    23   ar
    23    23    24   ar
    24    24    25   ar
    25    25    26   ar
    26    15    27    1
    27    27    28    1
    28    28    29    2
    29     9    30   ar
    30    30    31   ar
    31     5    32   ar
    32    32    33   ar
    33    33    34   ar
    34    34    35    2
    35    34     3   ar
    36    31     6   ar
    37    28    12   am
    38    26    21   ar
    39     1    36    1
    40     1    37    1
    41     1    38    1
    42     2    39    1
    43     2    40    1
    44     7    41    1
    45     8    42    1
    46    10    43    1
    47    11    44    1
    48    11    45    1
    49    11    46    1
    50    13    47    1
    51    13    48    1
    52    14    49    1
    53    14    50    1
    54    16    51    1
    55    16    52    1
    56    18    53    1
    57    18    54    1
    58    18    55    1
    59    19    56    1
    60    19    57    1
    61    19    58    1
    62    20    59    1
    63    22    60    1
    64    23    61    1
    65    24    62    1
    66    25    63    1
    67    26    64    1
    68    30    65    1
    69    31    66    1
    70    32    67    1
    71    33    68    1
