
     RDKit          3D

 45 47  0  0  0  0  0  0  0  0999 V2000
   -2.8447   -2.0530   -6.2461 N   0  0  0  0  0  0  0  0  0  0  0  0
   -3.2347   -2.1242   -4.8803 C   0  0  0  0  0  0  0  0  0  0  0  0
   -4.0270   -3.0557   -4.3043 N   0  0  0  0  0  0  0  0  0  0  0  0
   -4.3262   -3.0179   -2.9973 C   0  0  0  0  0  0  0  0  0  0  0  0
   -3.8456   -2.0349   -2.1772 N   0  0  0  0  0  0  0  0  0  0  0  0
   -3.0452   -1.0876   -2.7421 C   0  0  0  0  0  0  0  0  0  0  0  0
   -2.7259   -1.1028   -4.0666 C   0  0  0  0  0  0  0  0  0  0  0  0
   -1.9305   -0.0498   -4.3151 N   0  0  0  0  0  0  0  0  0  0  0  0
   -1.7676    0.6075   -3.1299 C   0  0  0  0  0  0  0  0  0  0  0  0
   -2.4473   -0.0269   -2.1757 N   0  0  0  0  0  0  0  0  0  0  0  0
   -2.4349    0.4658   -0.8367 C   0  0  1  0  0  0  0  0  0  0  0  0
   -2.9900   -0.5925    0.1267 C   0  0  0  0  0  0  0  0  0  0  0  0
   -2.5189    0.0301    1.4436 C   0  0  0  0  0  0  0  0  0  0  0  0
   -1.5209    1.0787    0.9996 C   0  0  1  0  0  0  0  0  0  0  0  0
   -0.3784    1.0652    1.9564 C   0  0  0  0  0  0  0  0  0  0  0  0
    0.6759    1.8737    1.6154 O   0  0  0  0  0  0  0  0  0  0  0  0
    1.8790    1.6252    2.8018 P   0  0  1  0  0  5  0  0  0  0  0  0
    1.2354    1.7553    4.3616 O   0  0  0  0  0  0  0  0  0  0  0  0
    2.3971    0.1863    2.7022 O   0  0  0  0  0  0  0  0  0  0  0  0
    3.1163    2.7436    2.6599 O   0  0  0  0  0  0  0  0  0  0  0  0
    4.5703    1.8908    2.4936 P   0  0  2  0  0  5  0  0  0  0  0  0
    5.2266    1.5003    4.0089 O   0  0  0  0  0  0  0  0  0  0  0  0
    5.6173    2.6827    1.7458 O   0  0  0  0  0  0  0  0  0  0  0  0
    4.2431    0.4886    1.6086 O   0  0  0  0  0  0  0  0  0  0  0  0
    5.4485   -0.6360    1.8872 P   0  0  0  0  0  0  0  0  0  0  0  0
    6.7703    0.0518    2.7090 O   0  0  0  0  0  0  0  0  0  0  0  0
    5.9774   -1.2256    0.4055 O   0  0  0  0  0  0  0  0  0  0  0  0
    4.9479   -1.7796    2.7396 O   0  0  0  0  0  0  0  0  0  0  0  0
   -1.1955    0.6739   -0.2842 O   0  0  0  0  0  0  0  0  0  0  0  0
   -3.2248   -1.6251   -7.1167 H   0  0  0  0  0  0  0  0  0  0  0  0
   -3.6476   -1.4862   -6.6128 H   0  0  0  0  0  0  0  0  0  0  0  0
   -4.9738   -3.8280   -2.6636 H   0  0  0  0  0  0  0  0  0  0  0  0
   -1.1238    1.4948   -3.2273 H   0  0  0  0  0  0  0  0  0  0  0  0
   -3.0483    1.3707   -0.6545 H   0  0  0  0  0  0  0  0  0  0  0  0
   -4.0729   -0.6736    0.0562 H   0  0  0  0  0  0  0  0  0  0  0  0
   -2.4319   -1.5347    0.0038 H   0  0  0  0  0  0  0  0  0  0  0  0
   -2.0055   -0.7178    2.0695 H   0  0  0  0  0  0  0  0  0  0  0  0
   -3.3548    0.5318    1.9654 H   0  0  0  0  0  0  0  0  0  0  0  0
   -1.9777    2.0827    0.9160 H   0  0  0  0  0  0  0  0  0  0  0  0
    0.0045    0.0406    2.1322 H   0  0  0  0  0  0  0  0  0  0  0  0
   -0.7662    1.4382    2.9289 H   0  0  0  0  0  0  0  0  0  0  0  0
    1.6501    1.0891    4.9882 H   0  0  0  0  0  0  0  0  0  0  0  0
    4.9385    0.5835    4.2976 H   0  0  0  0  0  0  0  0  0  0  0  0
    7.3140   -0.7036    3.0895 H   0  0  0  0  0  0  0  0  0  0  0  0
    5.8488   -0.5084   -0.2822 H   0  0  0  0  0  0  0  0  0  0  0  0
  1  2  1  0
  2  3  2  0
  3  4  1  0
  4  5  2  0
  5  6  1  0
  6  7  2  0
  7  8  1  0
  8  9  2  0
  9 10  1  0
 10 11  1  0
 11 12  1  0
 12 13  1  0
 13 14  1  0
 14 15  1  0
 15 16  1  0
 17 16  1  6
 17 18  1  0
 17 19  2  0
 17 20  1  0
 21 20  1  1
 21 22  1  0
 21 23  2  0
 21 24  1  0
 24 25  1  0
 25 26  1  0
 25 27  1  0
 25 28  2  0
 14 29  1  0
  7  2  1  0
 29 11  1  0
 10  6  1  0
  1 30  1  0
  1 31  1  0
  4 32  1  0
  9 33  1  0
 11 34  1  6
 12 35  1  0
 12 36  1  0
 13 37  1  0
 13 38  1  0
 14 39  1  6
 15 40  1  0
 15 41  1  0
 18 42  1  0
 22 43  1  0
 26 44  1  0
 27 45  1  0
M  END
$$$$
