@<TRIPOS>MOLECULE
*****
 45 47 0 0 0
SMALL
GASTEIGER

@<TRIPOS>ATOM
      1 N          -2.8447   -2.0530   -6.2461 N.pl3   1  UNL1       -0.3413
      2 C          -3.2347   -2.1242   -4.8803 C.ar    1  UNL1        0.1472
      3 N          -4.0270   -3.0557   -4.3043 N.ar    1  UNL1       -0.2188
      4 C          -4.3262   -3.0179   -2.9973 C.ar    1  UNL1        0.1205
      5 N          -3.8456   -2.0349   -2.1772 N.ar    1  UNL1       -0.2159
      6 C          -3.0452   -1.0876   -2.7421 C.ar    1  UNL1        0.1673
      7 C          -2.7259   -1.1028   -4.0666 C.ar    1  UNL1        0.1473
      8 N          -1.9305   -0.0498   -4.3151 N.ar    1  UNL1       -0.2306
      9 C          -1.7676    0.6075   -3.1299 C.ar    1  UNL1        0.1003
     10 N          -2.4473   -0.0269   -2.1757 N.ar    1  UNL1       -0.2880
     11 C          -2.4349    0.4658   -0.8367 C.3     1  UNL1        0.1383
     12 C          -2.9900   -0.5925    0.1267 C.3     1  UNL1       -0.0048
     13 C          -2.5189    0.0301    1.4436 C.3     1  UNL1       -0.0203
     14 C          -1.5209    1.0787    0.9996 C.3     1  UNL1        0.0851
     15 C          -0.3784    1.0652    1.9564 C.3     1  UNL1        0.0853
     16 O           0.6759    1.8737    1.6154 O.3     1  UNL1       -0.2838
     17 P           1.8790    1.6252    2.8018 P.3     1  UNL1        0.4835
     18 O           1.2354    1.7553    4.3616 O.3     1  UNL1       -0.3022
     19 O           2.3971    0.1863    2.7022 O.2     1  UNL1       -0.2269
     20 O           3.1163    2.7436    2.6599 O.3     1  UNL1       -0.1858
     21 P           4.5703    1.8908    2.4936 P.3     1  UNL1        0.4918
     22 O           5.2266    1.5003    4.0089 O.3     1  UNL1       -0.3019
     23 O           5.6173    2.6827    1.7458 O.2     1  UNL1       -0.2265
     24 O           4.2431    0.4886    1.6086 O.3     1  UNL1       -0.1859
     25 P           5.4485   -0.6360    1.8872 P.3     1  UNL1        0.4808
     26 O           6.7703    0.0518    2.7090 O.3     1  UNL1       -0.3023
     27 O           5.9774   -1.2256    0.4055 O.3     1  UNL1       -0.3023
     28 O           4.9479   -1.7796    2.7396 O.2     1  UNL1       -0.2271
     29 O          -1.1955    0.6739   -0.2842 O.3     1  UNL1       -0.3510
     30 H          -3.2248   -1.6251   -7.1167 H       1  UNL1        0.1438
     31 H          -3.6476   -1.4862   -6.6128 H       1  UNL1        0.1438
     32 H          -4.9738   -3.8280   -2.6636 H       1  UNL1        0.1048
     33 H          -1.1238    1.4948   -3.2273 H       1  UNL1        0.1030
     34 H          -3.0483    1.3707   -0.6545 H       1  UNL1        0.0839
     35 H          -4.0729   -0.6736    0.0562 H       1  UNL1        0.0309
     36 H          -2.4319   -1.5347    0.0038 H       1  UNL1        0.0309
     37 H          -2.0055   -0.7178    2.0695 H       1  UNL1        0.0292
     38 H          -3.3548    0.5318    1.9654 H       1  UNL1        0.0292
     39 H          -1.9777    2.0827    0.9160 H       1  UNL1        0.0620
     40 H           0.0045    0.0406    2.1322 H       1  UNL1        0.0591
     41 H          -0.7662    1.4382    2.9289 H       1  UNL1        0.0591
     42 H           1.6501    1.0891    4.9882 H       1  UNL1        0.2220
     43 H           4.9385    0.5835    4.2976 H       1  UNL1        0.2220
     44 H           7.3140   -0.7036    3.0895 H       1  UNL1        0.2220
     45 H           5.8488   -0.5084   -0.2822 H       1  UNL1        0.2220
@<TRIPOS>BOND
     1     1     2    1
     2     2     3   ar
     3     3     4   ar
     4     4     5   ar
     5     5     6   ar
     6     6     7   ar
     7     7     8   ar
     8     8     9   ar
     9     9    10   ar
    10    10    11    1
    11    11    12    1
    12    12    13    1
    13    13    14    1
    14    14    15    1
    15    15    16    1
    16    17    16    1
    17    17    18    1
    18    17    19    2
    19    17    20    1
    20    21    20    1
    21    21    22    1
    22    21    23    2
    23    21    24    1
    24    24    25    1
    25    25    26    1
    26    25    27    1
    27    25    28    2
    28    14    29    1
    29     7     2   ar
    30    29    11    1
    31    10     6   ar
    32     1    30    1
    33     1    31    1
    34     4    32    1
    35     9    33    1
    36    11    34    1
    37    12    35    1
    38    12    36    1
    39    13    37    1
    40    13    38    1
    41    14    39    1
    42    15    40    1
    43    15    41    1
    44    18    42    1
    45    22    43    1
    46    26    44    1
    47    27    45    1
