@<TRIPOS>MOLECULE
*****
 49 52 0 0 0
SMALL
GASTEIGER

@<TRIPOS>ATOM
      1 C           2.1523   -1.4682    0.9068 C.3     1  UNL1       -0.0569
      2 C           2.2763   -0.0188    0.5673 C.3     1  UNL1       -0.0030
      3 C           1.6132    0.8194    1.5993 C.3     1  UNL1       -0.0447
      4 C           0.1323    0.7738    1.6021 C.3     1  UNL1       -0.0486
      5 C          -0.5506    0.5219    0.3312 C.3     1  UNL1       -0.0288
      6 C           0.2356   -0.3007   -0.6723 C.3     1  UNL1       -0.0337
      7 C          -0.4565   -0.3311   -1.9943 C.3     1  UNL1       -0.0459
      8 C          -1.8671   -0.8149   -1.8972 C.3     1  UNL1       -0.0305
      9 C          -2.5942   -0.1360   -0.7654 C.2     1  UNL1       -0.0601
     10 C          -3.7647    0.4081   -0.9893 C.2     1  UNL1       -0.0194
     11 C          -4.4629    1.0637    0.1063 C.2     1  UNL1        0.1561
     12 O          -5.6968    1.1251    0.1966 O.2     1  UNL1       -0.2927
     13 C          -3.5728    1.6806    1.1533 C.3     1  UNL1        0.0107
     14 C          -2.6781    0.5584    1.6235 C.3     1  UNL1       -0.0367
     15 C          -1.9230   -0.1312    0.5470 C.3     1  UNL1       -0.0072
     16 C          -1.7540   -1.5793    0.9659 C.3     1  UNL1       -0.0556
     17 C           1.5807    0.3461   -0.7523 C.3     1  UNL1       -0.0301
     18 C           2.5326   -0.1831   -1.7413 C.3     1  UNL1       -0.0470
     19 C           3.8242    0.4832   -1.2481 C.3     1  UNL1       -0.0261
     20 C           3.6852    0.3587    0.2539 C.3     1  UNL1        0.0609
     21 O           4.5103   -0.7158    0.6483 O.3     1  UNL1       -0.3912
     22 H           1.3141   -1.6634    1.6173 H       1  UNL1        0.0236
     23 H           2.1204   -2.1494    0.0457 H       1  UNL1        0.0236
     24 H           3.0754   -1.7712    1.4846 H       1  UNL1        0.0236
     25 H           1.9646    1.8620    1.4842 H       1  UNL1        0.0271
     26 H           1.9992    0.4796    2.6038 H       1  UNL1        0.0271
     27 H          -0.2244    1.7695    2.0038 H       1  UNL1        0.0268
     28 H          -0.2007    0.0378    2.3836 H       1  UNL1        0.0268
     29 H          -0.7760    1.4942   -0.1872 H       1  UNL1        0.0312
     30 H           0.2839   -1.3326   -0.2851 H       1  UNL1        0.0307
     31 H          -0.3696    0.6241   -2.5561 H       1  UNL1        0.0271
     32 H           0.0972   -1.0823   -2.6314 H       1  UNL1        0.0271
     33 H          -2.3842   -0.5485   -2.8639 H       1  UNL1        0.0310
     34 H          -1.9105   -1.9013   -1.7889 H       1  UNL1        0.0310
     35 H          -4.2416    0.3888   -1.9677 H       1  UNL1        0.0652
     36 H          -3.0004    2.5164    0.7136 H       1  UNL1        0.0345
     37 H          -4.1852    2.0136    1.9962 H       1  UNL1        0.0345
     38 H          -2.0374    0.9572    2.4366 H       1  UNL1        0.0278
     39 H          -3.3539   -0.1896    2.1193 H       1  UNL1        0.0278
     40 H          -1.0739   -1.7145    1.8087 H       1  UNL1        0.0238
     41 H          -2.7785   -1.9193    1.3003 H       1  UNL1        0.0238
     42 H          -1.4717   -2.2520    0.1560 H       1  UNL1        0.0238
     43 H           1.5048    1.4277   -0.7886 H       1  UNL1        0.0310
     44 H           2.7092   -1.2579   -1.6888 H       1  UNL1        0.0269
     45 H           2.3185    0.1534   -2.7800 H       1  UNL1        0.0269
     46 H           3.7885    1.5835   -1.4856 H       1  UNL1        0.0290
     47 H           4.7163   -0.0010   -1.6448 H       1  UNL1        0.0290
     48 H           4.0506    1.2448    0.7953 H       1  UNL1        0.0599
     49 H           4.8435   -1.2293   -0.1142 H       1  UNL1        0.2098
@<TRIPOS>BOND
     1     2     1    1
     2     2     3    1
     3     3     4    1
     4     4     5    1
     5     5     6    1
     6     6     7    1
     7     7     8    1
     8     8     9    1
     9     9    10    2
    10    10    11    1
    11    11    12    2
    12    11    13    1
    13    13    14    1
    14    14    15    1
    15    15    16    1
    16     6    17    1
    17    17    18    1
    18    18    19    1
    19    19    20    1
    20    20    21    1
    21    17     2    1
    22    20     2    1
    23    15     5    1
    24    15     9    1
    25     1    22    1
    26     1    23    1
    27     1    24    1
    28     3    25    1
    29     3    26    1
    30     4    27    1
    31     4    28    1
    32     5    29    1
    33     6    30    1
    34     7    31    1
    35     7    32    1
    36     8    33    1
    37     8    34    1
    38    10    35    1
    39    13    36    1
    40    13    37    1
    41    14    38    1
    42    14    39    1
    43    16    40    1
    44    16    41    1
    45    16    42    1
    46    17    43    1
    47    18    44    1
    48    18    45    1
    49    19    46    1
    50    19    47    1
    51    20    48    1
    52    21    49    1
