
     RDKit          3D

 49 52  0  0  0  0  0  0  0  0999 V2000
    2.1523   -1.4682    0.9068 C   0  0  0  0  0  0  0  0  0  0  0  0
    2.2763   -0.0188    0.5673 C   0  0  2  0  0  0  0  0  0  0  0  0
    1.6132    0.8194    1.5993 C   0  0  0  0  0  0  0  0  0  0  0  0
    0.1323    0.7738    1.6021 C   0  0  0  0  0  0  0  0  0  0  0  0
   -0.5506    0.5219    0.3312 C   0  0  1  0  0  0  0  0  0  0  0  0
    0.2356   -0.3007   -0.6723 C   0  0  1  0  0  0  0  0  0  0  0  0
   -0.4565   -0.3311   -1.9943 C   0  0  0  0  0  0  0  0  0  0  0  0
   -1.8671   -0.8149   -1.8972 C   0  0  0  0  0  0  0  0  0  0  0  0
   -2.5942   -0.1360   -0.7654 C   0  0  0  0  0  0  0  0  0  0  0  0
   -3.7647    0.4081   -0.9893 C   0  0  0  0  0  0  0  0  0  0  0  0
   -4.4629    1.0637    0.1063 C   0  0  0  0  0  0  0  0  0  0  0  0
   -5.6968    1.1251    0.1966 O   0  0  0  0  0  0  0  0  0  0  0  0
   -3.5728    1.6806    1.1533 C   0  0  0  0  0  0  0  0  0  0  0  0
   -2.6781    0.5584    1.6235 C   0  0  0  0  0  0  0  0  0  0  0  0
   -1.9230   -0.1312    0.5470 C   0  0  2  0  0  0  0  0  0  0  0  0
   -1.7540   -1.5793    0.9659 C   0  0  0  0  0  0  0  0  0  0  0  0
    1.5807    0.3461   -0.7523 C   0  0  2  0  0  0  0  0  0  0  0  0
    2.5326   -0.1831   -1.7413 C   0  0  0  0  0  0  0  0  0  0  0  0
    3.8242    0.4832   -1.2481 C   0  0  0  0  0  0  0  0  0  0  0  0
    3.6852    0.3587    0.2539 C   0  0  2  0  0  0  0  0  0  0  0  0
    4.5103   -0.7158    0.6483 O   0  0  0  0  0  0  0  0  0  0  0  0
    1.3141   -1.6634    1.6173 H   0  0  0  0  0  0  0  0  0  0  0  0
    2.1204   -2.1494    0.0457 H   0  0  0  0  0  0  0  0  0  0  0  0
    3.0754   -1.7712    1.4846 H   0  0  0  0  0  0  0  0  0  0  0  0
    1.9646    1.8620    1.4842 H   0  0  0  0  0  0  0  0  0  0  0  0
    1.9992    0.4796    2.6038 H   0  0  0  0  0  0  0  0  0  0  0  0
   -0.2244    1.7695    2.0038 H   0  0  0  0  0  0  0  0  0  0  0  0
   -0.2007    0.0378    2.3836 H   0  0  0  0  0  0  0  0  0  0  0  0
   -0.7760    1.4942   -0.1872 H   0  0  0  0  0  0  0  0  0  0  0  0
    0.2839   -1.3326   -0.2851 H   0  0  0  0  0  0  0  0  0  0  0  0
   -0.3696    0.6241   -2.5561 H   0  0  0  0  0  0  0  0  0  0  0  0
    0.0972   -1.0823   -2.6314 H   0  0  0  0  0  0  0  0  0  0  0  0
   -2.3842   -0.5485   -2.8639 H   0  0  0  0  0  0  0  0  0  0  0  0
   -1.9105   -1.9013   -1.7889 H   0  0  0  0  0  0  0  0  0  0  0  0
   -4.2416    0.3888   -1.9677 H   0  0  0  0  0  0  0  0  0  0  0  0
   -3.0004    2.5164    0.7136 H   0  0  0  0  0  0  0  0  0  0  0  0
   -4.1852    2.0136    1.9962 H   0  0  0  0  0  0  0  0  0  0  0  0
   -2.0374    0.9572    2.4366 H   0  0  0  0  0  0  0  0  0  0  0  0
   -3.3539   -0.1896    2.1193 H   0  0  0  0  0  0  0  0  0  0  0  0
   -1.0739   -1.7145    1.8087 H   0  0  0  0  0  0  0  0  0  0  0  0
   -2.7785   -1.9193    1.3003 H   0  0  0  0  0  0  0  0  0  0  0  0
   -1.4717   -2.2520    0.1560 H   0  0  0  0  0  0  0  0  0  0  0  0
    1.5048    1.4277   -0.7886 H   0  0  0  0  0  0  0  0  0  0  0  0
    2.7092   -1.2579   -1.6888 H   0  0  0  0  0  0  0  0  0  0  0  0
    2.3185    0.1534   -2.7800 H   0  0  0  0  0  0  0  0  0  0  0  0
    3.7885    1.5835   -1.4856 H   0  0  0  0  0  0  0  0  0  0  0  0
    4.7163   -0.0010   -1.6448 H   0  0  0  0  0  0  0  0  0  0  0  0
    4.0506    1.2448    0.7953 H   0  0  0  0  0  0  0  0  0  0  0  0
    4.8435   -1.2293   -0.1142 H   0  0  0  0  0  0  0  0  0  0  0  0
  2  1  1  1
  2  3  1  0
  3  4  1  0
  4  5  1  0
  5  6  1  0
  6  7  1  0
  7  8  1  0
  8  9  1  0
  9 10  2  0
 10 11  1  0
 11 12  2  0
 11 13  1  0
 13 14  1  0
 14 15  1  0
 15 16  1  1
  6 17  1  0
 17 18  1  0
 18 19  1  0
 19 20  1  0
 20 21  1  0
 17  2  1  0
 20  2  1  0
 15  5  1  0
 15  9  1  0
  1 22  1  0
  1 23  1  0
  1 24  1  0
  3 25  1  0
  3 26  1  0
  4 27  1  0
  4 28  1  0
  5 29  1  6
  6 30  1  1
  7 31  1  0
  7 32  1  0
  8 33  1  0
  8 34  1  0
 10 35  1  0
 13 36  1  0
 13 37  1  0
 14 38  1  0
 14 39  1  0
 16 40  1  0
 16 41  1  0
 16 42  1  0
 17 43  1  6
 18 44  1  0
 18 45  1  0
 19 46  1  0
 19 47  1  0
 20 48  1  1
 21 49  1  0
M  END
$$$$
