@<TRIPOS>MOLECULE
*****
 72 75 0 0 0
SMALL
GASTEIGER

@<TRIPOS>ATOM
      1 C           7.8795    2.5664   -0.3116 C.3     1  UNL1       -0.0444
      2 C           6.9028    2.1263    0.7332 C.3     1  UNL1        0.0317
      3 C           7.4732    2.2636    2.1296 C.3     1  UNL1       -0.0444
      4 N           6.5245    0.7468    0.4685 N.ar    1  UNL1       -0.3121
      5 C           5.2373    0.3679    0.4614 C.ar    1  UNL1        0.0159
      6 C           4.8789   -0.9343    0.2137 C.ar    1  UNL1       -0.0015
      7 C           3.4731   -1.3665    0.2026 C.ar    1  UNL1       -0.0165
      8 C           3.0879   -2.4024   -0.6222 C.ar    1  UNL1       -0.0537
      9 C           1.7752   -2.8401   -0.6578 C.ar    1  UNL1       -0.0562
     10 C           0.7999   -2.2606    0.1272 C.ar    1  UNL1       -0.0271
     11 C          -0.6038   -2.7427    0.0856 C.3     1  UNL1        0.0515
     12 C          -0.8406   -3.7441   -0.9976 C.3     1  UNL1       -0.0421
     13 N          -1.5198   -1.6323    0.0144 N.am    1  UNL1       -0.2605
     14 C          -1.5510   -0.7007   -1.1146 C.3     1  UNL1        0.0224
     15 C          -2.9647   -0.6802   -1.5963 C.3     1  UNL1        0.0076
     16 C          -3.8926   -0.0436   -0.5509 C.3     1  UNL1        0.1440
     17 C          -5.2446   -0.6000   -0.8016 C.3     1  UNL1        0.0199
     18 C          -6.3464   -0.1765    0.0890 C.3     1  UNL1        0.0645
     19 C          -6.0962   -0.5189    1.5489 C.3     1  UNL1       -0.0362
     20 C          -6.8347    1.2270   -0.0599 C.3     1  UNL1       -0.0362
     21 O          -7.4627   -0.9958   -0.2607 O.3     1  UNL1       -0.3890
     22 C          -3.7573    1.4162   -0.7631 C.ar    1  UNL1       -0.0040
     23 C          -4.4166    2.1109   -1.7508 C.ar    1  UNL1       -0.0548
     24 C          -4.2947    3.4607   -1.9457 C.ar    1  UNL1       -0.0614
     25 C          -3.4777    4.1920   -1.1284 C.ar    1  UNL1       -0.0617
     26 C          -2.7953    3.5483   -0.1251 C.ar    1  UNL1       -0.0614
     27 C          -2.9285    2.1957    0.0566 C.ar    1  UNL1       -0.0548
     28 O          -3.4196   -0.3024    0.7597 O.3     1  UNL1       -0.4387
     29 C          -2.4899   -1.3288    1.0248 C.2     1  UNL1        0.4042
     30 O          -2.4704   -1.9828    2.0911 O.2     1  UNL1       -0.2262
     31 C           1.1785   -1.2250    0.9528 C.ar    1  UNL1       -0.0562
     32 C           2.4964   -0.7906    0.9843 C.ar    1  UNL1       -0.0537
     33 C           5.8941   -1.8443   -0.0290 C.ar    1  UNL1       -0.0475
     34 C           7.2132   -1.4686   -0.0244 C.ar    1  UNL1        0.0036
     35 C           7.5050   -0.1490    0.2306 C.ar    1  UNL1        0.2515
     36 O           8.6974    0.2410    0.2452 O.2     1  UNL1       -0.2677
     37 H           7.6497    3.6282   -0.6191 H       1  UNL1        0.0249
     38 H           8.9320    2.5566    0.0929 H       1  UNL1        0.0249
     39 H           7.7855    1.9394   -1.2137 H       1  UNL1        0.0249
     40 H           6.0127    2.7827    0.6770 H       1  UNL1        0.0523
     41 H           8.0608    1.3710    2.4361 H       1  UNL1        0.0249
     42 H           6.6172    2.4251    2.8245 H       1  UNL1        0.0249
     43 H           8.1049    3.1715    2.1891 H       1  UNL1        0.0249
     44 H           4.4223    1.0762    0.6514 H       1  UNL1        0.0816
     45 H           3.8364   -2.8733   -1.2485 H       1  UNL1        0.0624
     46 H           1.4583   -3.6543   -1.3013 H       1  UNL1        0.0621
     47 H          -0.8435   -3.2608    1.0630 H       1  UNL1        0.0549
     48 H          -0.4999   -4.7558   -0.7081 H       1  UNL1        0.0251
     49 H          -0.4537   -3.4298   -1.9867 H       1  UNL1        0.0251
     50 H          -1.9585   -3.8127   -1.1359 H       1  UNL1        0.0251
     51 H          -1.2624    0.2886   -0.7298 H       1  UNL1        0.0467
     52 H          -0.8689   -1.0364   -1.9236 H       1  UNL1        0.0467
     53 H          -3.2970   -1.7071   -1.8139 H       1  UNL1        0.0322
     54 H          -3.0579   -0.1033   -2.5328 H       1  UNL1        0.0322
     55 H          -5.2432   -1.7335   -0.7917 H       1  UNL1        0.0335
     56 H          -5.5307   -0.3523   -1.8452 H       1  UNL1        0.0335
     57 H          -5.5126    0.2675    2.0679 H       1  UNL1        0.0257
     58 H          -7.0863   -0.5529    2.0552 H       1  UNL1        0.0257
     59 H          -5.6481   -1.5175    1.6341 H       1  UNL1        0.0257
     60 H          -6.2235    1.9959    0.4567 H       1  UNL1        0.0257
     61 H          -7.1117    1.4580   -1.0901 H       1  UNL1        0.0257
     62 H          -7.8261    1.2553    0.5046 H       1  UNL1        0.0257
     63 H          -7.0779   -1.9273   -0.2070 H       1  UNL1        0.2101
     64 H          -5.0776    1.5325   -2.4156 H       1  UNL1        0.0622
     65 H          -4.8360    3.9407   -2.7331 H       1  UNL1        0.0618
     66 H          -3.3703    5.2718   -1.2723 H       1  UNL1        0.0618
     67 H          -2.1544    4.1323    0.5115 H       1  UNL1        0.0618
     68 H          -2.4039    1.6709    0.8404 H       1  UNL1        0.0622
     69 H           0.4230   -0.7520    1.5813 H       1  UNL1        0.0621
     70 H           2.8096    0.0239    1.6299 H       1  UNL1        0.0624
     71 H           5.5967   -2.8649   -0.2221 H       1  UNL1        0.0626
     72 H           8.0254   -2.1869   -0.2167 H       1  UNL1        0.0672
@<TRIPOS>BOND
     1     1     2    1
     2     2     3    1
     3     2     4    1
     4     4     5   ar
     5     5     6   ar
     6     6     7    1
     7     7     8   ar
     8     8     9   ar
     9     9    10   ar
    10    10    11    1
    11    11    12    1
    12    11    13    1
    13    13    14    1
    14    14    15    1
    15    15    16    1
    16    16    17    1
    17    17    18    1
    18    18    19    1
    19    18    20    1
    20    18    21    1
    21    16    22    1
    22    22    23   ar
    23    23    24   ar
    24    24    25   ar
    25    25    26   ar
    26    26    27   ar
    27    16    28    1
    28    28    29    1
    29    29    30    2
    30    10    31   ar
    31    31    32   ar
    32     6    33   ar
    33    33    34   ar
    34    34    35   ar
    35    35    36    2
    36    35     4   ar
    37    32     7   ar
    38    29    13   am
    39    27    22   ar
    40     1    37    1
    41     1    38    1
    42     1    39    1
    43     2    40    1
    44     3    41    1
    45     3    42    1
    46     3    43    1
    47     5    44    1
    48     8    45    1
    49     9    46    1
    50    11    47    1
    51    12    48    1
    52    12    49    1
    53    12    50    1
    54    14    51    1
    55    14    52    1
    56    15    53    1
    57    15    54    1
    58    17    55    1
    59    17    56    1
    60    19    57    1
    61    19    58    1
    62    19    59    1
    63    20    60    1
    64    20    61    1
    65    20    62    1
    66    21    63    1
    67    23    64    1
    68    24    65    1
    69    25    66    1
    70    26    67    1
    71    27    68    1
    72    31    69    1
    73    32    70    1
    74    33    71    1
    75    34    72    1
