@<TRIPOS>MOLECULE
*****
 61 65 0 0 0
SMALL
GASTEIGER

@<TRIPOS>ATOM
      1 O           0.2566    3.2732    2.2748 O.2     1  UNL1       -0.2817
      2 C          -0.3643    2.6739    1.3665 C.2     1  UNL1        0.2496
      3 C          -1.5531    3.1573    0.6851 C.2     1  UNL1        0.2915
      4 O          -2.1860    4.2219    0.8457 O.2     1  UNL1       -0.2661
      5 N          -1.9367    2.1705   -0.2758 N.am    1  UNL1       -0.2598
      6 C          -3.0501    2.1976   -1.1937 C.3     1  UNL1        0.0452
      7 C          -4.2954    1.6392   -0.6496 C.ar    1  UNL1       -0.0295
      8 C          -4.6403    0.3275   -0.7658 C.ar    1  UNL1       -0.0536
      9 C          -5.8297   -0.1136   -0.2236 C.ar    1  UNL1       -0.0196
     10 C          -6.7213    0.6915    0.4438 C.ar    1  UNL1        0.1206
     11 O          -7.9168    0.3087    0.9964 O.3     1  UNL1       -0.4894
     12 C          -8.5613   -0.8920    1.0214 C.3     1  UNL1        0.1177
     13 C          -8.9879   -1.3322   -0.3560 C.3     1  UNL1        0.1241
     14 F          -9.6272   -2.5630   -0.3081 F       1  UNL1       -0.2455
     15 C          -6.3216    2.0393    0.5394 C.ar    1  UNL1       -0.0196
     16 C          -5.1465    2.4906    0.0079 C.ar    1  UNL1       -0.0536
     17 C          -1.0067    1.0959   -0.1945 C.ar    1  UNL1        0.0481
     18 C          -0.8727   -0.1146   -0.8693 C.ar    1  UNL1       -0.0377
     19 C           0.1450   -1.0008   -0.5938 C.ar    1  UNL1       -0.0335
     20 C           1.0892   -0.7317    0.3712 C.ar    1  UNL1        0.1063
     21 S           2.3833   -1.8568    0.7230 S.O2    1  UNL1        0.0612
     22 O           2.7644   -1.6676    2.1805 O.2     1  UNL1       -0.1528
     23 O           1.9005   -3.2879    0.6127 O.2     1  UNL1       -0.1528
     24 N           3.7737   -1.5924   -0.2118 N.3     1  UNL1       -0.1702
     25 C           3.6630   -1.7170   -1.6262 C.3     1  UNL1        0.0225
     26 C           4.9994   -2.4066   -1.6663 C.3     1  UNL1       -0.0180
     27 C           4.6992   -2.6681   -0.1874 C.3     1  UNL1        0.0671
     28 C           5.9566   -2.6051    0.6054 C.3     1  UNL1        0.1068
     29 O           6.8431   -1.6366    0.3298 O.3     1  UNL1       -0.4888
     30 C           6.9062   -0.3063    0.4200 C.ar    1  UNL1        0.1386
     31 C           5.9042    0.4638    0.9476 C.ar    1  UNL1       -0.0170
     32 C           6.0832    1.8414    0.9810 C.ar    1  UNL1       -0.0401
     33 C           7.2049    2.4566    0.5163 C.ar    1  UNL1        0.0278
     34 N           8.1674    1.6756    0.0076 N.ar    1  UNL1       -0.2596
     35 C           8.0696    0.3518   -0.0594 C.ar    1  UNL1        0.0692
     36 C           0.9618    0.4656    1.0429 C.ar    1  UNL1       -0.0226
     37 C          -0.0638    1.3701    0.7726 C.ar    1  UNL1        0.0502
     38 H          -2.8207    1.6807   -2.1581 H       1  UNL1        0.0518
     39 H          -3.2075    3.2717   -1.4650 H       1  UNL1        0.0518
     40 H          -3.9865   -0.4007   -1.2891 H       1  UNL1        0.0622
     41 H          -6.0649   -1.1752   -0.3082 H       1  UNL1        0.0654
     42 H          -9.4460   -0.7984    1.7067 H       1  UNL1        0.0723
     43 H          -7.8590   -1.6513    1.4798 H       1  UNL1        0.0723
     44 H          -8.1558   -1.2971   -1.0499 H       1  UNL1        0.0649
     45 H          -9.7091   -0.5462   -0.7161 H       1  UNL1        0.0649
     46 H          -6.9888    2.7157    1.0570 H       1  UNL1        0.0654
     47 H          -4.8813    3.5671    0.1135 H       1  UNL1        0.0622
     48 H          -1.6257   -0.3131   -1.6312 H       1  UNL1        0.0637
     49 H           0.1978   -1.9221   -1.1485 H       1  UNL1        0.0638
     50 H           2.8092   -2.2506   -2.0355 H       1  UNL1        0.0444
     51 H           3.7628   -0.7000   -2.1034 H       1  UNL1        0.0444
     52 H           4.9223   -3.3450   -2.2425 H       1  UNL1        0.0295
     53 H           5.8707   -1.7735   -1.8552 H       1  UNL1        0.0295
     54 H           4.1889   -3.6599   -0.0375 H       1  UNL1        0.0514
     55 H           5.6974   -2.6852    1.7158 H       1  UNL1        0.0713
     56 H           6.4787   -3.6151    0.4475 H       1  UNL1        0.0713
     57 H           4.9792    0.0418    1.3735 H       1  UNL1        0.0655
     58 H           5.2593    2.4280    1.4096 H       1  UNL1        0.0634
     59 H           7.3278    3.5509    0.5517 H       1  UNL1        0.0829
     60 H           8.8743   -0.2413   -0.4797 H       1  UNL1        0.0867
     61 H           1.6870    0.6990    1.8014 H       1  UNL1        0.0645
@<TRIPOS>BOND
     1     1     2    2
     2     2     3    1
     3     3     4    2
     4     3     5   am
     5     5     6    1
     6     6     7    1
     7     7     8   ar
     8     8     9   ar
     9     9    10   ar
    10    10    11    1
    11    11    12    1
    12    12    13    1
    13    13    14    1
    14    10    15   ar
    15    15    16   ar
    16     5    17    1
    17    17    18   ar
    18    18    19   ar
    19    19    20   ar
    20    20    21    1
    21    21    22    2
    22    21    23    2
    23    21    24    1
    24    24    25    1
    25    25    26    1
    26    26    27    1
    27    27    28    1
    28    28    29    1
    29    29    30    1
    30    30    31   ar
    31    31    32   ar
    32    32    33   ar
    33    33    34   ar
    34    34    35   ar
    35    20    36   ar
    36    36    37   ar
    37    37     2    1
    38    16     7   ar
    39    37    17   ar
    40    27    24    1
    41    35    30   ar
    42     6    38    1
    43     6    39    1
    44     8    40    1
    45     9    41    1
    46    12    42    1
    47    12    43    1
    48    13    44    1
    49    13    45    1
    50    15    46    1
    51    16    47    1
    52    18    48    1
    53    19    49    1
    54    25    50    1
    55    25    51    1
    56    26    52    1
    57    26    53    1
    58    27    54    1
    59    28    55    1
    60    28    56    1
    61    31    57    1
    62    32    58    1
    63    33    59    1
    64    35    60    1
    65    36    61    1
