@<TRIPOS>MOLECULE
*****
 14 13 0 0 0
SMALL
GASTEIGER

@<TRIPOS>ATOM
      1 C           1.3201    0.7543    0.3703 C.3     1  UNL1       -0.0648
      2 C           0.8900   -0.6996    0.3223 C.3     1  UNL1       -0.0458
      3 C          -0.2790   -0.8956   -0.6335 C.3     1  UNL1        0.0445
      4 C          -1.4385   -0.0869   -0.2071 C.2     1  UNL1        0.3047
      5 O          -1.6053    1.2870   -0.1707 O.3     1  UNL1       -0.4806
      6 O          -2.5085   -0.6501    0.2192 O.2     1  UNL1       -0.2510
      7 H           1.0473    1.2535    1.3134 H       1  UNL1        0.0230
      8 H           0.8984    1.3493   -0.4648 H       1  UNL1        0.0230
      9 H           2.4308    0.8493    0.2840 H       1  UNL1        0.0230
     10 H           1.7598   -1.3083    0.0417 H       1  UNL1        0.0268
     11 H           0.5211   -0.9650    1.3433 H       1  UNL1        0.0268
     12 H          -0.5625   -1.9597   -0.5519 H       1  UNL1        0.0377
     13 H           0.0082   -0.7012   -1.6781 H       1  UNL1        0.0377
     14 H          -2.4821    1.7730   -0.2179 H       1  UNL1        0.2951
@<TRIPOS>BOND
     1     1     2    1
     2     2     3    1
     3     3     4    1
     4     4     5    1
     5     4     6    2
     6     1     7    1
     7     1     8    1
     8     1     9    1
     9     2    10    1
    10     2    11    1
    11     3    12    1
    12     3    13    1
    13     5    14    1
