@<TRIPOS>MOLECULE
*****
 32 34 0 0 0
SMALL
GASTEIGER

@<TRIPOS>ATOM
      1 O           2.1728    2.6456    1.1350 O.2     1  UNL1       -0.2830
      2 C           1.6340    1.5928    0.6787 C.ar    1  UNL1        0.2379
      3 C           0.2446    1.4884    0.5712 C.ar    1  UNL1        0.2082
      4 O          -0.4447    2.6134    0.9999 O.3     1  UNL1       -0.5007
      5 C          -0.3910    0.3856    0.0901 C.ar    1  UNL1        0.1807
      6 C          -1.8237    0.2532   -0.0309 C.ar    1  UNL1        0.0247
      7 C          -2.7512    1.1887    0.3090 C.ar    1  UNL1       -0.0473
      8 C          -4.1317    0.9876    0.1623 C.ar    1  UNL1       -0.0159
      9 C          -4.5798   -0.1935   -0.3423 C.ar    1  UNL1        0.1583
     10 O          -5.9320   -0.4816   -0.5233 O.3     1  UNL1       -0.5033
     11 C          -3.6861   -1.1763   -0.7031 C.ar    1  UNL1        0.1589
     12 O          -4.1485   -2.3869   -1.2204 O.3     1  UNL1       -0.5033
     13 C          -2.3420   -0.9520   -0.5486 C.ar    1  UNL1       -0.0057
     14 O           0.3905   -0.6307   -0.2898 O.2     1  UNL1       -0.4507
     15 C           1.6911   -0.5895   -0.2123 C.ar    1  UNL1        0.1465
     16 C           2.4833   -1.6634   -0.6152 C.ar    1  UNL1        0.0231
     17 C           3.8601   -1.6361   -0.5399 C.ar    1  UNL1        0.1239
     18 O           4.6251   -2.7398   -0.9563 O.3     1  UNL1       -0.5065
     19 C           4.5032   -0.5177   -0.0520 C.ar    1  UNL1        0.0223
     20 C           3.7510    0.5638    0.3559 C.ar    1  UNL1        0.1348
     21 O           4.3226    1.7182    0.8553 O.3     1  UNL1       -0.5058
     22 C           2.3720    0.5090    0.2692 C.ar    1  UNL1        0.1092
     23 H          -0.0950    3.5355    0.8020 H       1  UNL1        0.2924
     24 H          -2.4256    2.1361    0.7121 H       1  UNL1        0.0626
     25 H          -4.7909    1.7772    0.4549 H       1  UNL1        0.0655
     26 H          -6.6760    0.0749   -0.1441 H       1  UNL1        0.2923
     27 H          -3.6023   -3.2168   -0.9947 H       1  UNL1        0.2923
     28 H          -1.6243   -1.7097   -0.8254 H       1  UNL1        0.0662
     29 H           2.0088   -2.5446   -0.9982 H       1  UNL1        0.0691
     30 H           5.3195   -3.1183   -0.3161 H       1  UNL1        0.2921
     31 H           5.5916   -0.4541    0.0247 H       1  UNL1        0.0691
     32 H           4.4748    2.5411    0.2643 H       1  UNL1        0.2922
@<TRIPOS>BOND
     1     1     2    2
     2     2     3   ar
     3     3     4    1
     4     3     5   ar
     5     5     6    1
     6     6     7   ar
     7     7     8   ar
     8     8     9   ar
     9     9    10    1
    10     9    11   ar
    11    11    12    1
    12    11    13   ar
    13     5    14   ar
    14    14    15   ar
    15    15    16   ar
    16    16    17   ar
    17    17    18    1
    18    17    19   ar
    19    19    20   ar
    20    20    21    1
    21    20    22   ar
    22    22     2   ar
    23    13     6   ar
    24    22    15   ar
    25     4    23    1
    26     7    24    1
    27     8    25    1
    28    10    26    1
    29    12    27    1
    30    13    28    1
    31    16    29    1
    32    18    30    1
    33    19    31    1
    34    21    32    1
