@<TRIPOS>MOLECULE
*****
 60 62 0 0 0
SMALL
GASTEIGER

@<TRIPOS>ATOM
      1 C           7.1811    1.2955    2.3488 C.3     1  UNL1       -0.0453
      2 C           7.7576    1.5857    0.9761 C.3     1  UNL1        0.0697
      3 S           6.4178    2.1661   -0.0589 S.O2    1  UNL1        0.0136
      4 O           5.8533    3.3789    0.6057 O.2     1  UNL1       -0.1679
      5 O           6.8945    2.5459   -1.4180 O.2     1  UNL1       -0.1679
      6 C           5.2057    0.8820   -0.1276 C.ar    1  UNL1        0.1769
      7 C           3.9147    1.0820    0.3119 C.ar    1  UNL1       -0.0090
      8 C           3.0038    0.0484    0.2377 C.ar    1  UNL1        0.0047
      9 C           1.6546   -0.0617    0.5930 C.ar    1  UNL1       -0.0332
     10 C           1.1693   -1.3099    0.3243 C.ar    1  UNL1        0.0200
     11 C          -0.1306   -1.9627    0.5452 C.3     1  UNL1        0.0250
     12 C          -1.1009   -1.9902   -0.6010 C.3     1  UNL1        0.1664
     13 O          -0.3905   -2.6433   -1.6600 O.3     1  UNL1       -0.3793
     14 C          -1.6252   -0.7830   -1.1671 C.3     1  UNL1       -0.0059
     15 C          -2.4586    0.2310   -0.4497 C.3     1  UNL1       -0.0062
     16 C          -2.6019    1.2849   -1.7307 C.3     1  UNL1       -0.0557
     17 C          -1.6426    1.0642    0.3922 C.3     1  UNL1       -0.0557
     18 C          -3.8717   -0.0338   -0.3379 C.ar    1  UNL1       -0.0295
     19 C          -4.3888   -0.9961   -1.2159 C.ar    1  UNL1       -0.0573
     20 C          -5.7387   -1.1843   -1.3485 C.ar    1  UNL1       -0.0614
     21 C          -6.6390   -0.4400   -0.6308 C.ar    1  UNL1       -0.0610
     22 C          -6.1590    0.5039    0.2328 C.ar    1  UNL1       -0.0494
     23 C          -4.7659    0.6915    0.3684 C.ar    1  UNL1        0.0402
     24 C          -4.4612    1.6194    1.4566 C.2     1  UNL1        0.2418
     25 N          -5.2079    2.8117    1.6580 N.am    1  UNL1       -0.3253
     26 O          -3.5380    1.3816    2.2300 O.2     1  UNL1       -0.2704
     27 C          -2.0456   -3.1393   -0.2495 C.3     1  UNL1        0.4186
     28 F          -2.7528   -3.0191    0.8742 F       1  UNL1       -0.1676
     29 F          -1.1003   -4.1704    0.1121 F       1  UNL1       -0.1676
     30 F          -2.6257   -3.7268   -1.3352 F       1  UNL1       -0.1676
     31 N           2.2537   -1.9765   -0.2075 N.ar    1  UNL1       -0.3566
     32 C           3.3257   -1.1903   -0.2606 C.ar    1  UNL1        0.0651
     33 C           4.6390   -1.3534   -0.6945 C.ar    1  UNL1        0.0536
     34 N           5.5084   -0.3326   -0.6125 N.ar    1  UNL1       -0.2348
     35 H           6.1187    1.0284    2.2264 H       1  UNL1        0.0245
     36 H           7.6761    0.3779    2.7657 H       1  UNL1        0.0245
     37 H           7.3259    2.1604    3.0501 H       1  UNL1        0.0245
     38 H           8.0625    0.5985    0.5499 H       1  UNL1        0.0502
     39 H           8.5833    2.3017    1.0074 H       1  UNL1        0.0502
     40 H           3.6233    2.0293    0.7061 H       1  UNL1        0.0659
     41 H           1.1331    0.7679    1.0353 H       1  UNL1        0.0641
     42 H           0.1183   -3.0243    0.8766 H       1  UNL1        0.0358
     43 H          -0.5513   -1.5176    1.4680 H       1  UNL1        0.0358
     44 H          -0.9885   -2.6891   -2.4457 H       1  UNL1        0.2106
     45 H          -0.6827   -0.1587   -1.4312 H       1  UNL1        0.0304
     46 H          -2.0382   -0.9118   -2.1964 H       1  UNL1        0.0304
     47 H          -1.5783    1.5578   -1.9898 H       1  UNL1        0.0238
     48 H          -3.1224    2.1509   -1.3287 H       1  UNL1        0.0238
     49 H          -3.0627    0.7180   -2.5214 H       1  UNL1        0.0238
     50 H          -1.8981    2.1532    0.4906 H       1  UNL1        0.0238
     51 H          -0.6902    1.2493   -0.2814 H       1  UNL1        0.0238
     52 H          -1.2017    0.7328    1.3123 H       1  UNL1        0.0238
     53 H          -3.7888   -1.6020   -1.8475 H       1  UNL1        0.0621
     54 H          -6.1648   -1.9259   -2.0226 H       1  UNL1        0.0618
     55 H          -7.7123   -0.5755   -0.7264 H       1  UNL1        0.0618
     56 H          -6.8496    1.1077    0.8115 H       1  UNL1        0.0625
     57 H          -5.6157    3.3765    0.8900 H       1  UNL1        0.1453
     58 H          -5.3515    3.1328    2.6311 H       1  UNL1        0.1453
     59 H           2.2171   -2.9807   -0.5253 H       1  UNL1        0.1656
     60 H           4.9046   -2.3168   -1.0865 H       1  UNL1        0.0851
@<TRIPOS>BOND
     1     1     2    1
     2     2     3    1
     3     3     4    2
     4     3     5    2
     5     3     6    1
     6     6     7   ar
     7     7     8   ar
     8     8     9   ar
     9     9    10   ar
    10    10    11    1
    11    11    12    1
    12    12    13    1
    13    12    14    1
    14    14    15    1
    15    15    16    1
    16    15    17    1
    17    15    18    1
    18    18    19   ar
    19    19    20   ar
    20    20    21   ar
    21    21    22   ar
    22    22    23   ar
    23    23    24    1
    24    24    25   am
    25    24    26    2
    26    12    27    1
    27    27    28    1
    28    27    29    1
    29    27    30    1
    30    10    31   ar
    31    31    32   ar
    32    32    33   ar
    33    33    34   ar
    34    34     6   ar
    35    32     8   ar
    36    23    18   ar
    37     1    35    1
    38     1    36    1
    39     1    37    1
    40     2    38    1
    41     2    39    1
    42     7    40    1
    43     9    41    1
    44    11    42    1
    45    11    43    1
    46    13    44    1
    47    14    45    1
    48    14    46    1
    49    16    47    1
    50    16    48    1
    51    16    49    1
    52    17    50    1
    53    17    51    1
    54    17    52    1
    55    19    53    1
    56    20    54    1
    57    21    55    1
    58    22    56    1
    59    25    57    1
    60    25    58    1
    61    31    59    1
    62    33    60    1
