@<TRIPOS>MOLECULE
*****
 62 66 0 0 0
SMALL
GASTEIGER

@<TRIPOS>ATOM
      1 C          -4.0514   -3.6318   -0.6629 C.3     1  UNL1       -0.0653
      2 C          -3.8481   -2.5733   -1.7307 C.3     1  UNL1       -0.0556
      3 C          -2.3851   -2.4444   -2.1012 C.3     1  UNL1       -0.0478
      4 C          -1.5721   -2.0533   -0.8837 C.3     1  UNL1       -0.0084
      5 C          -2.0092   -0.7498   -0.3268 C.ar    1  UNL1        0.0677
      6 N          -2.8010    0.1825   -0.8935 N.ar    1  UNL1       -0.1703
      7 N          -2.9521    1.2092   -0.0825 N.ar    1  UNL1       -0.2238
      8 C          -3.7080    2.3947   -0.3004 C.ar    1  UNL1        0.0846
      9 C          -4.8886    2.6428    0.3686 C.ar    1  UNL1       -0.0334
     10 C          -5.6311    3.8018    0.1626 C.ar    1  UNL1       -0.0413
     11 C          -5.1861    4.7508   -0.7405 C.ar    1  UNL1        0.0425
     12 CL         -6.1033    6.2317   -1.0249 Cl      1  UNL1       -0.0835
     13 C          -4.0106    4.4975   -1.4033 C.ar    1  UNL1       -0.0230
     14 C          -3.2578    3.3362   -1.2032 C.ar    1  UNL1        0.0677
     15 CL         -1.7742    3.0332   -2.0498 Cl      1  UNL1       -0.0813
     16 C          -2.2351    0.9442    1.0590 C.ar    1  UNL1        0.1548
     17 C          -2.1763    1.8507    2.1645 C.2     1  UNL1        0.3557
     18 O          -2.7729    2.9522    2.1726 O.2     1  UNL1       -0.2434
     19 O          -1.4415    1.5425    3.2983 O.3     1  UNL1       -0.4761
     20 C          -1.6312   -0.2859    0.9281 C.ar    1  UNL1        0.0123
     21 C          -0.7634   -0.9797    1.9176 C.3     1  UNL1        0.0016
     22 C           0.6740   -0.9490    1.5818 C.ar    1  UNL1       -0.0429
     23 C           1.2920   -2.0180    0.9660 C.ar    1  UNL1       -0.0577
     24 C           2.6287   -2.0182    0.6412 C.ar    1  UNL1       -0.0537
     25 C           3.4332   -0.9216    0.9240 C.ar    1  UNL1       -0.0172
     26 C           4.8603   -0.9325    0.6019 C.ar    1  UNL1       -0.0072
     27 C           5.7423   -1.7408    1.3004 C.ar    1  UNL1       -0.0534
     28 C           7.0849   -1.7354    0.9946 C.ar    1  UNL1       -0.0611
     29 C           7.5621   -0.9183   -0.0174 C.ar    1  UNL1       -0.0611
     30 C           6.6838   -0.1231   -0.7022 C.ar    1  UNL1       -0.0504
     31 C           5.3212   -0.1198   -0.4018 C.ar    1  UNL1        0.0282
     32 C           4.4411    0.7422   -1.1825 C.ar    1  UNL1        0.1799
     33 N           3.1113    0.8805   -1.0980 N.ar    1  UNL1       -0.1084
     34 N           2.6590    1.7531   -1.9753 N.ar    1  UNL1       -0.0229
     35 N           3.7227    2.1844   -2.6381 N.ar    1  UNL1       -0.0464
     36 N           4.8051    1.5807   -2.1677 N.ar    1  UNL1       -0.2388
     37 C           2.8262    0.1496    1.5380 C.ar    1  UNL1       -0.0537
     38 C           1.4773    0.1316    1.8576 C.ar    1  UNL1       -0.0577
     39 H          -3.3417   -4.4991   -0.8049 H       1  UNL1        0.0230
     40 H          -3.8487   -3.1770    0.3376 H       1  UNL1        0.0230
     41 H          -5.0781   -4.0178   -0.6564 H       1  UNL1        0.0230
     42 H          -4.2527   -1.6211   -1.3796 H       1  UNL1        0.0263
     43 H          -4.3998   -2.8820   -2.6432 H       1  UNL1        0.0263
     44 H          -1.9888   -3.3871   -2.4997 H       1  UNL1        0.0269
     45 H          -2.2446   -1.6586   -2.8551 H       1  UNL1        0.0269
     46 H          -0.5131   -1.9653   -1.2702 H       1  UNL1        0.0329
     47 H          -1.6074   -2.8134   -0.0876 H       1  UNL1        0.0329
     48 H          -5.2243    1.8884    1.0736 H       1  UNL1        0.0640
     49 H          -6.5671    3.9675    0.7119 H       1  UNL1        0.0633
     50 H          -3.6403    5.2123   -2.1083 H       1  UNL1        0.0647
     51 H          -1.2429    2.2637    3.9992 H       1  UNL1        0.2955
     52 H          -1.1314   -2.0624    1.9205 H       1  UNL1        0.0363
     53 H          -0.9395   -0.6596    2.9620 H       1  UNL1        0.0363
     54 H           0.6634   -2.8867    0.7435 H       1  UNL1        0.0621
     55 H           3.0970   -2.8811    0.1514 H       1  UNL1        0.0624
     56 H           5.3361   -2.3606    2.0780 H       1  UNL1        0.0624
     57 H           7.7875   -2.3647    1.5351 H       1  UNL1        0.0618
     58 H           8.6219   -0.9328   -0.2378 H       1  UNL1        0.0618
     59 H           7.0774    0.5092   -1.4915 H       1  UNL1        0.0625
     60 H           5.7996    1.6985   -2.4744 H       1  UNL1        0.1923
     61 H           3.4552    1.0131    1.7603 H       1  UNL1        0.0624
     62 H           1.0559    1.0194    2.3451 H       1  UNL1        0.0621
@<TRIPOS>BOND
     1     1     2    1
     2     2     3    1
     3     3     4    1
     4     4     5    1
     5     5     6   ar
     6     6     7   ar
     7     7     8    1
     8     8     9   ar
     9     9    10   ar
    10    10    11   ar
    11    11    12    1
    12    11    13   ar
    13    13    14   ar
    14    14    15    1
    15     7    16   ar
    16    16    17    1
    17    17    18    2
    18    17    19    1
    19    16    20   ar
    20    20    21    1
    21    21    22    1
    22    22    23   ar
    23    23    24   ar
    24    24    25   ar
    25    25    26    1
    26    26    27   ar
    27    27    28   ar
    28    28    29   ar
    29    29    30   ar
    30    30    31   ar
    31    31    32    1
    32    32    33   ar
    33    33    34   ar
    34    34    35   ar
    35    35    36   ar
    36    25    37   ar
    37    37    38   ar
    38    20     5   ar
    39    38    22   ar
    40    14     8   ar
    41    31    26   ar
    42    36    32   ar
    43     1    39    1
    44     1    40    1
    45     1    41    1
    46     2    42    1
    47     2    43    1
    48     3    44    1
    49     3    45    1
    50     4    46    1
    51     4    47    1
    52     9    48    1
    53    10    49    1
    54    13    50    1
    55    19    51    1
    56    21    52    1
    57    21    53    1
    58    23    54    1
    59    24    55    1
    60    27    56    1
    61    28    57    1
    62    29    58    1
    63    30    59    1
    64    36    60    1
    65    37    61    1
    66    38    62    1
