
     RDKit          3D

 62 66  0  0  0  0  0  0  0  0999 V2000
   -4.0514   -3.6318   -0.6629 C   0  0  0  0  0  0  0  0  0  0  0  0
   -3.8481   -2.5733   -1.7307 C   0  0  0  0  0  0  0  0  0  0  0  0
   -2.3851   -2.4444   -2.1012 C   0  0  0  0  0  0  0  0  0  0  0  0
   -1.5721   -2.0533   -0.8837 C   0  0  0  0  0  0  0  0  0  0  0  0
   -2.0092   -0.7498   -0.3268 C   0  0  0  0  0  0  0  0  0  0  0  0
   -2.8010    0.1825   -0.8935 N   0  0  0  0  0  0  0  0  0  0  0  0
   -2.9521    1.2092   -0.0825 N   0  0  0  0  0  0  0  0  0  0  0  0
   -3.7080    2.3947   -0.3004 C   0  0  0  0  0  0  0  0  0  0  0  0
   -4.8886    2.6428    0.3686 C   0  0  0  0  0  0  0  0  0  0  0  0
   -5.6311    3.8018    0.1626 C   0  0  0  0  0  0  0  0  0  0  0  0
   -5.1861    4.7508   -0.7405 C   0  0  0  0  0  0  0  0  0  0  0  0
   -6.1033    6.2317   -1.0249 Cl  0  0  0  0  0  0  0  0  0  0  0  0
   -4.0106    4.4975   -1.4033 C   0  0  0  0  0  0  0  0  0  0  0  0
   -3.2578    3.3362   -1.2032 C   0  0  0  0  0  0  0  0  0  0  0  0
   -1.7742    3.0332   -2.0498 Cl  0  0  0  0  0  0  0  0  0  0  0  0
   -2.2351    0.9442    1.0590 C   0  0  0  0  0  0  0  0  0  0  0  0
   -2.1763    1.8507    2.1645 C   0  0  0  0  0  0  0  0  0  0  0  0
   -2.7729    2.9522    2.1726 O   0  0  0  0  0  0  0  0  0  0  0  0
   -1.4415    1.5425    3.2983 O   0  0  0  0  0  0  0  0  0  0  0  0
   -1.6312   -0.2859    0.9281 C   0  0  0  0  0  0  0  0  0  0  0  0
   -0.7634   -0.9797    1.9176 C   0  0  0  0  0  0  0  0  0  0  0  0
    0.6740   -0.9490    1.5818 C   0  0  0  0  0  0  0  0  0  0  0  0
    1.2920   -2.0180    0.9660 C   0  0  0  0  0  0  0  0  0  0  0  0
    2.6287   -2.0182    0.6412 C   0  0  0  0  0  0  0  0  0  0  0  0
    3.4332   -0.9216    0.9240 C   0  0  0  0  0  0  0  0  0  0  0  0
    4.8603   -0.9325    0.6019 C   0  0  0  0  0  0  0  0  0  0  0  0
    5.7423   -1.7408    1.3004 C   0  0  0  0  0  0  0  0  0  0  0  0
    7.0849   -1.7354    0.9946 C   0  0  0  0  0  0  0  0  0  0  0  0
    7.5621   -0.9183   -0.0174 C   0  0  0  0  0  0  0  0  0  0  0  0
    6.6838   -0.1231   -0.7022 C   0  0  0  0  0  0  0  0  0  0  0  0
    5.3212   -0.1198   -0.4018 C   0  0  0  0  0  0  0  0  0  0  0  0
    4.4411    0.7422   -1.1825 C   0  0  0  0  0  0  0  0  0  0  0  0
    3.1113    0.8805   -1.0980 N   0  0  0  0  0  0  0  0  0  0  0  0
    2.6590    1.7531   -1.9753 N   0  0  0  0  0  0  0  0  0  0  0  0
    3.7227    2.1844   -2.6381 N   0  0  0  0  0  0  0  0  0  0  0  0
    4.8051    1.5807   -2.1677 N   0  0  0  0  0  0  0  0  0  0  0  0
    2.8262    0.1496    1.5380 C   0  0  0  0  0  0  0  0  0  0  0  0
    1.4773    0.1316    1.8576 C   0  0  0  0  0  0  0  0  0  0  0  0
   -3.3417   -4.4991   -0.8049 H   0  0  0  0  0  0  0  0  0  0  0  0
   -3.8487   -3.1770    0.3376 H   0  0  0  0  0  0  0  0  0  0  0  0
   -5.0781   -4.0178   -0.6564 H   0  0  0  0  0  0  0  0  0  0  0  0
   -4.2527   -1.6211   -1.3796 H   0  0  0  0  0  0  0  0  0  0  0  0
   -4.3998   -2.8820   -2.6432 H   0  0  0  0  0  0  0  0  0  0  0  0
   -1.9888   -3.3871   -2.4997 H   0  0  0  0  0  0  0  0  0  0  0  0
   -2.2446   -1.6586   -2.8551 H   0  0  0  0  0  0  0  0  0  0  0  0
   -0.5131   -1.9653   -1.2702 H   0  0  0  0  0  0  0  0  0  0  0  0
   -1.6074   -2.8134   -0.0876 H   0  0  0  0  0  0  0  0  0  0  0  0
   -5.2243    1.8884    1.0736 H   0  0  0  0  0  0  0  0  0  0  0  0
   -6.5671    3.9675    0.7119 H   0  0  0  0  0  0  0  0  0  0  0  0
   -3.6403    5.2123   -2.1083 H   0  0  0  0  0  0  0  0  0  0  0  0
   -1.2429    2.2637    3.9992 H   0  0  0  0  0  0  0  0  0  0  0  0
   -1.1314   -2.0624    1.9205 H   0  0  0  0  0  0  0  0  0  0  0  0
   -0.9395   -0.6596    2.9620 H   0  0  0  0  0  0  0  0  0  0  0  0
    0.6634   -2.8867    0.7435 H   0  0  0  0  0  0  0  0  0  0  0  0
    3.0970   -2.8811    0.1514 H   0  0  0  0  0  0  0  0  0  0  0  0
    5.3361   -2.3606    2.0780 H   0  0  0  0  0  0  0  0  0  0  0  0
    7.7875   -2.3647    1.5351 H   0  0  0  0  0  0  0  0  0  0  0  0
    8.6219   -0.9328   -0.2378 H   0  0  0  0  0  0  0  0  0  0  0  0
    7.0774    0.5092   -1.4915 H   0  0  0  0  0  0  0  0  0  0  0  0
    5.7996    1.6985   -2.4744 H   0  0  0  0  0  0  0  0  0  0  0  0
    3.4552    1.0131    1.7603 H   0  0  0  0  0  0  0  0  0  0  0  0
    1.0559    1.0194    2.3451 H   0  0  0  0  0  0  0  0  0  0  0  0
  1  2  1  0
  2  3  1  0
  3  4  1  0
  4  5  1  0
  5  6  2  0
  6  7  1  0
  7  8  1  0
  8  9  2  0
  9 10  1  0
 10 11  2  0
 11 12  1  0
 11 13  1  0
 13 14  2  0
 14 15  1  0
  7 16  1  0
 16 17  1  0
 17 18  2  0
 17 19  1  0
 16 20  2  0
 20 21  1  0
 21 22  1  0
 22 23  2  0
 23 24  1  0
 24 25  2  0
 25 26  1  0
 26 27  2  0
 27 28  1  0
 28 29  2  0
 29 30  1  0
 30 31  2  0
 31 32  1  0
 32 33  2  0
 33 34  1  0
 34 35  2  0
 35 36  1  0
 25 37  1  0
 37 38  2  0
 20  5  1  0
 38 22  1  0
 14  8  1  0
 31 26  1  0
 36 32  1  0
  1 39  1  0
  1 40  1  0
  1 41  1  0
  2 42  1  0
  2 43  1  0
  3 44  1  0
  3 45  1  0
  4 46  1  0
  4 47  1  0
  9 48  1  0
 10 49  1  0
 13 50  1  0
 19 51  1  0
 21 52  1  0
 21 53  1  0
 23 54  1  0
 24 55  1  0
 27 56  1  0
 28 57  1  0
 29 58  1  0
 30 59  1  0
 36 60  1  0
 37 61  1  0
 38 62  1  0
M  END
$$$$
