@<TRIPOS>MOLECULE
*****
 85 91 0 0 0
SMALL
GASTEIGER

@<TRIPOS>ATOM
      1 C           3.9965   -3.3338   -0.4731 C.3     1  UNL1        0.0789
      2 O           4.6443   -2.1818    0.0301 O.3     1  UNL1       -0.4932
      3 C           3.9027   -1.0585    0.3341 C.ar    1  UNL1        0.1418
      4 C           2.5268   -1.0494    0.1500 C.ar    1  UNL1       -0.0089
      5 C           1.7890    0.0636    0.4498 C.ar    1  UNL1        0.0064
      6 C           0.3513    0.1534    0.2585 C.ar    1  UNL1        0.1054
      7 N          -0.5708    0.5333    1.1829 N.ar    1  UNL1       -0.1683
      8 N          -1.7898    0.5310    0.6943 N.ar    1  UNL1       -0.2426
      9 C          -3.0368    0.8819    1.3945 C.3     1  UNL1        0.0550
     10 C          -3.8252    1.9012    0.6183 C.3     1  UNL1       -0.0290
     11 C          -5.2983    1.6451    0.5884 C.3     1  UNL1       -0.0354
     12 C          -5.6394    0.2410    0.1906 C.3     1  UNL1        0.0107
     13 N          -7.0455    0.0006    0.2174 N.3     1  UNL1       -0.2964
     14 C          -7.2956   -1.3464   -0.1819 C.3     1  UNL1        0.0150
     15 C          -8.5707   -1.5597   -0.9409 C.3     1  UNL1        0.0275
     16 N          -9.5342   -0.6237   -0.4433 N.am    1  UNL1       -0.2993
     17 C         -10.7246   -1.0743    0.1470 C.2     1  UNL1        0.2125
     18 C         -11.7299   -0.0964    0.6672 C.3     1  UNL1        0.0124
     19 O         -11.0029   -2.3161    0.2670 O.2     1  UNL1       -0.2759
     20 C          -9.2556    0.7740   -0.5614 C.3     1  UNL1        0.0275
     21 C          -7.7863    1.0151   -0.4500 C.3     1  UNL1        0.0150
     22 C          -4.9453   -0.7591    1.0371 C.3     1  UNL1       -0.0354
     23 C          -3.7971   -0.2970    1.8477 C.3     1  UNL1       -0.0290
     24 C          -1.6718    0.1388   -0.5916 C.ar    1  UNL1        0.1641
     25 N          -2.5821   -0.0271   -1.5392 N.ar    1  UNL1       -0.2161
     26 C          -2.3056   -0.4166   -2.7842 C.ar    1  UNL1        0.1204
     27 N          -1.0209   -0.6551   -3.0955 N.ar    1  UNL1       -0.2204
     28 C          -0.0402   -0.5003   -2.1574 C.ar    1  UNL1        0.1308
     29 N           1.3190   -0.7291   -2.4987 N.pl3   1  UNL1       -0.3425
     30 C          -0.3494   -0.0996   -0.8807 C.ar    1  UNL1        0.0859
     31 C           2.4348    1.1786    0.9401 C.ar    1  UNL1       -0.0505
     32 C           3.8001    1.1818    1.1276 C.ar    1  UNL1       -0.0363
     33 C           4.5460    0.0534    0.8225 C.ar    1  UNL1        0.0759
     34 N           5.9435    0.0898    1.0282 N.am    1  UNL1       -0.2773
     35 C           6.8265    0.5206    0.0046 C.2     1  UNL1        0.2648
     36 O           6.3726    0.8726   -1.0920 O.2     1  UNL1       -0.2682
     37 C           8.2856    0.5511    0.2416 C.ar    1  UNL1        0.1055
     38 C           8.9415    0.1919    1.3998 C.ar    1  UNL1       -0.0239
     39 C          10.3023    0.3583    1.2341 C.ar    1  UNL1        0.0006
     40 C          11.4062    0.1602    2.0387 C.ar    1  UNL1       -0.0526
     41 C          12.6923    0.4113    1.6181 C.ar    1  UNL1       -0.0611
     42 C          12.8346    0.8826    0.3217 C.ar    1  UNL1       -0.0598
     43 C          11.7515    1.0902   -0.5049 C.ar    1  UNL1       -0.0376
     44 C          10.4677    0.8283   -0.0536 C.ar    1  UNL1        0.0494
     45 N           9.2400    0.9331   -0.6223 N.ar    1  UNL1       -0.3393
     46 C           8.9826    1.3911   -1.9690 C.3     1  UNL1        0.0126
     47 H           3.3626   -3.0278   -1.3302 H       1  UNL1        0.0660
     48 H           4.7100   -4.0982   -0.8128 H       1  UNL1        0.0660
     49 H           3.3111   -3.7827    0.2847 H       1  UNL1        0.0660
     50 H           2.0525   -1.9367   -0.2129 H       1  UNL1        0.0661
     51 H          -2.6854    1.4175    2.3131 H       1  UNL1        0.0545
     52 H          -3.6818    2.9419    0.9868 H       1  UNL1        0.0286
     53 H          -3.4237    1.8947   -0.4177 H       1  UNL1        0.0286
     54 H          -5.7800    1.9160    1.5418 H       1  UNL1        0.0281
     55 H          -5.7189    2.3333   -0.1945 H       1  UNL1        0.0281
     56 H          -5.3015    0.1366   -0.8801 H       1  UNL1        0.0462
     57 H          -7.3864   -1.9684    0.7575 H       1  UNL1        0.0442
     58 H          -6.4453   -1.7177   -0.8116 H       1  UNL1        0.0442
     59 H          -8.9049   -2.6176   -0.8493 H       1  UNL1        0.0477
     60 H          -8.3740   -1.3515   -2.0126 H       1  UNL1        0.0477
     61 H         -12.5626   -0.6157    1.1753 H       1  UNL1        0.0323
     62 H         -11.2521    0.5672    1.4423 H       1  UNL1        0.0323
     63 H         -12.1875    0.5010   -0.1485 H       1  UNL1        0.0323
     64 H          -9.8515    1.3456    0.1835 H       1  UNL1        0.0477
     65 H          -9.6083    1.1645   -1.5611 H       1  UNL1        0.0477
     66 H          -7.3457    1.1645   -1.4568 H       1  UNL1        0.0442
     67 H          -7.6811    1.9536    0.1725 H       1  UNL1        0.0442
     68 H          -5.7181   -1.2605    1.6863 H       1  UNL1        0.0281
     69 H          -4.6017   -1.5999    0.3629 H       1  UNL1        0.0281
     70 H          -4.1727   -0.1634    2.9074 H       1  UNL1        0.0286
     71 H          -3.0654   -1.1542    1.9488 H       1  UNL1        0.0286
     72 H          -3.0998   -0.5417   -3.5407 H       1  UNL1        0.1048
     73 H           1.9984    0.0441   -2.5948 H       1  UNL1        0.1437
     74 H           1.6538   -1.7003   -2.6595 H       1  UNL1        0.1437
     75 H           1.8988    2.0810    1.1922 H       1  UNL1        0.0625
     76 H           4.3287    2.0448    1.5108 H       1  UNL1        0.0637
     77 H           6.3144   -0.2056    1.9462 H       1  UNL1        0.1553
     78 H           8.4681   -0.1658    2.3020 H       1  UNL1        0.0646
     79 H          11.2362   -0.2076    3.0382 H       1  UNL1        0.0624
     80 H          13.5566    0.2599    2.2381 H       1  UNL1        0.0618
     81 H          13.8596    1.0810   -0.0098 H       1  UNL1        0.0618
     82 H          11.8650    1.4541   -1.5045 H       1  UNL1        0.0638
     83 H           8.3327    0.6572   -2.4923 H       1  UNL1        0.0456
     84 H           9.9230    1.4420   -2.5604 H       1  UNL1        0.0456
     85 H           8.4377    2.3529   -1.9526 H       1  UNL1        0.0456
@<TRIPOS>BOND
     1     1     2    1
     2     2     3    1
     3     3     4   ar
     4     4     5   ar
     5     5     6    1
     6     6     7   ar
     7     7     8   ar
     8     8     9    1
     9     9    10    1
    10    10    11    1
    11    11    12    1
    12    12    13    1
    13    13    14    1
    14    14    15    1
    15    15    16    1
    16    16    17   am
    17    17    18    1
    18    17    19    2
    19    16    20    1
    20    20    21    1
    21    12    22    1
    22    22    23    1
    23     8    24   ar
    24    24    25   ar
    25    25    26   ar
    26    26    27   ar
    27    27    28   ar
    28    28    29    1
    29    28    30   ar
    30     5    31   ar
    31    31    32   ar
    32    32    33   ar
    33    33    34    1
    34    34    35   am
    35    35    36    2
    36    35    37    1
    37    37    38   ar
    38    38    39   ar
    39    39    40   ar
    40    40    41   ar
    41    41    42   ar
    42    42    43   ar
    43    43    44   ar
    44    44    45   ar
    45    45    46    1
    46    33     3   ar
    47    45    37   ar
    48    30     6   ar
    49    44    39   ar
    50    23     9    1
    51    30    24   ar
    52    21    13    1
    53     1    47    1
    54     1    48    1
    55     1    49    1
    56     4    50    1
    57     9    51    1
    58    10    52    1
    59    10    53    1
    60    11    54    1
    61    11    55    1
    62    12    56    1
    63    14    57    1
    64    14    58    1
    65    15    59    1
    66    15    60    1
    67    18    61    1
    68    18    62    1
    69    18    63    1
    70    20    64    1
    71    20    65    1
    72    21    66    1
    73    21    67    1
    74    22    68    1
    75    22    69    1
    76    23    70    1
    77    23    71    1
    78    26    72    1
    79    29    73    1
    80    29    74    1
    81    31    75    1
    82    32    76    1
    83    34    77    1
    84    38    78    1
    85    40    79    1
    86    41    80    1
    87    42    81    1
    88    43    82    1
    89    46    83    1
    90    46    84    1
    91    46    85    1
