@<TRIPOS>MOLECULE
*****
 59 64 0 0 0
SMALL
GASTEIGER

@<TRIPOS>ATOM
      1 C           2.6837   -1.8989   -0.0410 C.3     1  UNL1       -0.0503
      2 C           2.2873   -0.7281    0.8655 C.3     1  UNL1        0.0315
      3 C           1.7393   -1.3595    2.1409 C.3     1  UNL1       -0.0503
      4 C           1.2277    0.1019    0.2846 C.ar    1  UNL1       -0.0249
      5 C           0.0390   -0.5455   -0.0596 C.ar    1  UNL1       -0.0536
      6 C          -1.0448    0.0972   -0.6083 C.ar    1  UNL1       -0.0439
      7 C          -2.2848   -0.6400   -0.9541 C.3     1  UNL1       -0.0135
      8 C          -2.5721   -0.4156   -2.4460 C.3     1  UNL1       -0.0333
      9 C          -3.8093   -1.2033   -2.7575 C.3     1  UNL1       -0.0001
     10 N          -4.9277   -0.9046   -1.9677 N.3     1  UNL1       -0.2951
     11 C          -6.2022   -1.0320   -2.5502 C.3     1  UNL1        0.0571
     12 C          -7.4068   -0.7158   -1.7327 C.3     1  UNL1        0.0654
     13 O          -7.1831   -1.9167   -1.0258 O.3     1  UNL1       -0.3765
     14 C          -6.7506   -2.4419   -2.2593 C.3     1  UNL1        0.0654
     15 C          -4.7839   -0.5107   -0.6407 C.3     1  UNL1       -0.0001
     16 C          -3.4377   -0.0558   -0.2066 C.3     1  UNL1       -0.0333
     17 C          -0.9691    1.4686   -0.8398 C.ar    1  UNL1       -0.0576
     18 C           0.1987    2.1126   -0.5035 C.ar    1  UNL1       -0.0504
     19 C           1.2827    1.4386    0.0509 C.ar    1  UNL1        0.0264
     20 C           2.5085    2.1510    0.3939 C.2     1  UNL1        0.1957
     21 O           2.5987    3.3851    0.1937 O.2     1  UNL1       -0.2866
     22 C           3.6029    1.4122    0.9627 C.ar    1  UNL1        0.0513
     23 C           3.5085    0.0521    1.1865 C.ar    1  UNL1        0.0380
     24 N           4.6658   -0.3247    1.7069 N.ar    1  UNL1       -0.3566
     25 C           5.5185    0.7067    1.8396 C.ar    1  UNL1        0.0486
     26 C           6.8129    0.8453    2.3127 C.ar    1  UNL1       -0.0204
     27 C           7.4901    2.0462    2.3435 C.ar    1  UNL1        0.0537
     28 C           8.8459    2.1637    2.8407 C.1     1  UNL1        0.0992
     29 N           9.9445    2.2509    3.2235 N.1     1  UNL1       -0.1909
     30 C           6.8222    3.1696    1.8703 C.ar    1  UNL1       -0.0436
     31 C           5.5235    3.0456    1.3928 C.ar    1  UNL1       -0.0507
     32 C           4.8706    1.8314    1.3735 C.ar    1  UNL1        0.0109
     33 H           1.9819   -2.7295    0.1081 H       1  UNL1        0.0242
     34 H           2.7670   -1.5655   -1.0935 H       1  UNL1        0.0242
     35 H           3.6860   -2.2192    0.2850 H       1  UNL1        0.0242
     36 H           1.3339   -2.3520    1.9156 H       1  UNL1        0.0242
     37 H           0.9487   -0.6819    2.5188 H       1  UNL1        0.0242
     38 H           2.5537   -1.3833    2.8919 H       1  UNL1        0.0242
     39 H          -0.0572   -1.6257    0.1073 H       1  UNL1        0.0624
     40 H          -2.1811   -1.6948   -0.7077 H       1  UNL1        0.0350
     41 H          -2.7359    0.6666   -2.5541 H       1  UNL1        0.0283
     42 H          -1.7412   -0.8051   -3.0463 H       1  UNL1        0.0283
     43 H          -3.5621   -2.2847   -2.7028 H       1  UNL1        0.0427
     44 H          -4.0603   -1.0038   -3.8400 H       1  UNL1        0.0427
     45 H          -6.2912   -0.8192   -3.6399 H       1  UNL1        0.0508
     46 H          -8.3441   -0.8201   -2.3278 H       1  UNL1        0.0576
     47 H          -7.3833    0.1254   -1.0403 H       1  UNL1        0.0576
     48 H          -5.9478   -3.1841   -2.0915 H       1  UNL1        0.0576
     49 H          -7.5635   -2.7585   -2.9361 H       1  UNL1        0.0576
     50 H          -5.4906    0.3433   -0.4158 H       1  UNL1        0.0427
     51 H          -5.1622   -1.3382    0.0294 H       1  UNL1        0.0427
     52 H          -3.3544    1.0711   -0.1806 H       1  UNL1        0.0283
     53 H          -3.3127   -0.3566    0.8721 H       1  UNL1        0.0283
     54 H          -1.8121    1.9530   -1.2626 H       1  UNL1        0.0621
     55 H           0.3058    3.1839   -0.6625 H       1  UNL1        0.0625
     56 H           4.9379   -1.3010    2.0002 H       1  UNL1        0.1656
     57 H           7.3429   -0.0210    2.6839 H       1  UNL1        0.0651
     58 H           7.3382    4.1162    1.8900 H       1  UNL1        0.0631
     59 H           5.0047    3.8990    1.0282 H       1  UNL1        0.0625
@<TRIPOS>BOND
     1     1     2    1
     2     2     3    1
     3     2     4    1
     4     4     5   ar
     5     5     6   ar
     6     6     7    1
     7     7     8    1
     8     8     9    1
     9     9    10    1
    10    10    11    1
    11    11    12    1
    12    12    13    1
    13    13    14    1
    14    10    15    1
    15    15    16    1
    16     6    17   ar
    17    17    18   ar
    18    18    19   ar
    19    19    20    1
    20    20    21    2
    21    20    22    1
    22    22    23   ar
    23    23    24   ar
    24    24    25   ar
    25    25    26   ar
    26    26    27   ar
    27    27    28    1
    28    28    29    3
    29    27    30   ar
    30    30    31   ar
    31    31    32   ar
    32    23     2    1
    33    32    25   ar
    34    19     4   ar
    35    32    22   ar
    36    16     7    1
    37    14    11    1
    38     1    33    1
    39     1    34    1
    40     1    35    1
    41     3    36    1
    42     3    37    1
    43     3    38    1
    44     5    39    1
    45     7    40    1
    46     8    41    1
    47     8    42    1
    48     9    43    1
    49     9    44    1
    50    11    45    1
    51    12    46    1
    52    12    47    1
    53    14    48    1
    54    14    49    1
    55    15    50    1
    56    15    51    1
    57    16    52    1
    58    16    53    1
    59    17    54    1
    60    18    55    1
    61    24    56    1
    62    26    57    1
    63    30    58    1
    64    31    59    1
