@<TRIPOS>MOLECULE
*****
 58 62 0 0 0
SMALL
GASTEIGER

@<TRIPOS>ATOM
      1 O          -1.8934    2.7210    0.0445 O.2     1  UNL1       -0.1685
      2 S          -2.1236    1.3108    0.5822 S.O2    1  UNL1        0.0072
      3 O          -2.0040    1.4531    2.0858 O.2     1  UNL1       -0.1685
      4 C          -3.6998    0.8468    0.1437 C.ar    1  UNL1        0.0893
      5 C          -4.3186    1.3102   -0.9854 C.ar    1  UNL1       -0.0355
      6 C          -5.5973    0.9108   -1.2776 C.ar    1  UNL1       -0.0416
      7 C          -6.2738    0.0406   -0.4417 C.ar    1  UNL1        0.0411
      8 CL         -7.9040   -0.4987   -0.7679 Cl      1  UNL1       -0.0835
      9 C          -5.6650   -0.4387    0.7045 C.ar    1  UNL1       -0.0416
     10 C          -4.3964   -0.0168    0.9562 C.ar    1  UNL1       -0.0355
     11 C          -0.7782    0.2876   -0.0389 C.3     1  UNL1        0.1301
     12 C          -0.7355    0.2396   -1.5211 C.3     1  UNL1       -0.0227
     13 C           0.2076    1.0236   -2.3047 C.3     1  UNL1       -0.0502
     14 C           1.2857    1.6962   -1.5696 C.3     1  UNL1       -0.0456
     15 C           1.6448    0.8672   -0.3532 C.3     1  UNL1       -0.0054
     16 C           2.1390   -0.4567   -0.8204 C.3     1  UNL1       -0.0312
     17 C           3.4424   -0.7046   -0.0721 C.3     1  UNL1        0.0210
     18 N           3.8018    0.5076    0.5684 N.3     1  UNL1       -0.1725
     19 S           5.3768    1.0688    0.1452 S.O2    1  UNL1        0.1290
     20 O           5.4349    1.3442   -1.3189 O.2     1  UNL1       -0.1495
     21 O           5.7020    2.3470    0.8606 O.2     1  UNL1       -0.1495
     22 C           6.6185   -0.1189    0.6313 C.3     1  UNL1        0.5359
     23 F           6.3981   -1.3119    0.0073 F       1  UNL1       -0.1493
     24 F           7.8620    0.4103    0.3007 F       1  UNL1       -0.1493
     25 F           6.6151   -0.3301    1.9824 F       1  UNL1       -0.1493
     26 C           2.8649    1.5421    0.2350 C.3     1  UNL1        0.0265
     27 C           0.4791    0.8252    0.5986 C.3     1  UNL1        0.0298
     28 C           0.7667    0.3296    1.9743 C.3     1  UNL1        0.0954
     29 O           0.5213   -1.0242    2.1806 O.3     1  UNL1       -0.4883
     30 C          -0.4463   -1.6963    1.4737 C.ar    1  UNL1        0.1635
     31 C          -0.7695   -3.0160    1.8697 C.ar    1  UNL1        0.1653
     32 F          -0.0997   -3.5377    2.9312 F       1  UNL1       -0.2016
     33 C          -1.7167   -3.7242    1.2027 C.ar    1  UNL1       -0.0201
     34 C          -2.3493   -3.1262    0.1369 C.ar    1  UNL1       -0.0232
     35 C          -2.0431   -1.8329   -0.2633 C.ar    1  UNL1        0.1323
     36 F          -2.7374   -1.3793   -1.3348 F       1  UNL1       -0.2050
     37 C          -1.0724   -1.0977    0.4162 C.ar    1  UNL1        0.0600
     38 H          -3.8252    2.0018   -1.6802 H       1  UNL1        0.0637
     39 H          -6.1233    1.2662   -2.1788 H       1  UNL1        0.0633
     40 H          -6.1738   -1.1188    1.3724 H       1  UNL1        0.0633
     41 H          -3.9314   -0.4174    1.8829 H       1  UNL1        0.0637
     42 H          -1.7814    0.5346   -1.8768 H       1  UNL1        0.0290
     43 H          -0.6601   -0.8316   -1.9082 H       1  UNL1        0.0290
     44 H          -0.3332    1.8439   -2.9026 H       1  UNL1        0.0266
     45 H           0.6346    0.3967   -3.1401 H       1  UNL1        0.0266
     46 H           2.2080    1.7046   -2.2199 H       1  UNL1        0.0271
     47 H           1.0021    2.7350   -1.2873 H       1  UNL1        0.0271
     48 H           2.4152   -0.4662   -1.8977 H       1  UNL1        0.0284
     49 H           1.4171   -1.2878   -0.6929 H       1  UNL1        0.0284
     50 H           3.3278   -1.4958    0.6962 H       1  UNL1        0.0444
     51 H           4.2481   -1.0687   -0.7489 H       1  UNL1        0.0444
     52 H           2.5670    2.0716    1.1534 H       1  UNL1        0.0449
     53 H           3.3107    2.3133   -0.4287 H       1  UNL1        0.0449
     54 H           0.2791    1.9384    0.7718 H       1  UNL1        0.0364
     55 H           0.1560    0.8978    2.7553 H       1  UNL1        0.0700
     56 H           1.8071    0.6173    2.2816 H       1  UNL1        0.0700
     57 H          -1.9609   -4.7323    1.5090 H       1  UNL1        0.0648
     58 H          -3.1199   -3.6744   -0.4228 H       1  UNL1        0.0647
@<TRIPOS>BOND
     1     1     2    2
     2     2     3    2
     3     2     4    1
     4     4     5   ar
     5     5     6   ar
     6     6     7   ar
     7     7     8    1
     8     7     9   ar
     9     9    10   ar
    10     2    11    1
    11    11    12    1
    12    12    13    1
    13    13    14    1
    14    15    14    1
    15    15    16    1
    16    16    17    1
    17    17    18    1
    18    18    19    1
    19    19    20    2
    20    19    21    2
    21    19    22    1
    22    22    23    1
    23    22    24    1
    24    22    25    1
    25    18    26    1
    26    15    27    1
    27    27    28    1
    28    28    29    1
    29    29    30    1
    30    30    31   ar
    31    31    32    1
    32    31    33   ar
    33    33    34   ar
    34    34    35   ar
    35    35    36    1
    36    35    37   ar
    37    10     4   ar
    38    27    11    1
    39    37    30   ar
    40    37    11    1
    41    26    15    1
    42     5    38    1
    43     6    39    1
    44     9    40    1
    45    10    41    1
    46    12    42    1
    47    12    43    1
    48    13    44    1
    49    13    45    1
    50    14    46    1
    51    14    47    1
    52    16    48    1
    53    16    49    1
    54    17    50    1
    55    17    51    1
    56    26    52    1
    57    26    53    1
    58    27    54    1
    59    28    55    1
    60    28    56    1
    61    33    57    1
    62    34    58    1
