
     RDKit          3D

 54 56  0  0  0  0  0  0  0  0999 V2000
    8.8791    1.2606   -2.4474 C   0  0  0  0  0  0  0  0  0  0  0  0
    7.4758    1.1190   -2.3870 O   0  0  0  0  0  0  0  0  0  0  0  0
    6.9442    0.1186   -1.6005 C   0  0  0  0  0  0  0  0  0  0  0  0
    7.7648   -0.7200   -0.8923 C   0  0  0  0  0  0  0  0  0  0  0  0
    7.2556   -1.7329   -0.0948 C   0  0  0  0  0  0  0  0  0  0  0  0
    5.8898   -1.8766   -0.0315 C   0  0  0  0  0  0  0  0  0  0  0  0
    5.0234   -1.0594   -0.7241 C   0  0  0  0  0  0  0  0  0  0  0  0
    3.5581   -1.2647   -0.6156 C   0  0  0  0  0  0  0  0  0  0  0  0
    3.0858   -0.4828    0.4643 O   0  0  0  0  0  0  0  0  0  0  0  0
    1.7202   -0.4790    0.8055 C   0  0  0  0  0  0  0  0  0  0  0  0
    0.8148   -1.2293    0.1037 C   0  0  0  0  0  0  0  0  0  0  0  0
   -0.5164   -1.1976    0.4707 C   0  0  0  0  0  0  0  0  0  0  0  0
   -0.9673   -0.4313    1.5262 C   0  0  0  0  0  0  0  0  0  0  0  0
   -2.6667   -0.4595    1.9081 S   0  0  0  0  0  6  0  0  0  0  0  0
   -2.8426   -0.3669    3.4167 O   0  0  0  0  0  0  0  0  0  0  0  0
   -3.1784   -1.8246    1.5390 O   0  0  0  0  0  0  0  0  0  0  0  0
   -3.5643    0.7111    1.0866 N   0  0  0  0  0  0  0  0  0  0  0  0
   -3.5024    0.5271   -0.3300 C   0  0  0  0  0  0  0  0  0  0  0  0
   -4.2489   -0.6819   -0.8052 C   0  0  0  0  0  0  0  0  0  0  0  0
   -5.5727   -0.8765   -0.1767 C   0  0  2  0  0  0  0  0  0  0  0  0
   -6.5756   -0.9436   -1.1759 O   0  0  0  0  0  0  0  0  0  0  0  0
   -5.9525    0.0671    0.8977 C   0  0  0  0  0  0  0  0  0  0  0  0
   -4.9055    0.9165    1.4977 C   0  0  2  0  0  0  0  0  0  0  0  0
   -5.2266    2.3518    1.2612 C   0  0  0  0  0  0  0  0  0  0  0  0
   -4.3951    3.1502    0.7915 O   0  0  0  0  0  0  0  0  0  0  0  0
   -6.5242    2.8008    1.5881 N   0  0  0  0  0  0  0  0  0  0  0  0
   -6.9067    4.0856    1.4084 O   0  0  0  0  0  0  0  0  0  0  0  0
   -0.0506    0.3135    2.2184 C   0  0  0  0  0  0  0  0  0  0  0  0
    1.2596    0.2830    1.8582 C   0  0  0  0  0  0  0  0  0  0  0  0
    5.5746   -0.0645   -1.5054 C   0  0  0  0  0  0  0  0  0  0  0  0
    9.1772    2.1936   -2.9684 H   0  0  0  0  0  0  0  0  0  0  0  0
    9.2723    0.3548   -2.9695 H   0  0  0  0  0  0  0  0  0  0  0  0
    9.3526    1.2944   -1.4497 H   0  0  0  0  0  0  0  0  0  0  0  0
    8.8364   -0.6154   -0.9354 H   0  0  0  0  0  0  0  0  0  0  0  0
    7.8975   -2.3909    0.4607 H   0  0  0  0  0  0  0  0  0  0  0  0
    5.4445   -2.6624    0.5854 H   0  0  0  0  0  0  0  0  0  0  0  0
    3.2944   -2.3338   -0.4772 H   0  0  0  0  0  0  0  0  0  0  0  0
    3.0468   -0.8805   -1.5320 H   0  0  0  0  0  0  0  0  0  0  0  0
    1.1693   -1.8388   -0.7348 H   0  0  0  0  0  0  0  0  0  0  0  0
   -1.1974   -1.8175   -0.1256 H   0  0  0  0  0  0  0  0  0  0  0  0
   -2.4156    0.3440   -0.5796 H   0  0  0  0  0  0  0  0  0  0  0  0
   -3.7724    1.4347   -0.9064 H   0  0  0  0  0  0  0  0  0  0  0  0
   -4.3756   -0.5452   -1.9210 H   0  0  0  0  0  0  0  0  0  0  0  0
   -3.6100   -1.6119   -0.7434 H   0  0  0  0  0  0  0  0  0  0  0  0
   -5.6016   -1.9173    0.2670 H   0  0  0  0  0  0  0  0  0  0  0  0
   -7.4224   -0.7626   -0.6958 H   0  0  0  0  0  0  0  0  0  0  0  0
   -6.7497    0.7416    0.4605 H   0  0  0  0  0  0  0  0  0  0  0  0
   -6.5230   -0.4613    1.7201 H   0  0  0  0  0  0  0  0  0  0  0  0
   -5.0108    0.8265    2.6341 H   0  0  0  0  0  0  0  0  0  0  0  0
   -7.2725    2.1639    1.9910 H   0  0  0  0  0  0  0  0  0  0  0  0
   -7.7166    4.0889    0.8395 H   0  0  0  0  0  0  0  0  0  0  0  0
   -0.3749    0.9174    3.0425 H   0  0  0  0  0  0  0  0  0  0  0  0
    1.9856    0.8758    2.4102 H   0  0  0  0  0  0  0  0  0  0  0  0
    4.9167    0.5883   -2.0575 H   0  0  0  0  0  0  0  0  0  0  0  0
  1  2  1  0
  2  3  1  0
  3  4  2  0
  4  5  1  0
  5  6  2  0
  6  7  1  0
  7  8  1  0
  8  9  1  0
  9 10  1  0
 10 11  2  0
 11 12  1  0
 12 13  2  0
 13 14  1  0
 14 15  2  0
 14 16  2  0
 14 17  1  0
 17 18  1  0
 18 19  1  0
 19 20  1  0
 20 21  1  0
 20 22  1  0
 22 23  1  0
 23 24  1  0
 24 25  2  0
 24 26  1  0
 26 27  1  0
 13 28  1  0
 28 29  2  0
  7 30  2  0
 30  3  1  0
 29 10  1  0
 23 17  1  0
  1 31  1  0
  1 32  1  0
  1 33  1  0
  4 34  1  0
  5 35  1  0
  6 36  1  0
  8 37  1  0
  8 38  1  0
 11 39  1  0
 12 40  1  0
 18 41  1  0
 18 42  1  0
 19 43  1  0
 19 44  1  0
 20 45  1  1
 21 46  1  0
 22 47  1  0
 22 48  1  0
 23 49  1  1
 26 50  1  0
 27 51  1  0
 28 52  1  0
 29 53  1  0
 30 54  1  0
M  END
$$$$
