@<TRIPOS>MOLECULE
*****
 54 56 0 0 0
SMALL
GASTEIGER

@<TRIPOS>ATOM
      1 C           8.8791    1.2606   -2.4474 C.3     1  UNL1        0.0788
      2 O           7.4758    1.1190   -2.3870 O.3     1  UNL1       -0.4951
      3 C           6.9442    0.1186   -1.6005 C.ar    1  UNL1        0.1205
      4 C           7.7648   -0.7200   -0.8923 C.ar    1  UNL1       -0.0199
      5 C           7.2556   -1.7329   -0.0948 C.ar    1  UNL1       -0.0579
      6 C           5.8898   -1.8766   -0.0315 C.ar    1  UNL1       -0.0551
      7 C           5.0234   -1.0594   -0.7241 C.ar    1  UNL1       -0.0070
      8 C           3.5581   -1.2647   -0.6156 C.3     1  UNL1        0.1147
      9 O           3.0858   -0.4828    0.4643 O.3     1  UNL1       -0.4874
     10 C           1.7202   -0.4790    0.8055 C.ar    1  UNL1        0.1211
     11 C           0.8148   -1.2293    0.1037 C.ar    1  UNL1       -0.0181
     12 C          -0.5164   -1.1976    0.4707 C.ar    1  UNL1       -0.0319
     13 C          -0.9673   -0.4313    1.5262 C.ar    1  UNL1        0.1057
     14 S          -2.6667   -0.4595    1.9081 S.O2    1  UNL1        0.0615
     15 O          -2.8426   -0.3669    3.4167 O.2     1  UNL1       -0.1528
     16 O          -3.1784   -1.8246    1.5390 O.2     1  UNL1       -0.1528
     17 N          -3.5643    0.7111    1.0866 N.3     1  UNL1       -0.1645
     18 C          -3.5024    0.5271   -0.3300 C.3     1  UNL1        0.0237
     19 C          -4.2489   -0.6819   -0.8052 C.3     1  UNL1       -0.0123
     20 C          -5.5727   -0.8765   -0.1767 C.3     1  UNL1        0.0584
     21 O          -6.5756   -0.9436   -1.1759 O.3     1  UNL1       -0.3917
     22 C          -5.9525    0.0671    0.8977 C.3     1  UNL1       -0.0010
     23 C          -4.9055    0.9165    1.4977 C.3     1  UNL1        0.1120
     24 C          -5.2266    2.3518    1.2612 C.2     1  UNL1        0.2544
     25 O          -4.3951    3.1502    0.7915 O.2     1  UNL1       -0.2719
     26 N          -6.5242    2.8008    1.5881 N.am    1  UNL1       -0.1961
     27 O          -6.9067    4.0856    1.4084 O.3     1  UNL1       -0.2951
     28 C          -0.0506    0.3135    2.2184 C.ar    1  UNL1       -0.0319
     29 C           1.2596    0.2830    1.8582 C.ar    1  UNL1       -0.0181
     30 C           5.5746   -0.0645   -1.5054 C.ar    1  UNL1       -0.0136
     31 H           9.1772    2.1936   -2.9684 H       1  UNL1        0.0660
     32 H           9.2723    0.3548   -2.9695 H       1  UNL1        0.0660
     33 H           9.3526    1.2944   -1.4497 H       1  UNL1        0.0660
     34 H           8.8364   -0.6154   -0.9354 H       1  UNL1        0.0654
     35 H           7.8975   -2.3909    0.4607 H       1  UNL1        0.0619
     36 H           5.4445   -2.6624    0.5854 H       1  UNL1        0.0621
     37 H           3.2944   -2.3338   -0.4772 H       1  UNL1        0.0748
     38 H           3.0468   -0.8805   -1.5320 H       1  UNL1        0.0748
     39 H           1.1693   -1.8388   -0.7348 H       1  UNL1        0.0655
     40 H          -1.1974   -1.8175   -0.1256 H       1  UNL1        0.0638
     41 H          -2.4156    0.3440   -0.5796 H       1  UNL1        0.0445
     42 H          -3.7724    1.4347   -0.9064 H       1  UNL1        0.0445
     43 H          -4.3756   -0.5452   -1.9210 H       1  UNL1        0.0303
     44 H          -3.6100   -1.6119   -0.7434 H       1  UNL1        0.0303
     45 H          -5.6016   -1.9173    0.2670 H       1  UNL1        0.0594
     46 H          -7.4224   -0.7626   -0.6958 H       1  UNL1        0.2098
     47 H          -6.7497    0.7416    0.4605 H       1  UNL1        0.0310
     48 H          -6.5230   -0.4613    1.7201 H       1  UNL1        0.0310
     49 H          -5.0108    0.8265    2.6341 H       1  UNL1        0.0577
     50 H          -7.2725    2.1639    1.9910 H       1  UNL1        0.1822
     51 H          -7.7166    4.0889    0.8395 H       1  UNL1        0.2414
     52 H          -0.3749    0.9174    3.0425 H       1  UNL1        0.0638
     53 H           1.9856    0.8758    2.4102 H       1  UNL1        0.0655
     54 H           4.9167    0.5883   -2.0575 H       1  UNL1        0.0658
@<TRIPOS>BOND
     1     1     2    1
     2     2     3    1
     3     3     4   ar
     4     4     5   ar
     5     5     6   ar
     6     6     7   ar
     7     7     8    1
     8     8     9    1
     9     9    10    1
    10    10    11   ar
    11    11    12   ar
    12    12    13   ar
    13    13    14    1
    14    14    15    2
    15    14    16    2
    16    14    17    1
    17    17    18    1
    18    18    19    1
    19    19    20    1
    20    20    21    1
    21    20    22    1
    22    22    23    1
    23    23    24    1
    24    24    25    2
    25    24    26   am
    26    26    27    1
    27    13    28   ar
    28    28    29   ar
    29     7    30   ar
    30    30     3   ar
    31    29    10   ar
    32    23    17    1
    33     1    31    1
    34     1    32    1
    35     1    33    1
    36     4    34    1
    37     5    35    1
    38     6    36    1
    39     8    37    1
    40     8    38    1
    41    11    39    1
    42    12    40    1
    43    18    41    1
    44    18    42    1
    45    19    43    1
    46    19    44    1
    47    20    45    1
    48    21    46    1
    49    22    47    1
    50    22    48    1
    51    23    49    1
    52    26    50    1
    53    27    51    1
    54    28    52    1
    55    29    53    1
    56    30    54    1
