@<TRIPOS>MOLECULE
*****
 59 64 0 0 0
SMALL
GASTEIGER

@<TRIPOS>ATOM
      1 C           9.2204    0.1388    1.0428 C.3     1  UNL1        0.0788
      2 O           8.3155   -0.6700    0.3167 O.3     1  UNL1       -0.4950
      3 C           6.9702   -0.3491    0.3703 C.ar    1  UNL1        0.1237
      4 C           6.0802   -1.1272   -0.3309 C.ar    1  UNL1       -0.0190
      5 C           4.7239   -0.8713   -0.3272 C.ar    1  UNL1       -0.0439
      6 C           4.2597    0.2079    0.4114 C.ar    1  UNL1        0.0662
      7 C           3.0032    0.7285    0.6256 C.ar    1  UNL1        0.1922
      8 N           1.8171    0.1934    0.0640 N.ar    1  UNL1       -0.2413
      9 C           1.1742   -0.9378    0.3796 C.ar    1  UNL1        0.3362
     10 O           1.5308   -1.7518    1.2667 O.2     1  UNL1       -0.2459
     11 N           0.0688   -1.0747   -0.4102 N.ar    1  UNL1       -0.2873
     12 C          -0.8896   -2.1673   -0.3802 C.3     1  UNL1        0.0532
     13 C          -1.9666   -1.8609    0.5779 C.ar    1  UNL1       -0.0272
     14 C          -1.7860   -2.2447    1.9085 C.ar    1  UNL1       -0.0568
     15 C          -2.7629   -1.9803    2.8341 C.ar    1  UNL1       -0.0611
     16 C          -3.9173   -1.3382    2.4493 C.ar    1  UNL1       -0.0543
     17 C          -4.1343   -0.9410    1.1372 C.ar    1  UNL1        0.0049
     18 C          -5.3936   -0.2618    0.8108 C.3     1  UNL1        0.2142
     19 C          -6.4203   -1.1979    0.2130 C.3     1  UNL1       -0.0116
     20 O          -5.9103    0.3414    1.9831 O.2     1  UNL1       -0.4308
     21 C          -6.5856    1.4855    1.5825 C.2     1  UNL1        0.3808
     22 O          -7.5640    2.1569    2.3412 O.2     1  UNL1       -0.4673
     23 N          -6.1966    1.8596    0.4105 N.am    1  UNL1       -0.1074
     24 C          -5.1938    0.9420   -0.0557 C.2     1  UNL1        0.2899
     25 O          -4.3729    1.1515   -0.9732 O.2     1  UNL1       -0.2687
     26 C          -3.1305   -1.2206    0.2214 C.ar    1  UNL1       -0.0494
     27 C           0.0562   -0.0019   -1.2111 C.ar    1  UNL1        0.0712
     28 C          -0.8527    0.3503   -2.2050 C.ar    1  UNL1       -0.0244
     29 C          -0.6636    1.5091   -2.9080 C.ar    1  UNL1        0.0569
     30 C          -1.6255    1.9187   -3.9870 C.3     1  UNL1        0.4175
     31 F          -0.9375    2.4918   -5.0150 F       1  UNL1       -0.1659
     32 F          -2.2363    0.7517   -4.4374 F       1  UNL1       -0.1659
     33 F          -2.5579    2.7823   -3.4882 F       1  UNL1       -0.1659
     34 C           0.4185    2.3130   -2.6281 C.ar    1  UNL1       -0.0480
     35 C           1.3195    1.9677   -1.6459 C.ar    1  UNL1       -0.0351
     36 C           1.1296    0.7899   -0.9296 C.ar    1  UNL1        0.0766
     37 N           3.1589    1.7838    1.4317 N.ar    1  UNL1       -0.0587
     38 O           4.4388    1.9319    1.7180 O.2     1  UNL1       -0.3525
     39 C           5.1404    0.9998    1.1214 C.ar    1  UNL1        0.1728
     40 C           6.5000    0.7146    1.0965 C.ar    1  UNL1        0.0257
     41 H           9.1294    1.1727    0.6625 H       1  UNL1        0.0660
     42 H           8.9244    0.0996    2.1125 H       1  UNL1        0.0660
     43 H          10.2623   -0.2194    0.9616 H       1  UNL1        0.0660
     44 H           6.4298   -1.9661   -0.9066 H       1  UNL1        0.0654
     45 H           4.0230   -1.4814   -0.8772 H       1  UNL1        0.0627
     46 H          -1.2700   -2.3941   -1.3906 H       1  UNL1        0.0543
     47 H          -0.3546   -3.0869   -0.0298 H       1  UNL1        0.0543
     48 H          -0.8621   -2.7507    2.1811 H       1  UNL1        0.0621
     49 H          -2.6115   -2.2850    3.8735 H       1  UNL1        0.0618
     50 H          -4.6972   -1.1282    3.1931 H       1  UNL1        0.0622
     51 H          -6.0213   -2.2258    0.2573 H       1  UNL1        0.0276
     52 H          -6.6440   -0.9224   -0.8522 H       1  UNL1        0.0276
     53 H          -7.3771   -1.1765    0.7752 H       1  UNL1        0.0276
     54 H          -8.0935    2.8811    1.8624 H       1  UNL1        0.2967
     55 H          -3.3056   -0.9137   -0.7849 H       1  UNL1        0.0625
     56 H          -1.7053   -0.2734   -2.4356 H       1  UNL1        0.0644
     57 H           0.5690    3.2284   -3.1823 H       1  UNL1        0.0624
     58 H           2.1850    2.5861   -1.4038 H       1  UNL1        0.0639
     59 H           7.1908    1.3419    1.6580 H       1  UNL1        0.0692
@<TRIPOS>BOND
     1     1     2    1
     2     2     3    1
     3     3     4   ar
     4     4     5   ar
     5     5     6   ar
     6     6     7   ar
     7     7     8    1
     8     8     9   ar
     9     9    10    2
    10     9    11   ar
    11    11    12    1
    12    12    13    1
    13    13    14   ar
    14    14    15   ar
    15    15    16   ar
    16    16    17   ar
    17    17    18    1
    18    18    19    1
    19    18    20    1
    20    20    21    1
    21    21    22    1
    22    21    23    2
    23    23    24    1
    24    24    25    2
    25    17    26   ar
    26    11    27   ar
    27    27    28   ar
    28    28    29   ar
    29    29    30    1
    30    30    31    1
    31    30    32    1
    32    30    33    1
    33    29    34   ar
    34    34    35   ar
    35    35    36   ar
    36     7    37   ar
    37    37    38   ar
    38    38    39   ar
    39    39    40   ar
    40    40     3   ar
    41    39     6   ar
    42    36     8   ar
    43    26    13   ar
    44    36    27   ar
    45    24    18    1
    46     1    41    1
    47     1    42    1
    48     1    43    1
    49     4    44    1
    50     5    45    1
    51    12    46    1
    52    12    47    1
    53    14    48    1
    54    15    49    1
    55    16    50    1
    56    19    51    1
    57    19    52    1
    58    19    53    1
    59    22    54    1
    60    26    55    1
    61    28    56    1
    62    34    57    1
    63    35    58    1
    64    40    59    1
