
     RDKit          3D

 52 54  0  0  0  0  0  0  0  0999 V2000
   -1.3178   -1.7925   -0.3331 C   0  0  0  0  0  0  0  0  0  0  0  0
   -2.2121   -0.7546    0.2397 C   0  0  0  0  0  0  0  0  0  0  0  0
   -3.5393   -0.7473   -0.1407 C   0  0  0  0  0  0  0  0  0  0  0  0
   -4.4209    0.1813    0.3575 C   0  0  0  0  0  0  0  0  0  0  0  0
   -5.7537    0.2042   -0.0127 O   0  0  0  0  0  0  0  0  0  0  0  0
   -6.2970   -0.7296   -0.9296 C   0  0  0  0  0  0  0  0  0  0  0  0
   -7.7417   -0.4555   -1.1288 C   0  0  0  0  0  0  0  0  0  0  0  0
   -8.5930    0.4976   -0.6044 O   0  0  0  0  0  0  0  0  0  0  0  0
   -8.5179   -1.0942   -1.8728 O   0  0  0  0  0  0  0  0  0  0  0  0
   -3.9143    1.0963    1.2492 C   0  0  0  0  0  0  0  0  0  0  0  0
   -2.5740    1.1119    1.6527 C   0  0  0  0  0  0  0  0  0  0  0  0
   -2.2239    2.1655    2.6434 C   0  0  0  0  0  0  0  0  0  0  0  0
   -1.6695    0.1649    1.1449 C   0  0  0  0  0  0  0  0  0  0  0  0
   -0.2848    0.2088    1.5959 C   0  0  0  0  0  0  0  0  0  0  0  0
    0.7190    0.7067    0.6625 C   0  0  0  0  0  0  0  0  0  0  0  0
    0.9846    2.0372    0.4086 C   0  0  0  0  0  0  0  0  0  0  0  0
    1.9495    2.5054   -0.4679 C   0  0  0  0  0  0  0  0  0  0  0  0
    2.7298    1.6050   -1.1631 C   0  0  0  0  0  0  0  0  0  0  0  0
    3.6829    2.0747   -2.0287 O   0  0  0  0  0  0  0  0  0  0  0  0
    2.5438    0.2523   -0.9804 C   0  0  0  0  0  0  0  0  0  0  0  0
    3.3532   -0.7694   -1.7000 C   0  0  0  0  0  0  0  0  0  0  0  0
    4.7063   -0.9457   -1.1704 C   0  0  0  0  0  0  0  0  0  0  0  0
    5.8851   -0.3490   -1.5407 C   0  0  0  0  0  0  0  0  0  0  0  0
    7.0608   -0.6537   -0.9075 C   0  0  0  0  0  0  0  0  0  0  0  0
    7.1130   -1.5665    0.1226 C   0  0  0  0  0  0  0  0  0  0  0  0
    5.9387   -2.1888    0.5225 C   0  0  0  0  0  0  0  0  0  0  0  0
    4.7671   -1.8704   -0.1250 C   0  0  0  0  0  0  0  0  0  0  0  0
    1.5567   -0.1259   -0.0847 C   0  0  0  0  0  0  0  0  0  0  0  0
   -0.6468   -2.2277    0.4628 H   0  0  0  0  0  0  0  0  0  0  0  0
   -1.9850   -2.6672   -0.5941 H   0  0  0  0  0  0  0  0  0  0  0  0
   -0.7521   -1.4590   -1.2019 H   0  0  0  0  0  0  0  0  0  0  0  0
   -3.8744   -1.4979   -0.8483 H   0  0  0  0  0  0  0  0  0  0  0  0
   -6.1992   -1.7710   -0.5453 H   0  0  0  0  0  0  0  0  0  0  0  0
   -5.7240   -0.6621   -1.8689 H   0  0  0  0  0  0  0  0  0  0  0  0
   -9.0197    1.2336   -1.1222 H   0  0  0  0  0  0  0  0  0  0  0  0
   -4.6238    1.8240    1.6342 H   0  0  0  0  0  0  0  0  0  0  0  0
   -2.4639    1.8268    3.6859 H   0  0  0  0  0  0  0  0  0  0  0  0
   -2.9067    3.0289    2.4797 H   0  0  0  0  0  0  0  0  0  0  0  0
   -1.2140    2.5605    2.5535 H   0  0  0  0  0  0  0  0  0  0  0  0
    0.0076   -0.8616    1.8209 H   0  0  0  0  0  0  0  0  0  0  0  0
   -0.2264    0.7852    2.5443 H   0  0  0  0  0  0  0  0  0  0  0  0
    0.4305    2.8118    0.8992 H   0  0  0  0  0  0  0  0  0  0  0  0
    2.1211    3.5554   -0.6338 H   0  0  0  0  0  0  0  0  0  0  0  0
    3.7602    2.9988   -2.3796 H   0  0  0  0  0  0  0  0  0  0  0  0
    3.3821   -0.4537   -2.7690 H   0  0  0  0  0  0  0  0  0  0  0  0
    2.7719   -1.7147   -1.7052 H   0  0  0  0  0  0  0  0  0  0  0  0
    5.7862    0.3529   -2.3494 H   0  0  0  0  0  0  0  0  0  0  0  0
    7.9535   -0.1468   -1.2489 H   0  0  0  0  0  0  0  0  0  0  0  0
    8.0587   -1.7628    0.5780 H   0  0  0  0  0  0  0  0  0  0  0  0
    6.0474   -2.8828    1.3225 H   0  0  0  0  0  0  0  0  0  0  0  0
    3.9219   -2.4314    0.2892 H   0  0  0  0  0  0  0  0  0  0  0  0
    1.4644   -1.2077    0.0213 H   0  0  0  0  0  0  0  0  0  0  0  0
  1  2  1  0
  2  3  2  0
  3  4  1  0
  4  5  1  0
  5  6  1  0
  6  7  1  0
  7  8  1  0
  7  9  2  0
  4 10  2  0
 10 11  1  0
 11 12  1  0
 11 13  2  0
 13 14  1  0
 14 15  1  0
 15 16  2  0
 16 17  1  0
 17 18  2  0
 18 19  1  0
 18 20  1  0
 20 21  1  0
 21 22  1  0
 22 23  2  0
 23 24  1  0
 24 25  2  0
 25 26  1  0
 26 27  2  0
 20 28  2  0
 13  2  1  0
 28 15  1  0
 27 22  1  0
  1 29  1  0
  1 30  1  0
  1 31  1  0
  3 32  1  0
  6 33  1  0
  6 34  1  0
  8 35  1  0
 10 36  1  0
 12 37  1  0
 12 38  1  0
 12 39  1  0
 14 40  1  0
 14 41  1  0
 16 42  1  0
 17 43  1  0
 19 44  1  0
 21 45  1  0
 21 46  1  0
 23 47  1  0
 24 48  1  0
 25 49  1  0
 26 50  1  0
 27 51  1  0
 28 52  1  0
M  END
$$$$
