@<TRIPOS>MOLECULE
*****
 52 54 0 0 0
SMALL
GASTEIGER

@<TRIPOS>ATOM
      1 C          -1.3178   -1.7925   -0.3331 C.3     1  UNL1       -0.0393
      2 C          -2.2121   -0.7546    0.2397 C.ar    1  UNL1       -0.0433
      3 C          -3.5393   -0.7473   -0.1407 C.ar    1  UNL1       -0.0167
      4 C          -4.4209    0.1813    0.3575 C.ar    1  UNL1        0.1218
      5 O          -5.7537    0.2042   -0.0127 O.3     1  UNL1       -0.4808
      6 C          -6.2970   -0.7296   -0.9296 C.3     1  UNL1        0.1857
      7 C          -7.7417   -0.4555   -1.1288 C.2     1  UNL1        0.3427
      8 O          -8.5930    0.4976   -0.6044 O.3     1  UNL1       -0.4783
      9 O          -8.5179   -1.0942   -1.8728 O.2     1  UNL1       -0.2472
     10 C          -3.9143    1.0963    1.2492 C.ar    1  UNL1       -0.0167
     11 C          -2.5740    1.1119    1.6527 C.ar    1  UNL1       -0.0433
     12 C          -2.2239    2.1655    2.6434 C.3     1  UNL1       -0.0393
     13 C          -1.6695    0.1649    1.1449 C.ar    1  UNL1       -0.0370
     14 C          -0.2848    0.2088    1.5959 C.3     1  UNL1       -0.0019
     15 C           0.7190    0.7067    0.6625 C.ar    1  UNL1       -0.0426
     16 C           0.9846    2.0372    0.4086 C.ar    1  UNL1       -0.0548
     17 C           1.9495    2.5054   -0.4679 C.ar    1  UNL1       -0.0196
     18 C           2.7298    1.6050   -1.1631 C.ar    1  UNL1        0.1203
     19 O           3.6829    2.0747   -2.0287 O.3     1  UNL1       -0.5065
     20 C           2.5438    0.2523   -0.9804 C.ar    1  UNL1       -0.0014
     21 C           3.3532   -0.7694   -1.7000 C.3     1  UNL1        0.0010
     22 C           4.7063   -0.9457   -1.1704 C.ar    1  UNL1       -0.0429
     23 C           5.8851   -0.3490   -1.5407 C.ar    1  UNL1       -0.0583
     24 C           7.0608   -0.6537   -0.9075 C.ar    1  UNL1       -0.0615
     25 C           7.1130   -1.5665    0.1226 C.ar    1  UNL1       -0.0617
     26 C           5.9387   -2.1888    0.5225 C.ar    1  UNL1       -0.0615
     27 C           4.7671   -1.8704   -0.1250 C.ar    1  UNL1       -0.0583
     28 C           1.5567   -0.1259   -0.0847 C.ar    1  UNL1       -0.0513
     29 H          -0.6468   -2.2277    0.4628 H       1  UNL1        0.0278
     30 H          -1.9850   -2.6672   -0.5941 H       1  UNL1        0.0278
     31 H          -0.7521   -1.4590   -1.2019 H       1  UNL1        0.0278
     32 H          -3.8744   -1.4979   -0.8483 H       1  UNL1        0.0657
     33 H          -6.1992   -1.7710   -0.5453 H       1  UNL1        0.0815
     34 H          -5.7240   -0.6621   -1.8689 H       1  UNL1        0.0815
     35 H          -9.0197    1.2336   -1.1222 H       1  UNL1        0.2952
     36 H          -4.6238    1.8240    1.6342 H       1  UNL1        0.0657
     37 H          -2.4639    1.8268    3.6859 H       1  UNL1        0.0278
     38 H          -2.9067    3.0289    2.4797 H       1  UNL1        0.0278
     39 H          -1.2140    2.5605    2.5535 H       1  UNL1        0.0278
     40 H           0.0076   -0.8616    1.8209 H       1  UNL1        0.0362
     41 H          -0.2264    0.7852    2.5443 H       1  UNL1        0.0362
     42 H           0.4305    2.8118    0.8992 H       1  UNL1        0.0622
     43 H           2.1211    3.5554   -0.6338 H       1  UNL1        0.0654
     44 H           3.7602    2.9988   -2.3796 H       1  UNL1        0.2921
     45 H           3.3821   -0.4537   -2.7690 H       1  UNL1        0.0363
     46 H           2.7719   -1.7147   -1.7052 H       1  UNL1        0.0363
     47 H           5.7862    0.3529   -2.3494 H       1  UNL1        0.0620
     48 H           7.9535   -0.1468   -1.2489 H       1  UNL1        0.0618
     49 H           8.0587   -1.7628    0.5780 H       1  UNL1        0.0618
     50 H           6.0474   -2.8828    1.3225 H       1  UNL1        0.0618
     51 H           3.9219   -2.4314    0.2892 H       1  UNL1        0.0620
     52 H           1.4644   -1.2077    0.0213 H       1  UNL1        0.0624
@<TRIPOS>BOND
     1     1     2    1
     2     2     3   ar
     3     3     4   ar
     4     4     5    1
     5     5     6    1
     6     6     7    1
     7     7     8    1
     8     7     9    2
     9     4    10   ar
    10    10    11   ar
    11    11    12    1
    12    11    13   ar
    13    13    14    1
    14    14    15    1
    15    15    16   ar
    16    16    17   ar
    17    17    18   ar
    18    18    19    1
    19    18    20   ar
    20    20    21    1
    21    21    22    1
    22    22    23   ar
    23    23    24   ar
    24    24    25   ar
    25    25    26   ar
    26    26    27   ar
    27    20    28   ar
    28    13     2   ar
    29    28    15   ar
    30    27    22   ar
    31     1    29    1
    32     1    30    1
    33     1    31    1
    34     3    32    1
    35     6    33    1
    36     6    34    1
    37     8    35    1
    38    10    36    1
    39    12    37    1
    40    12    38    1
    41    12    39    1
    42    14    40    1
    43    14    41    1
    44    16    42    1
    45    17    43    1
    46    19    44    1
    47    21    45    1
    48    21    46    1
    49    23    47    1
    50    24    48    1
    51    25    49    1
    52    26    50    1
    53    27    51    1
    54    28    52    1
