
     RDKit          3D

 42 44  0  0  0  0  0  0  0  0999 V2000
    1.9835    0.4606   -3.0078 Cl  0  0  0  0  0  0  0  0  0  0  0  0
    2.8029   -0.1492   -1.5749 C   0  0  0  0  0  0  0  0  0  0  0  0
    3.9010   -0.9453   -1.7892 C   0  0  0  0  0  0  0  0  0  0  0  0
    4.5792   -1.4486   -0.7133 C   0  0  0  0  0  0  0  0  0  0  0  0
    4.1508   -1.1492    0.5607 C   0  0  0  0  0  0  0  0  0  0  0  0
    3.0461   -0.3481    0.7497 C   0  0  0  0  0  0  0  0  0  0  0  0
    2.3296    0.1828   -0.3203 C   0  0  0  0  0  0  0  0  0  0  0  0
    1.1722    1.0328   -0.1800 C   0  0  0  0  0  0  0  0  0  0  0  0
   -0.1936    0.5129   -0.3591 C   0  0  0  0  0  0  0  0  0  0  0  0
   -1.1199    1.7002   -0.1678 C   0  0  0  0  0  0  0  0  0  0  0  0
   -1.6072    2.3002   -1.2831 C   0  0  0  0  0  0  0  0  0  0  0  0
   -2.4538    3.3977   -1.1362 C   0  0  0  0  0  0  0  0  0  0  0  0
   -2.7728    3.8433    0.1292 C   0  0  0  0  0  0  0  0  0  0  0  0
   -2.2667    3.2193    1.2486 C   0  0  0  0  0  0  0  0  0  0  0  0
   -1.4375    2.1437    1.0815 C   0  0  0  0  0  0  0  0  0  0  0  0
   -0.6252   -0.5511    0.5292 N   0  0  0  0  0  0  0  0  0  0  0  0
   -2.0444   -0.7543    0.2291 C   0  0  0  0  0  0  0  0  0  0  0  0
   -2.6217   -1.8788    1.0550 C   0  0  0  0  0  0  0  0  0  0  0  0
   -1.7494   -3.0244    1.1040 N   0  0  0  0  0  0  0  0  0  0  0  0
   -0.7633   -2.9829    0.0825 C   0  0  0  0  0  0  0  0  0  0  0  0
    0.1224   -1.7431    0.3244 C   0  0  0  0  0  0  0  0  0  0  0  0
    4.2368   -1.1796   -2.8057 H   0  0  0  0  0  0  0  0  0  0  0  0
    5.4475   -2.0794   -0.8644 H   0  0  0  0  0  0  0  0  0  0  0  0
    4.7184   -1.5693    1.3725 H   0  0  0  0  0  0  0  0  0  0  0  0
    2.7493   -0.1421    1.7656 H   0  0  0  0  0  0  0  0  0  0  0  0
    1.2595    1.5177    0.8507 H   0  0  0  0  0  0  0  0  0  0  0  0
    1.2403    1.9694   -0.8336 H   0  0  0  0  0  0  0  0  0  0  0  0
   -0.3943    0.1544   -1.3831 H   0  0  0  0  0  0  0  0  0  0  0  0
   -1.3612    1.9551   -2.3052 H   0  0  0  0  0  0  0  0  0  0  0  0
   -2.8490    3.8850   -2.0219 H   0  0  0  0  0  0  0  0  0  0  0  0
   -3.4357    4.7018    0.2115 H   0  0  0  0  0  0  0  0  0  0  0  0
   -2.5277    3.5822    2.2412 H   0  0  0  0  0  0  0  0  0  0  0  0
   -1.0592    1.6800    1.9923 H   0  0  0  0  0  0  0  0  0  0  0  0
   -2.1812   -0.9902   -0.8439 H   0  0  0  0  0  0  0  0  0  0  0  0
   -2.6489    0.1393    0.4470 H   0  0  0  0  0  0  0  0  0  0  0  0
   -3.5666   -2.1868    0.5679 H   0  0  0  0  0  0  0  0  0  0  0  0
   -2.8791   -1.5341    2.0755 H   0  0  0  0  0  0  0  0  0  0  0  0
   -1.4037   -3.2906    2.0285 H   0  0  0  0  0  0  0  0  0  0  0  0
   -0.0635   -3.8442    0.1872 H   0  0  0  0  0  0  0  0  0  0  0  0
   -1.2020   -2.9101   -0.9132 H   0  0  0  0  0  0  0  0  0  0  0  0
    0.7452   -1.9763    1.2382 H   0  0  0  0  0  0  0  0  0  0  0  0
    0.7429   -1.7003   -0.5657 H   0  0  0  0  0  0  0  0  0  0  0  0
  1  2  1  0
  2  3  2  0
  3  4  1  0
  4  5  2  0
  5  6  1  0
  6  7  2  0
  7  8  1  0
  8  9  1  0
  9 10  1  0
 10 11  2  0
 11 12  1  0
 12 13  2  0
 13 14  1  0
 14 15  2  0
  9 16  1  0
 16 17  1  0
 17 18  1  0
 18 19  1  0
 19 20  1  0
 20 21  1  0
  7  2  1  0
 15 10  1  0
 21 16  1  0
  3 22  1  0
  4 23  1  0
  5 24  1  0
  6 25  1  0
  8 26  1  0
  8 27  1  0
  9 28  1  0
 11 29  1  0
 12 30  1  0
 13 31  1  0
 14 32  1  0
 15 33  1  0
 17 34  1  0
 17 35  1  0
 18 36  1  0
 18 37  1  0
 19 38  1  0
 20 39  1  0
 20 40  1  0
 21 41  1  0
 21 42  1  0
M  END
$$$$
