@<TRIPOS>MOLECULE
*****
 42 44 0 0 0
SMALL
GASTEIGER

@<TRIPOS>ATOM
      1 CL          1.9835    0.4606   -3.0078 Cl      1  UNL1       -0.0833
      2 C           2.8029   -0.1492   -1.5749 C.ar    1  UNL1        0.0442
      3 C           3.9010   -0.9453   -1.7892 C.ar    1  UNL1       -0.0431
      4 C           4.5792   -1.4486   -0.7133 C.ar    1  UNL1       -0.0604
      5 C           4.1508   -1.1492    0.5607 C.ar    1  UNL1       -0.0614
      6 C           3.0461   -0.3481    0.7497 C.ar    1  UNL1       -0.0571
      7 C           2.3296    0.1828   -0.3203 C.ar    1  UNL1       -0.0273
      8 C           1.1722    1.0328   -0.1800 C.3     1  UNL1       -0.0065
      9 C          -0.1936    0.5129   -0.3591 C.3     1  UNL1        0.0397
     10 C          -1.1199    1.7002   -0.1678 C.ar    1  UNL1       -0.0300
     11 C          -1.6072    2.3002   -1.2831 C.ar    1  UNL1       -0.0571
     12 C          -2.4538    3.3977   -1.1362 C.ar    1  UNL1       -0.0615
     13 C          -2.7728    3.8433    0.1292 C.ar    1  UNL1       -0.0617
     14 C          -2.2667    3.2193    1.2486 C.ar    1  UNL1       -0.0615
     15 C          -1.4375    2.1437    1.0815 C.ar    1  UNL1       -0.0571
     16 N          -0.6252   -0.5511    0.5292 N.3     1  UNL1       -0.2927
     17 C          -2.0444   -0.7543    0.2291 C.3     1  UNL1        0.0121
     18 C          -2.6217   -1.8788    1.0550 C.3     1  UNL1        0.0087
     19 N          -1.7494   -3.0244    1.1040 N.3     1  UNL1       -0.3136
     20 C          -0.7633   -2.9829    0.0825 C.3     1  UNL1        0.0087
     21 C           0.1224   -1.7431    0.3244 C.3     1  UNL1        0.0121
     22 H           4.2368   -1.1796   -2.8057 H       1  UNL1        0.0632
     23 H           5.4475   -2.0794   -0.8644 H       1  UNL1        0.0618
     24 H           4.7184   -1.5693    1.3725 H       1  UNL1        0.0618
     25 H           2.7493   -0.1421    1.7656 H       1  UNL1        0.0621
     26 H           1.2595    1.5177    0.8507 H       1  UNL1        0.0332
     27 H           1.2403    1.9694   -0.8336 H       1  UNL1        0.0332
     28 H          -0.3943    0.1544   -1.3831 H       1  UNL1        0.0515
     29 H          -1.3612    1.9551   -2.3052 H       1  UNL1        0.0621
     30 H          -2.8490    3.8850   -2.0219 H       1  UNL1        0.0618
     31 H          -3.4357    4.7018    0.2115 H       1  UNL1        0.0618
     32 H          -2.5277    3.5822    2.2412 H       1  UNL1        0.0618
     33 H          -1.0592    1.6800    1.9923 H       1  UNL1        0.0621
     34 H          -2.1812   -0.9902   -0.8439 H       1  UNL1        0.0439
     35 H          -2.6489    0.1393    0.4470 H       1  UNL1        0.0439
     36 H          -3.5666   -2.1868    0.5679 H       1  UNL1        0.0437
     37 H          -2.8791   -1.5341    2.0755 H       1  UNL1        0.0437
     38 H          -1.4037   -3.2906    2.0285 H       1  UNL1        0.1220
     39 H          -0.0635   -3.8442    0.1872 H       1  UNL1        0.0437
     40 H          -1.2020   -2.9101   -0.9132 H       1  UNL1        0.0437
     41 H           0.7452   -1.9763    1.2382 H       1  UNL1        0.0439
     42 H           0.7429   -1.7003   -0.5657 H       1  UNL1        0.0439
@<TRIPOS>BOND
     1     1     2    1
     2     2     3   ar
     3     3     4   ar
     4     4     5   ar
     5     5     6   ar
     6     6     7   ar
     7     7     8    1
     8     8     9    1
     9     9    10    1
    10    10    11   ar
    11    11    12   ar
    12    12    13   ar
    13    13    14   ar
    14    14    15   ar
    15     9    16    1
    16    16    17    1
    17    17    18    1
    18    18    19    1
    19    19    20    1
    20    20    21    1
    21     7     2   ar
    22    15    10   ar
    23    21    16    1
    24     3    22    1
    25     4    23    1
    26     5    24    1
    27     6    25    1
    28     8    26    1
    29     8    27    1
    30     9    28    1
    31    11    29    1
    32    12    30    1
    33    13    31    1
    34    14    32    1
    35    15    33    1
    36    17    34    1
    37    17    35    1
    38    18    36    1
    39    18    37    1
    40    19    38    1
    41    20    39    1
    42    20    40    1
    43    21    41    1
    44    21    42    1
