@<TRIPOS>MOLECULE
*****
 37 39 0 0 0
SMALL
GASTEIGER

@<TRIPOS>ATOM
      1 C          -1.3155   -3.8991    0.4855 C.3     1  UNL1       -0.0222
      2 C          -1.0962   -2.4398    0.6573 C.ar    1  UNL1        0.0426
      3 C          -2.1143   -1.5849    1.0113 C.ar    1  UNL1        0.0018
      4 C          -1.9500   -0.2263    1.1800 C.ar    1  UNL1        0.1324
      5 O          -2.9547    0.6399    1.5327 O.3     1  UNL1       -0.4543
      6 C          -3.7688    1.2982    0.6243 C.ar    1  UNL1        0.1492
      7 C          -3.4122    2.5402    0.1294 C.ar    1  UNL1        0.0700
      8 N          -4.2140    3.1793   -0.7600 N.ar    1  UNL1       -0.2568
      9 C          -5.3644    2.6623   -1.1993 C.ar    1  UNL1        0.0630
     10 C          -5.7417    1.4199   -0.7176 C.ar    1  UNL1        0.1449
     11 F          -6.9132    0.8714   -1.1522 F       1  UNL1       -0.2038
     12 C          -4.9467    0.7305    0.1967 C.ar    1  UNL1        0.0189
     13 C          -0.6648    0.2770    0.9720 C.ar    1  UNL1        0.0112
     14 C           0.3534   -0.5745    0.6184 C.ar    1  UNL1        0.1295
     15 C           1.6789   -0.0114    0.4105 C.2     1  UNL1        0.2678
     16 O           1.9034    1.2380    0.5495 O.2     1  UNL1       -0.2681
     17 N           2.8012   -0.8012    0.0434 N.am    1  UNL1       -0.2650
     18 C           4.0691   -0.1860   -0.1439 C.ar    1  UNL1        0.1279
     19 C           4.5213    0.3122   -1.3268 C.ar    1  UNL1        0.0137
     20 C           5.7662    0.8981   -1.4385 C.ar    1  UNL1        0.1281
     21 F           6.2117    1.3955   -2.6295 F       1  UNL1       -0.2053
     22 C           6.5623    0.9738   -0.3137 C.ar    1  UNL1       -0.0082
     23 C           6.0991    0.4660    0.8873 C.ar    1  UNL1        0.0324
     24 N           4.8797   -0.0905    0.9272 N.ar    1  UNL1       -0.2399
     25 N           0.1346   -1.8853    0.4690 N.ar    1  UNL1       -0.2470
     26 H          -1.7317   -4.3660    1.4043 H       1  UNL1        0.0293
     27 H          -0.3319   -4.3682    0.2920 H       1  UNL1        0.0293
     28 H          -1.9881   -4.1076   -0.3903 H       1  UNL1        0.0293
     29 H          -3.1127   -1.9846    1.1716 H       1  UNL1        0.0672
     30 H          -2.4838    2.9823    0.4695 H       1  UNL1        0.0867
     31 H          -6.0209    3.1503   -1.9069 H       1  UNL1        0.0859
     32 H          -5.2230   -0.2360    0.5826 H       1  UNL1        0.0684
     33 H          -0.4840    1.3422    1.0928 H       1  UNL1        0.0677
     34 H           2.6566   -1.8299   -0.0799 H       1  UNL1        0.1566
     35 H           3.8932    0.2492   -2.2006 H       1  UNL1        0.0681
     36 H           7.5607    1.4333   -0.3619 H       1  UNL1        0.0661
     37 H           6.7412    0.5317    1.7759 H       1  UNL1        0.0831
@<TRIPOS>BOND
     1     1     2    1
     2     2     3   ar
     3     3     4   ar
     4     4     5    1
     5     5     6    1
     6     6     7   ar
     7     7     8   ar
     8     8     9   ar
     9     9    10   ar
    10    10    11    1
    11    10    12   ar
    12     4    13   ar
    13    13    14   ar
    14    14    15    1
    15    15    16    2
    16    15    17   am
    17    17    18    1
    18    18    19   ar
    19    19    20   ar
    20    20    21    1
    21    20    22   ar
    22    22    23   ar
    23    23    24   ar
    24    14    25   ar
    25    25     2   ar
    26    12     6   ar
    27    24    18   ar
    28     1    26    1
    29     1    27    1
    30     1    28    1
    31     3    29    1
    32     7    30    1
    33     9    31    1
    34    12    32    1
    35    13    33    1
    36    17    34    1
    37    19    35    1
    38    22    36    1
    39    23    37    1
