@<TRIPOS>MOLECULE
*****
 52 55 0 0 0
SMALL
GASTEIGER

@<TRIPOS>ATOM
      1 C           4.6135   -2.3080    3.6382 C.3     1  UNL1        0.0790
      2 O           5.4818   -1.3897    2.9979 O.3     1  UNL1       -0.4914
      3 C           4.9549   -0.6619    1.9229 C.ar    1  UNL1        0.1618
      4 C           3.6532   -0.8233    1.4993 C.ar    1  UNL1       -0.0121
      5 C           3.1512   -0.0889    0.4287 C.ar    1  UNL1       -0.0285
      6 C           3.9643    0.8104   -0.2134 C.ar    1  UNL1        0.0291
      7 C           5.2793    0.9618    0.2272 C.ar    1  UNL1       -0.0052
      8 C           5.7864    0.2417    1.2827 C.ar    1  UNL1        0.1622
      9 O           7.0897    0.3764    1.7374 O.3     1  UNL1       -0.4914
     10 C           8.0282    1.2490    1.1828 C.3     1  UNL1        0.0790
     11 C           3.1723    1.4442   -1.2554 C.2     1  UNL1        0.1899
     12 O           3.5491    2.3216   -2.0659 O.2     1  UNL1       -0.2870
     13 C           1.8029    0.8974   -1.2373 C.2     1  UNL1        0.0047
     14 C           0.7887    1.3018   -1.9884 C.2     1  UNL1       -0.0474
     15 C          -0.5364    0.7472   -1.9501 C.ar    1  UNL1       -0.0246
     16 C          -1.6092    1.6390   -1.8432 C.ar    1  UNL1       -0.0543
     17 C          -2.9176    1.1713   -1.8343 C.ar    1  UNL1       -0.0568
     18 C          -3.1944   -0.1762   -1.9298 C.ar    1  UNL1       -0.0333
     19 C          -4.6046   -0.6490   -1.9172 C.3     1  UNL1        0.0240
     20 N          -5.0814   -0.9527   -0.5832 N.3     1  UNL1       -0.2982
     21 C          -5.0595    0.1816    0.2930 C.3     1  UNL1       -0.0007
     22 C          -6.0918   -0.1857    1.3473 C.3     1  UNL1       -0.0390
     23 C          -7.1736   -0.8360    0.5233 C.3     1  UNL1       -0.0390
     24 C          -6.4053   -1.5031   -0.5981 C.3     1  UNL1       -0.0007
     25 C          -2.1333   -1.0488   -2.0351 C.ar    1  UNL1       -0.0568
     26 C          -0.8078   -0.5838   -2.0452 C.ar    1  UNL1       -0.0543
     27 C           1.7888   -0.1425   -0.1983 C.3     1  UNL1        0.0020
     28 H           4.1975   -3.0557    2.9075 H       1  UNL1        0.0660
     29 H           5.0928   -2.8557    4.4510 H       1  UNL1        0.0660
     30 H           3.7233   -1.7088    3.9622 H       1  UNL1        0.0660
     31 H           3.0345   -1.5355    2.0220 H       1  UNL1        0.0658
     32 H           5.8859    1.6679   -0.2928 H       1  UNL1        0.0662
     33 H           9.0557    0.8238    1.2524 H       1  UNL1        0.0660
     34 H           7.8725    1.4611    0.1034 H       1  UNL1        0.0660
     35 H           8.0143    2.1915    1.8038 H       1  UNL1        0.0660
     36 H           0.9855    2.1330   -2.6992 H       1  UNL1        0.0627
     37 H          -1.3796    2.6934   -1.7682 H       1  UNL1        0.0624
     38 H          -3.7235    1.9052   -1.7509 H       1  UNL1        0.0621
     39 H          -5.2695    0.1487   -2.3534 H       1  UNL1        0.0476
     40 H          -4.7100   -1.5141   -2.5963 H       1  UNL1        0.0476
     41 H          -5.3496    1.1161   -0.1887 H       1  UNL1        0.0427
     42 H          -4.0889    0.2875    0.8238 H       1  UNL1        0.0427
     43 H          -6.5315    0.7483    1.7920 H       1  UNL1        0.0278
     44 H          -5.6613   -0.8476    2.1038 H       1  UNL1        0.0278
     45 H          -7.9043   -0.0973    0.1307 H       1  UNL1        0.0278
     46 H          -7.7433   -1.5655    1.1399 H       1  UNL1        0.0278
     47 H          -6.4038   -2.6003   -0.3622 H       1  UNL1        0.0427
     48 H          -6.9090   -1.3860   -1.5894 H       1  UNL1        0.0427
     49 H          -2.3154   -2.1158   -2.1124 H       1  UNL1        0.0621
     50 H           0.0056   -1.2948   -2.1490 H       1  UNL1        0.0624
     51 H           1.0091    0.1624    0.5534 H       1  UNL1        0.0363
     52 H           1.6235   -1.1589   -0.5693 H       1  UNL1        0.0363
@<TRIPOS>BOND
     1     1     2    1
     2     2     3    1
     3     3     4   ar
     4     4     5   ar
     5     5     6   ar
     6     6     7   ar
     7     7     8   ar
     8     8     9    1
     9     9    10    1
    10     6    11    1
    11    11    12    2
    12    11    13    1
    13    13    14    2
    14    14    15    1
    15    15    16   ar
    16    16    17   ar
    17    17    18   ar
    18    18    19    1
    19    19    20    1
    20    20    21    1
    21    21    22    1
    22    22    23    1
    23    23    24    1
    24    18    25   ar
    25    25    26   ar
    26    13    27    1
    27     8     3   ar
    28    26    15   ar
    29    27     5    1
    30    24    20    1
    31     1    28    1
    32     1    29    1
    33     1    30    1
    34     4    31    1
    35     7    32    1
    36    10    33    1
    37    10    34    1
    38    10    35    1
    39    14    36    1
    40    16    37    1
    41    17    38    1
    42    19    39    1
    43    19    40    1
    44    21    41    1
    45    21    42    1
    46    22    43    1
    47    22    44    1
    48    23    45    1
    49    23    46    1
    50    24    47    1
    51    24    48    1
    52    25    49    1
    53    26    50    1
    54    27    51    1
    55    27    52    1
