
     RDKit          3D

 52 55  0  0  0  0  0  0  0  0999 V2000
    4.6135   -2.3080    3.6382 C   0  0  0  0  0  0  0  0  0  0  0  0
    5.4818   -1.3897    2.9979 O   0  0  0  0  0  0  0  0  0  0  0  0
    4.9549   -0.6619    1.9229 C   0  0  0  0  0  0  0  0  0  0  0  0
    3.6532   -0.8233    1.4993 C   0  0  0  0  0  0  0  0  0  0  0  0
    3.1512   -0.0889    0.4287 C   0  0  0  0  0  0  0  0  0  0  0  0
    3.9643    0.8104   -0.2134 C   0  0  0  0  0  0  0  0  0  0  0  0
    5.2793    0.9618    0.2272 C   0  0  0  0  0  0  0  0  0  0  0  0
    5.7864    0.2417    1.2827 C   0  0  0  0  0  0  0  0  0  0  0  0
    7.0897    0.3764    1.7374 O   0  0  0  0  0  0  0  0  0  0  0  0
    8.0282    1.2490    1.1828 C   0  0  0  0  0  0  0  0  0  0  0  0
    3.1723    1.4442   -1.2554 C   0  0  0  0  0  0  0  0  0  0  0  0
    3.5491    2.3216   -2.0659 O   0  0  0  0  0  0  0  0  0  0  0  0
    1.8029    0.8974   -1.2373 C   0  0  0  0  0  0  0  0  0  0  0  0
    0.7887    1.3018   -1.9884 C   0  0  0  0  0  0  0  0  0  0  0  0
   -0.5364    0.7472   -1.9501 C   0  0  0  0  0  0  0  0  0  0  0  0
   -1.6092    1.6390   -1.8432 C   0  0  0  0  0  0  0  0  0  0  0  0
   -2.9176    1.1713   -1.8343 C   0  0  0  0  0  0  0  0  0  0  0  0
   -3.1944   -0.1762   -1.9298 C   0  0  0  0  0  0  0  0  0  0  0  0
   -4.6046   -0.6490   -1.9172 C   0  0  0  0  0  0  0  0  0  0  0  0
   -5.0814   -0.9527   -0.5832 N   0  0  0  0  0  0  0  0  0  0  0  0
   -5.0595    0.1816    0.2930 C   0  0  0  0  0  0  0  0  0  0  0  0
   -6.0918   -0.1857    1.3473 C   0  0  0  0  0  0  0  0  0  0  0  0
   -7.1736   -0.8360    0.5233 C   0  0  0  0  0  0  0  0  0  0  0  0
   -6.4053   -1.5031   -0.5981 C   0  0  0  0  0  0  0  0  0  0  0  0
   -2.1333   -1.0488   -2.0351 C   0  0  0  0  0  0  0  0  0  0  0  0
   -0.8078   -0.5838   -2.0452 C   0  0  0  0  0  0  0  0  0  0  0  0
    1.7888   -0.1425   -0.1983 C   0  0  0  0  0  0  0  0  0  0  0  0
    4.1975   -3.0557    2.9075 H   0  0  0  0  0  0  0  0  0  0  0  0
    5.0928   -2.8557    4.4510 H   0  0  0  0  0  0  0  0  0  0  0  0
    3.7233   -1.7088    3.9622 H   0  0  0  0  0  0  0  0  0  0  0  0
    3.0345   -1.5355    2.0220 H   0  0  0  0  0  0  0  0  0  0  0  0
    5.8859    1.6679   -0.2928 H   0  0  0  0  0  0  0  0  0  0  0  0
    9.0557    0.8238    1.2524 H   0  0  0  0  0  0  0  0  0  0  0  0
    7.8725    1.4611    0.1034 H   0  0  0  0  0  0  0  0  0  0  0  0
    8.0143    2.1915    1.8038 H   0  0  0  0  0  0  0  0  0  0  0  0
    0.9855    2.1330   -2.6992 H   0  0  0  0  0  0  0  0  0  0  0  0
   -1.3796    2.6934   -1.7682 H   0  0  0  0  0  0  0  0  0  0  0  0
   -3.7235    1.9052   -1.7509 H   0  0  0  0  0  0  0  0  0  0  0  0
   -5.2695    0.1487   -2.3534 H   0  0  0  0  0  0  0  0  0  0  0  0
   -4.7100   -1.5141   -2.5963 H   0  0  0  0  0  0  0  0  0  0  0  0
   -5.3496    1.1161   -0.1887 H   0  0  0  0  0  0  0  0  0  0  0  0
   -4.0889    0.2875    0.8238 H   0  0  0  0  0  0  0  0  0  0  0  0
   -6.5315    0.7483    1.7920 H   0  0  0  0  0  0  0  0  0  0  0  0
   -5.6613   -0.8476    2.1038 H   0  0  0  0  0  0  0  0  0  0  0  0
   -7.9043   -0.0973    0.1307 H   0  0  0  0  0  0  0  0  0  0  0  0
   -7.7433   -1.5655    1.1399 H   0  0  0  0  0  0  0  0  0  0  0  0
   -6.4038   -2.6003   -0.3622 H   0  0  0  0  0  0  0  0  0  0  0  0
   -6.9090   -1.3860   -1.5894 H   0  0  0  0  0  0  0  0  0  0  0  0
   -2.3154   -2.1158   -2.1124 H   0  0  0  0  0  0  0  0  0  0  0  0
    0.0056   -1.2948   -2.1490 H   0  0  0  0  0  0  0  0  0  0  0  0
    1.0091    0.1624    0.5534 H   0  0  0  0  0  0  0  0  0  0  0  0
    1.6235   -1.1589   -0.5693 H   0  0  0  0  0  0  0  0  0  0  0  0
  1  2  1  0
  2  3  1  0
  3  4  2  0
  4  5  1  0
  5  6  2  0
  6  7  1  0
  7  8  2  0
  8  9  1  0
  9 10  1  0
  6 11  1  0
 11 12  2  0
 11 13  1  0
 13 14  2  0
 14 15  1  0
 15 16  2  0
 16 17  1  0
 17 18  2  0
 18 19  1  0
 19 20  1  0
 20 21  1  0
 21 22  1  0
 22 23  1  0
 23 24  1  0
 18 25  1  0
 25 26  2  0
 13 27  1  0
  8  3  1  0
 26 15  1  0
 27  5  1  0
 24 20  1  0
  1 28  1  0
  1 29  1  0
  1 30  1  0
  4 31  1  0
  7 32  1  0
 10 33  1  0
 10 34  1  0
 10 35  1  0
 14 36  1  0
 16 37  1  0
 17 38  1  0
 19 39  1  0
 19 40  1  0
 21 41  1  0
 21 42  1  0
 22 43  1  0
 22 44  1  0
 23 45  1  0
 23 46  1  0
 24 47  1  0
 24 48  1  0
 25 49  1  0
 26 50  1  0
 27 51  1  0
 27 52  1  0
M  END
$$$$
