@<TRIPOS>MOLECULE
*****
 94 97 0 0 0
SMALL
GASTEIGER

@<TRIPOS>ATOM
      1 C          -4.7820    4.1396    0.9697 C.3     1  UNL1       -0.0605
      2 C          -5.6028    2.8757    0.7578 C.3     1  UNL1       -0.0195
      3 C          -6.8525    3.3057   -0.0227 C.3     1  UNL1       -0.0605
      4 C          -4.8050    1.9537   -0.1533 C.3     1  UNL1        0.1059
      5 N          -5.4863    0.7239   -0.4225 N.am    1  UNL1       -0.2738
      6 C          -5.9212   -0.2488    0.5675 C.3     1  UNL1        0.0183
      7 C          -7.4267   -0.4436    0.5075 C.3     1  UNL1       -0.0214
      8 C          -7.9266   -0.6766   -0.8726 C.3     1  UNL1        0.0145
      9 N          -6.8964   -0.6009   -1.9080 N.am    1  UNL1       -0.2992
     10 C          -5.8299    0.3508   -1.7624 C.2     1  UNL1        0.3028
     11 O          -5.2198    0.8406   -2.7477 O.2     1  UNL1       -0.2526
     12 C          -3.4551    1.6576    0.3834 C.2     1  UNL1        0.2341
     13 O          -2.7491    2.5697    0.9045 O.2     1  UNL1       -0.2738
     14 N          -2.8018    0.3856    0.3851 N.am    1  UNL1       -0.3105
     15 C          -1.4845    0.1012    0.9109 C.3     1  UNL1        0.0295
     16 C          -0.4828   -0.0178   -0.1833 C.3     1  UNL1       -0.0063
     17 C           0.9344   -0.3177    0.3227 C.3     1  UNL1        0.0755
     18 O           1.3151    0.7323    1.2074 O.3     1  UNL1       -0.3899
     19 C           1.8790   -0.1817   -0.8257 C.3     1  UNL1        0.0531
     20 C           1.6195   -1.0001   -2.0351 C.3     1  UNL1       -0.0068
     21 C           1.6429   -2.4664   -1.8526 C.ar    1  UNL1       -0.0455
     22 C           0.6574   -3.3821   -1.5750 C.ar    1  UNL1       -0.0585
     23 C           0.8486   -4.7187   -1.4371 C.ar    1  UNL1       -0.0615
     24 C           2.1330   -5.2287   -1.5827 C.ar    1  UNL1       -0.0617
     25 C           3.1720   -4.3668   -1.8620 C.ar    1  UNL1       -0.0615
     26 C           2.9302   -3.0171   -1.9938 C.ar    1  UNL1       -0.0585
     27 N           3.2683   -0.3108   -0.4272 N.am    1  UNL1       -0.3069
     28 C           4.0953    0.8521   -0.4208 C.2     1  UNL1        0.2510
     29 O           3.8870    2.0370   -0.6983 O.2     1  UNL1       -0.2721
     30 C           5.5407    0.7536   -0.0097 C.3     1  UNL1        0.1652
     31 O           6.1368    2.0278   -0.0828 O.3     1  UNL1       -0.4822
     32 C           7.4593    2.3021    0.2341 C.ar    1  UNL1        0.1270
     33 C           8.3803    2.2087   -0.7952 C.ar    1  UNL1       -0.0085
     34 C           8.0821    1.8456   -2.2132 C.3     1  UNL1       -0.0362
     35 C           9.6924    2.4736   -0.5097 C.ar    1  UNL1       -0.0554
     36 C          10.1209    2.8282    0.7639 C.ar    1  UNL1       -0.0610
     37 C           9.1919    2.9179    1.7818 C.ar    1  UNL1       -0.0554
     38 C           7.8577    2.6490    1.4939 C.ar    1  UNL1       -0.0085
     39 C           6.8842    2.7542    2.5950 C.3     1  UNL1       -0.0362
     40 C          -1.4664   -0.8971    1.9977 C.3     1  UNL1       -0.0091
     41 C          -1.9918   -2.2276    1.7142 C.ar    1  UNL1       -0.0456
     42 C          -1.3828   -3.3785    1.2685 C.ar    1  UNL1       -0.0585
     43 C          -2.0382   -4.5662    1.0437 C.ar    1  UNL1       -0.0615
     44 C          -3.3895   -4.6751    1.2598 C.ar    1  UNL1       -0.0617
     45 C          -4.0558   -3.5615    1.7061 C.ar    1  UNL1       -0.0615
     46 C          -3.3721   -2.3893    1.9211 C.ar    1  UNL1       -0.0585
     47 H          -4.1108    4.3104    0.1065 H       1  UNL1        0.0233
     48 H          -5.4791    4.9886    1.0034 H       1  UNL1        0.0233
     49 H          -4.1908    4.1040    1.9104 H       1  UNL1        0.0233
     50 H          -5.8887    2.3956    1.7032 H       1  UNL1        0.0318
     51 H          -6.4643    3.8256   -0.9279 H       1  UNL1        0.0233
     52 H          -7.4843    3.9542    0.5999 H       1  UNL1        0.0233
     53 H          -7.3456    2.3794   -0.3659 H       1  UNL1        0.0233
     54 H          -4.6640    2.4655   -1.1400 H       1  UNL1        0.0600
     55 H          -5.4946   -1.2398    0.3146 H       1  UNL1        0.0466
     56 H          -5.5872    0.0283    1.5669 H       1  UNL1        0.0466
     57 H          -7.8799    0.4657    0.9708 H       1  UNL1        0.0295
     58 H          -7.7427   -1.2818    1.1545 H       1  UNL1        0.0295
     59 H          -8.7118    0.1055   -1.0899 H       1  UNL1        0.0463
     60 H          -8.4755   -1.6527   -0.9517 H       1  UNL1        0.0463
     61 H          -6.8912   -1.2092   -2.7592 H       1  UNL1        0.1502
     62 H          -3.3154   -0.4150   -0.0356 H       1  UNL1        0.1490
     63 H          -1.2067    1.0903    1.4283 H       1  UNL1        0.0502
     64 H          -0.3710    1.0152   -0.6394 H       1  UNL1        0.0309
     65 H          -0.7864   -0.6436   -1.0200 H       1  UNL1        0.0309
     66 H           0.9054   -1.2284    0.8738 H       1  UNL1        0.0612
     67 H           0.8003    1.5473    0.9119 H       1  UNL1        0.2099
     68 H           1.7714    0.9030   -1.1317 H       1  UNL1        0.0527
     69 H           0.6270   -0.7170   -2.5269 H       1  UNL1        0.0332
     70 H           2.3467   -0.7269   -2.8590 H       1  UNL1        0.0332
     71 H          -0.3027   -2.9247   -1.4764 H       1  UNL1        0.0620
     72 H          -0.0350   -5.2991   -1.2191 H       1  UNL1        0.0618
     73 H           2.2735   -6.2952   -1.4695 H       1  UNL1        0.0618
     74 H           4.1559   -4.8009   -1.9681 H       1  UNL1        0.0618
     75 H           3.8157   -2.4360   -2.2139 H       1  UNL1        0.0620
     76 H           3.7459   -1.1919   -0.1342 H       1  UNL1        0.1492
     77 H           6.0174    0.1501   -0.8128 H       1  UNL1        0.0795
     78 H           5.5614    0.2839    0.9769 H       1  UNL1        0.0795
     79 H           8.7359    1.0264   -2.5754 H       1  UNL1        0.0279
     80 H           8.3530    2.7555   -2.8212 H       1  UNL1        0.0279
     81 H           7.0142    1.6750   -2.3983 H       1  UNL1        0.0279
     82 H          10.4874    2.4285   -1.2457 H       1  UNL1        0.0621
     83 H          11.1733    3.0370    0.9756 H       1  UNL1        0.0618
     84 H           9.5138    3.1941    2.7805 H       1  UNL1        0.0621
     85 H           6.5618    3.8010    2.7697 H       1  UNL1        0.0279
     86 H           7.4223    2.4676    3.5418 H       1  UNL1        0.0279
     87 H           6.0324    2.0559    2.5170 H       1  UNL1        0.0279
     88 H          -0.4373   -0.9832    2.4238 H       1  UNL1        0.0331
     89 H          -2.0578   -0.4573    2.8478 H       1  UNL1        0.0331
     90 H          -0.3196   -3.2542    1.1160 H       1  UNL1        0.0620
     91 H          -1.4628   -5.4102    0.6939 H       1  UNL1        0.0618
     92 H          -3.8198   -5.6422    1.0566 H       1  UNL1        0.0618
     93 H          -5.1180   -3.6669    1.8699 H       1  UNL1        0.0618
     94 H          -3.9814   -1.5903    2.2685 H       1  UNL1        0.0620
@<TRIPOS>BOND
     1     1     2    1
     2     2     3    1
     3     2     4    1
     4     4     5    1
     5     5     6    1
     6     6     7    1
     7     7     8    1
     8     8     9    1
     9     9    10   am
    10    10    11    2
    11     4    12    1
    12    12    13    2
    13    12    14   am
    14    14    15    1
    15    15    16    1
    16    16    17    1
    17    17    18    1
    18    17    19    1
    19    19    20    1
    20    20    21    1
    21    21    22   ar
    22    22    23   ar
    23    23    24   ar
    24    24    25   ar
    25    25    26   ar
    26    19    27    1
    27    27    28   am
    28    28    29    2
    29    28    30    1
    30    30    31    1
    31    31    32    1
    32    32    33   ar
    33    33    34    1
    34    33    35   ar
    35    35    36   ar
    36    36    37   ar
    37    37    38   ar
    38    38    39    1
    39    15    40    1
    40    40    41    1
    41    41    42   ar
    42    42    43   ar
    43    43    44   ar
    44    44    45   ar
    45    45    46   ar
    46    10     5   am
    47    26    21   ar
    48    38    32   ar
    49    46    41   ar
    50     1    47    1
    51     1    48    1
    52     1    49    1
    53     2    50    1
    54     3    51    1
    55     3    52    1
    56     3    53    1
    57     4    54    1
    58     6    55    1
    59     6    56    1
    60     7    57    1
    61     7    58    1
    62     8    59    1
    63     8    60    1
    64     9    61    1
    65    14    62    1
    66    15    63    1
    67    16    64    1
    68    16    65    1
    69    17    66    1
    70    18    67    1
    71    19    68    1
    72    20    69    1
    73    20    70    1
    74    22    71    1
    75    23    72    1
    76    24    73    1
    77    25    74    1
    78    26    75    1
    79    27    76    1
    80    30    77    1
    81    30    78    1
    82    34    79    1
    83    34    80    1
    84    34    81    1
    85    35    82    1
    86    36    83    1
    87    37    84    1
    88    39    85    1
    89    39    86    1
    90    39    87    1
    91    40    88    1
    92    40    89    1
    93    42    90    1
    94    43    91    1
    95    44    92    1
    96    45    93    1
    97    46    94    1
