
     RDKit          3D

 94 97  0  0  0  0  0  0  0  0999 V2000
   -4.7820    4.1396    0.9697 C   0  0  0  0  0  0  0  0  0  0  0  0
   -5.6028    2.8757    0.7578 C   0  0  0  0  0  0  0  0  0  0  0  0
   -6.8525    3.3057   -0.0227 C   0  0  0  0  0  0  0  0  0  0  0  0
   -4.8050    1.9537   -0.1533 C   0  0  2  0  0  0  0  0  0  0  0  0
   -5.4863    0.7239   -0.4225 N   0  0  0  0  0  0  0  0  0  0  0  0
   -5.9212   -0.2488    0.5675 C   0  0  0  0  0  0  0  0  0  0  0  0
   -7.4267   -0.4436    0.5075 C   0  0  0  0  0  0  0  0  0  0  0  0
   -7.9266   -0.6766   -0.8726 C   0  0  0  0  0  0  0  0  0  0  0  0
   -6.8964   -0.6009   -1.9080 N   0  0  0  0  0  0  0  0  0  0  0  0
   -5.8299    0.3508   -1.7624 C   0  0  0  0  0  0  0  0  0  0  0  0
   -5.2198    0.8406   -2.7477 O   0  0  0  0  0  0  0  0  0  0  0  0
   -3.4551    1.6576    0.3834 C   0  0  0  0  0  0  0  0  0  0  0  0
   -2.7491    2.5697    0.9045 O   0  0  0  0  0  0  0  0  0  0  0  0
   -2.8018    0.3856    0.3851 N   0  0  0  0  0  0  0  0  0  0  0  0
   -1.4845    0.1012    0.9109 C   0  0  2  0  0  0  0  0  0  0  0  0
   -0.4828   -0.0178   -0.1833 C   0  0  0  0  0  0  0  0  0  0  0  0
    0.9344   -0.3177    0.3227 C   0  0  2  0  0  0  0  0  0  0  0  0
    1.3151    0.7323    1.2074 O   0  0  0  0  0  0  0  0  0  0  0  0
    1.8790   -0.1817   -0.8257 C   0  0  2  0  0  0  0  0  0  0  0  0
    1.6195   -1.0001   -2.0351 C   0  0  0  0  0  0  0  0  0  0  0  0
    1.6429   -2.4664   -1.8526 C   0  0  0  0  0  0  0  0  0  0  0  0
    0.6574   -3.3821   -1.5750 C   0  0  0  0  0  0  0  0  0  0  0  0
    0.8486   -4.7187   -1.4371 C   0  0  0  0  0  0  0  0  0  0  0  0
    2.1330   -5.2287   -1.5827 C   0  0  0  0  0  0  0  0  0  0  0  0
    3.1720   -4.3668   -1.8620 C   0  0  0  0  0  0  0  0  0  0  0  0
    2.9302   -3.0171   -1.9938 C   0  0  0  0  0  0  0  0  0  0  0  0
    3.2683   -0.3108   -0.4272 N   0  0  0  0  0  0  0  0  0  0  0  0
    4.0953    0.8521   -0.4208 C   0  0  0  0  0  0  0  0  0  0  0  0
    3.8870    2.0370   -0.6983 O   0  0  0  0  0  0  0  0  0  0  0  0
    5.5407    0.7536   -0.0097 C   0  0  0  0  0  0  0  0  0  0  0  0
    6.1368    2.0278   -0.0828 O   0  0  0  0  0  0  0  0  0  0  0  0
    7.4593    2.3021    0.2341 C   0  0  0  0  0  0  0  0  0  0  0  0
    8.3803    2.2087   -0.7952 C   0  0  0  0  0  0  0  0  0  0  0  0
    8.0821    1.8456   -2.2132 C   0  0  0  0  0  0  0  0  0  0  0  0
    9.6924    2.4736   -0.5097 C   0  0  0  0  0  0  0  0  0  0  0  0
   10.1209    2.8282    0.7639 C   0  0  0  0  0  0  0  0  0  0  0  0
    9.1919    2.9179    1.7818 C   0  0  0  0  0  0  0  0  0  0  0  0
    7.8577    2.6490    1.4939 C   0  0  0  0  0  0  0  0  0  0  0  0
    6.8842    2.7542    2.5950 C   0  0  0  0  0  0  0  0  0  0  0  0
   -1.4664   -0.8971    1.9977 C   0  0  0  0  0  0  0  0  0  0  0  0
   -1.9918   -2.2276    1.7142 C   0  0  0  0  0  0  0  0  0  0  0  0
   -1.3828   -3.3785    1.2685 C   0  0  0  0  0  0  0  0  0  0  0  0
   -2.0382   -4.5662    1.0437 C   0  0  0  0  0  0  0  0  0  0  0  0
   -3.3895   -4.6751    1.2598 C   0  0  0  0  0  0  0  0  0  0  0  0
   -4.0558   -3.5615    1.7061 C   0  0  0  0  0  0  0  0  0  0  0  0
   -3.3721   -2.3893    1.9211 C   0  0  0  0  0  0  0  0  0  0  0  0
   -4.1108    4.3104    0.1065 H   0  0  0  0  0  0  0  0  0  0  0  0
   -5.4791    4.9886    1.0034 H   0  0  0  0  0  0  0  0  0  0  0  0
   -4.1908    4.1040    1.9104 H   0  0  0  0  0  0  0  0  0  0  0  0
   -5.8887    2.3956    1.7032 H   0  0  0  0  0  0  0  0  0  0  0  0
   -6.4643    3.8256   -0.9279 H   0  0  0  0  0  0  0  0  0  0  0  0
   -7.4843    3.9542    0.5999 H   0  0  0  0  0  0  0  0  0  0  0  0
   -7.3456    2.3794   -0.3659 H   0  0  0  0  0  0  0  0  0  0  0  0
   -4.6640    2.4655   -1.1400 H   0  0  0  0  0  0  0  0  0  0  0  0
   -5.4946   -1.2398    0.3146 H   0  0  0  0  0  0  0  0  0  0  0  0
   -5.5872    0.0283    1.5669 H   0  0  0  0  0  0  0  0  0  0  0  0
   -7.8799    0.4657    0.9708 H   0  0  0  0  0  0  0  0  0  0  0  0
   -7.7427   -1.2818    1.1545 H   0  0  0  0  0  0  0  0  0  0  0  0
   -8.7118    0.1055   -1.0899 H   0  0  0  0  0  0  0  0  0  0  0  0
   -8.4755   -1.6527   -0.9517 H   0  0  0  0  0  0  0  0  0  0  0  0
   -6.8912   -1.2092   -2.7592 H   0  0  0  0  0  0  0  0  0  0  0  0
   -3.3154   -0.4150   -0.0356 H   0  0  0  0  0  0  0  0  0  0  0  0
   -1.2067    1.0903    1.4283 H   0  0  0  0  0  0  0  0  0  0  0  0
   -0.3710    1.0152   -0.6394 H   0  0  0  0  0  0  0  0  0  0  0  0
   -0.7864   -0.6436   -1.0200 H   0  0  0  0  0  0  0  0  0  0  0  0
    0.9054   -1.2284    0.8738 H   0  0  0  0  0  0  0  0  0  0  0  0
    0.8003    1.5473    0.9119 H   0  0  0  0  0  0  0  0  0  0  0  0
    1.7714    0.9030   -1.1317 H   0  0  0  0  0  0  0  0  0  0  0  0
    0.6270   -0.7170   -2.5269 H   0  0  0  0  0  0  0  0  0  0  0  0
    2.3467   -0.7269   -2.8590 H   0  0  0  0  0  0  0  0  0  0  0  0
   -0.3027   -2.9247   -1.4764 H   0  0  0  0  0  0  0  0  0  0  0  0
   -0.0350   -5.2991   -1.2191 H   0  0  0  0  0  0  0  0  0  0  0  0
    2.2735   -6.2952   -1.4695 H   0  0  0  0  0  0  0  0  0  0  0  0
    4.1559   -4.8009   -1.9681 H   0  0  0  0  0  0  0  0  0  0  0  0
    3.8157   -2.4360   -2.2139 H   0  0  0  0  0  0  0  0  0  0  0  0
    3.7459   -1.1919   -0.1342 H   0  0  0  0  0  0  0  0  0  0  0  0
    6.0174    0.1501   -0.8128 H   0  0  0  0  0  0  0  0  0  0  0  0
    5.5614    0.2839    0.9769 H   0  0  0  0  0  0  0  0  0  0  0  0
    8.7359    1.0264   -2.5754 H   0  0  0  0  0  0  0  0  0  0  0  0
    8.3530    2.7555   -2.8212 H   0  0  0  0  0  0  0  0  0  0  0  0
    7.0142    1.6750   -2.3983 H   0  0  0  0  0  0  0  0  0  0  0  0
   10.4874    2.4285   -1.2457 H   0  0  0  0  0  0  0  0  0  0  0  0
   11.1733    3.0370    0.9756 H   0  0  0  0  0  0  0  0  0  0  0  0
    9.5138    3.1941    2.7805 H   0  0  0  0  0  0  0  0  0  0  0  0
    6.5618    3.8010    2.7697 H   0  0  0  0  0  0  0  0  0  0  0  0
    7.4223    2.4676    3.5418 H   0  0  0  0  0  0  0  0  0  0  0  0
    6.0324    2.0559    2.5170 H   0  0  0  0  0  0  0  0  0  0  0  0
   -0.4373   -0.9832    2.4238 H   0  0  0  0  0  0  0  0  0  0  0  0
   -2.0578   -0.4573    2.8478 H   0  0  0  0  0  0  0  0  0  0  0  0
   -0.3196   -3.2542    1.1160 H   0  0  0  0  0  0  0  0  0  0  0  0
   -1.4628   -5.4102    0.6939 H   0  0  0  0  0  0  0  0  0  0  0  0
   -3.8198   -5.6422    1.0566 H   0  0  0  0  0  0  0  0  0  0  0  0
   -5.1180   -3.6669    1.8699 H   0  0  0  0  0  0  0  0  0  0  0  0
   -3.9814   -1.5903    2.2685 H   0  0  0  0  0  0  0  0  0  0  0  0
  1  2  1  0
  2  3  1  0
  2  4  1  0
  4  5  1  0
  5  6  1  0
  6  7  1  0
  7  8  1  0
  8  9  1  0
  9 10  1  0
 10 11  2  0
  4 12  1  0
 12 13  2  0
 12 14  1  0
 14 15  1  0
 15 16  1  0
 16 17  1  0
 17 18  1  0
 17 19  1  0
 19 20  1  0
 20 21  1  0
 21 22  2  0
 22 23  1  0
 23 24  2  0
 24 25  1  0
 25 26  2  0
 19 27  1  0
 27 28  1  0
 28 29  2  0
 28 30  1  0
 30 31  1  0
 31 32  1  0
 32 33  2  0
 33 34  1  0
 33 35  1  0
 35 36  2  0
 36 37  1  0
 37 38  2  0
 38 39  1  0
 15 40  1  0
 40 41  1  0
 41 42  2  0
 42 43  1  0
 43 44  2  0
 44 45  1  0
 45 46  2  0
 10  5  1  0
 26 21  1  0
 38 32  1  0
 46 41  1  0
  1 47  1  0
  1 48  1  0
  1 49  1  0
  2 50  1  0
  3 51  1  0
  3 52  1  0
  3 53  1  0
  4 54  1  6
  6 55  1  0
  6 56  1  0
  7 57  1  0
  7 58  1  0
  8 59  1  0
  8 60  1  0
  9 61  1  0
 14 62  1  0
 15 63  1  1
 16 64  1  0
 16 65  1  0
 17 66  1  1
 18 67  1  0
 19 68  1  6
 20 69  1  0
 20 70  1  0
 22 71  1  0
 23 72  1  0
 24 73  1  0
 25 74  1  0
 26 75  1  0
 27 76  1  0
 30 77  1  0
 30 78  1  0
 34 79  1  0
 34 80  1  0
 34 81  1  0
 35 82  1  0
 36 83  1  0
 37 84  1  0
 39 85  1  0
 39 86  1  0
 39 87  1  0
 40 88  1  0
 40 89  1  0
 42 90  1  0
 43 91  1  0
 44 92  1  0
 45 93  1  0
 46 94  1  0
M  END
$$$$
