
     RDKit          3D

 32 34  0  0  0  0  0  0  0  0999 V2000
   -2.0221    0.4478   -0.3103 C   0  0  1  0  0  0  0  0  0  0  0  0
   -3.1724    1.3680   -0.0250 C   0  0  0  0  0  0  0  0  0  0  0  0
   -3.9300    1.5294   -1.2527 N   0  0  0  0  0  0  0  0  0  0  0  0
   -1.1113    0.2286    0.8563 C   0  0  0  0  0  0  0  0  0  0  0  0
    0.1034   -0.3275    0.3068 N   0  0  0  0  0  0  0  0  0  0  0  0
   -0.2618   -1.6885   -0.0243 C   0  0  0  0  0  0  0  0  0  0  0  0
   -1.7938   -1.8441   -0.1210 C   0  0  0  0  0  0  0  0  0  0  0  0
   -2.4198   -0.8076   -0.7478 O   0  0  0  0  0  0  0  0  0  0  0  0
    1.3347    0.2410    0.0402 C   0  0  0  0  0  0  0  0  0  0  0  0
    1.6384    1.5835    0.1038 C   0  0  0  0  0  0  0  0  0  0  0  0
    0.2991    2.8909    0.4586 Br  0  0  0  0  0  0  0  0  0  0  0  0
    2.8615    2.1827   -0.0975 C   0  0  0  0  0  0  0  0  0  0  0  0
    3.9148    1.3616   -0.3989 N   0  0  0  0  0  0  0  0  0  0  0  0
    3.6871    0.0156   -0.4791 C   0  0  0  0  0  0  0  0  0  0  0  0
    2.4355   -0.5214   -0.2652 C   0  0  0  0  0  0  0  0  0  0  0  0
    2.6906   -1.8637   -0.4278 C   0  0  0  0  0  0  0  0  0  0  0  0
    4.0009   -2.0914   -0.7185 N   0  0  0  0  0  0  0  0  0  0  0  0
    4.6259   -0.9023   -0.7499 N   0  0  0  0  0  0  0  0  0  0  0  0
   -1.4348    0.8854   -1.1439 H   0  0  0  0  0  0  0  0  0  0  0  0
   -3.7969    1.0650    0.8177 H   0  0  0  0  0  0  0  0  0  0  0  0
   -2.7452    2.3696    0.1959 H   0  0  0  0  0  0  0  0  0  0  0  0
   -4.7249    2.1794   -1.0702 H   0  0  0  0  0  0  0  0  0  0  0  0
   -4.2388    0.5931   -1.5487 H   0  0  0  0  0  0  0  0  0  0  0  0
   -1.6185   -0.4954    1.5832 H   0  0  0  0  0  0  0  0  0  0  0  0
   -0.9643    1.1031    1.5178 H   0  0  0  0  0  0  0  0  0  0  0  0
    0.0057   -2.4067    0.7503 H   0  0  0  0  0  0  0  0  0  0  0  0
    0.0538   -1.9259   -1.0651 H   0  0  0  0  0  0  0  0  0  0  0  0
   -1.9345   -2.7437   -0.8047 H   0  0  0  0  0  0  0  0  0  0  0  0
   -2.2403   -2.1959    0.8254 H   0  0  0  0  0  0  0  0  0  0  0  0
    3.0951    3.2300   -0.0466 H   0  0  0  0  0  0  0  0  0  0  0  0
    2.0247   -2.6986   -0.3456 H   0  0  0  0  0  0  0  0  0  0  0  0
    5.6383   -0.7619   -0.9483 H   0  0  0  0  0  0  0  0  0  0  0  0
  1  2  1  0
  2  3  1  0
  1  4  1  0
  4  5  1  0
  5  6  1  0
  6  7  1  0
  7  8  1  0
  5  9  1  0
  9 10  2  0
 10 11  1  0
 10 12  1  0
 12 13  2  0
 13 14  1  0
 14 15  2  0
 15 16  1  0
 16 17  2  0
 17 18  1  0
  8  1  1  0
 15  9  1  0
 18 14  1  0
  1 19  1  6
  2 20  1  0
  2 21  1  0
  3 22  1  0
  3 23  1  0
  4 24  1  0
  4 25  1  0
  6 26  1  0
  6 27  1  0
  7 28  1  0
  7 29  1  0
 12 30  1  0
 16 31  1  0
 18 32  1  0
M  END
$$$$
