@<TRIPOS>MOLECULE
*****
 32 34 0 0 0
SMALL
GASTEIGER

@<TRIPOS>ATOM
      1 C          -2.0221    0.4478   -0.3103 C.3     1  UNL1        0.0865
      2 C          -3.1724    1.3680   -0.0250 C.3     1  UNL1        0.0210
      3 N          -3.9300    1.5294   -1.2527 N.3     1  UNL1       -0.3276
      4 C          -1.1113    0.2286    0.8563 C.3     1  UNL1        0.0398
      5 N           0.1034   -0.3275    0.3068 N.pl3   1  UNL1       -0.3237
      6 C          -0.2618   -1.6885   -0.0243 C.3     1  UNL1        0.0358
      7 C          -1.7938   -1.8441   -0.1210 C.3     1  UNL1        0.0638
      8 O          -2.4198   -0.8076   -0.7478 O.3     1  UNL1       -0.3722
      9 C           1.3347    0.2410    0.0402 C.ar    1  UNL1        0.0578
     10 C           1.6384    1.5835    0.1038 C.ar    1  UNL1        0.0577
     11 BR          0.2991    2.8909    0.4586 Br      1  UNL1       -0.0468
     12 C           2.8615    2.1827   -0.0975 C.ar    1  UNL1        0.0457
     13 N           3.9148    1.3616   -0.3989 N.ar    1  UNL1       -0.2349
     14 C           3.6871    0.0156   -0.4791 C.ar    1  UNL1        0.1574
     15 C           2.4355   -0.5214   -0.2652 C.ar    1  UNL1        0.0604
     16 C           2.6906   -1.8637   -0.4278 C.ar    1  UNL1        0.0603
     17 N           4.0009   -2.0914   -0.7185 N.ar    1  UNL1       -0.1798
     18 N           4.6259   -0.9023   -0.7499 N.ar    1  UNL1       -0.2602
     19 H          -1.4348    0.8854   -1.1439 H       1  UNL1        0.0624
     20 H          -3.7969    1.0650    0.8177 H       1  UNL1        0.0448
     21 H          -2.7452    2.3696    0.1959 H       1  UNL1        0.0448
     22 H          -4.7249    2.1794   -1.0702 H       1  UNL1        0.1183
     23 H          -4.2388    0.5931   -1.5487 H       1  UNL1        0.1183
     24 H          -1.6185   -0.4954    1.5832 H       1  UNL1        0.0490
     25 H          -0.9643    1.1031    1.5178 H       1  UNL1        0.0490
     26 H           0.0057   -2.4067    0.7503 H       1  UNL1        0.0486
     27 H           0.0538   -1.9259   -1.0651 H       1  UNL1        0.0486
     28 H          -1.9345   -2.7437   -0.8047 H       1  UNL1        0.0575
     29 H          -2.2403   -2.1959    0.8254 H       1  UNL1        0.0575
     30 H           3.0951    3.2300   -0.0466 H       1  UNL1        0.0842
     31 H           2.0247   -2.6986   -0.3456 H       1  UNL1        0.0855
     32 H           5.6383   -0.7619   -0.9483 H       1  UNL1        0.1905
@<TRIPOS>BOND
     1     1     2    1
     2     2     3    1
     3     1     4    1
     4     4     5    1
     5     5     6    1
     6     6     7    1
     7     7     8    1
     8     5     9    1
     9     9    10   ar
    10    10    11    1
    11    10    12   ar
    12    12    13   ar
    13    13    14   ar
    14    14    15   ar
    15    15    16   ar
    16    16    17   ar
    17    17    18   ar
    18     8     1    1
    19    15     9   ar
    20    18    14   ar
    21     1    19    1
    22     2    20    1
    23     2    21    1
    24     3    22    1
    25     3    23    1
    26     4    24    1
    27     4    25    1
    28     6    26    1
    29     6    27    1
    30     7    28    1
    31     7    29    1
    32    12    30    1
    33    16    31    1
    34    18    32    1
