@<TRIPOS>MOLECULE
*****
 40 41 0 0 0
SMALL
GASTEIGER

@<TRIPOS>ATOM
      1 C          -2.9527   -1.7160   -1.2098 C.3     1  UNL1       -0.0472
      2 C          -2.5586   -0.2627   -1.3214 C.3     1  UNL1        0.0336
      3 N          -1.2388    0.0120   -0.8385 N.3     1  UNL1       -0.3053
      4 C          -1.1379    0.2709    0.5562 C.3     1  UNL1        0.0447
      5 C           0.0960   -0.4528    1.0911 C.3     1  UNL1        0.0421
      6 C           1.3247    0.0313    0.4068 C.2     1  UNL1        0.2188
      7 O           1.3108    0.9178   -0.4859 O.2     1  UNL1       -0.2754
      8 N           2.5944   -0.5084    0.7496 N.am    1  UNL1       -0.2855
      9 C           3.7902   -0.0524    0.0989 C.ar    1  UNL1        0.0334
     10 C           4.4963    1.0074    0.6198 C.ar    1  UNL1       -0.0405
     11 C           5.6388    1.4060   -0.0440 C.ar    1  UNL1       -0.0600
     12 C           6.0606    0.7545   -1.2036 C.ar    1  UNL1       -0.0616
     13 C           5.3203   -0.3040   -1.6895 C.ar    1  UNL1       -0.0600
     14 C           4.1669   -0.7291   -1.0452 C.ar    1  UNL1       -0.0405
     15 C          -2.3709   -0.1125    1.3090 C.3     1  UNL1        0.0992
     16 O          -2.2620    0.1965    2.6585 O.3     1  UNL1       -0.3876
     17 C          -3.5227    0.7016    0.7596 C.3     1  UNL1        0.1097
     18 O          -4.7128    0.2913    1.3821 O.3     1  UNL1       -0.3866
     19 C          -3.6113    0.6594   -0.7272 C.3     1  UNL1        0.0985
     20 O          -4.8611    0.1975   -1.0967 O.3     1  UNL1       -0.3876
     21 H          -2.1241   -2.3523   -0.8062 H       1  UNL1        0.0245
     22 H          -3.9006   -1.8574   -0.6315 H       1  UNL1        0.0245
     23 H          -3.1782   -2.1700   -2.2183 H       1  UNL1        0.0245
     24 H          -2.5495   -0.0162   -2.4248 H       1  UNL1        0.0484
     25 H          -0.8533    0.8514   -1.3652 H       1  UNL1        0.1226
     26 H          -0.9517    1.3521    0.7511 H       1  UNL1        0.0491
     27 H           0.0162   -1.5506    0.9173 H       1  UNL1        0.0375
     28 H           0.1610   -0.3297    2.2001 H       1  UNL1        0.0375
     29 H           2.7244   -1.2424    1.4699 H       1  UNL1        0.1548
     30 H           4.1514    1.4979    1.5195 H       1  UNL1        0.0636
     31 H           6.2076    2.2280    0.3392 H       1  UNL1        0.0618
     32 H           6.9641    1.0863   -1.7096 H       1  UNL1        0.0618
     33 H           5.6185   -0.8282   -2.5821 H       1  UNL1        0.0618
     34 H           3.6128   -1.5604   -1.4535 H       1  UNL1        0.0636
     35 H          -2.5694   -1.2106    1.2571 H       1  UNL1        0.0636
     36 H          -1.9185   -0.5340    3.2076 H       1  UNL1        0.2100
     37 H          -3.3591    1.7567    1.0797 H       1  UNL1        0.0646
     38 H          -4.6121    0.5693    2.3422 H       1  UNL1        0.2100
     39 H          -3.4624    1.6575   -1.1958 H       1  UNL1        0.0635
     40 H          -5.5470    0.3442   -0.3725 H       1  UNL1        0.2100
@<TRIPOS>BOND
     1     1     2    1
     2     2     3    1
     3     3     4    1
     4     4     5    1
     5     5     6    1
     6     6     7    2
     7     6     8   am
     8     8     9    1
     9     9    10   ar
    10    10    11   ar
    11    11    12   ar
    12    12    13   ar
    13    13    14   ar
    14     4    15    1
    15    15    16    1
    16    15    17    1
    17    17    18    1
    18    17    19    1
    19    19    20    1
    20    19     2    1
    21    14     9   ar
    22     1    21    1
    23     1    22    1
    24     1    23    1
    25     2    24    1
    26     3    25    1
    27     4    26    1
    28     5    27    1
    29     5    28    1
    30     8    29    1
    31    10    30    1
    32    11    31    1
    33    12    32    1
    34    13    33    1
    35    14    34    1
    36    15    35    1
    37    16    36    1
    38    17    37    1
    39    18    38    1
    40    19    39    1
    41    20    40    1
