
     RDKit          3D

 16 15  0  0  0  0  0  0  0  0999 V2000
   -2.4550   -0.5774    0.2581 C   0  0  0  0  0  0  0  0  0  0  0  0
   -1.8732    0.6442   -0.3613 C   0  0  0  0  0  0  0  0  0  0  0  0
   -0.5805    0.9905    0.0457 O   0  0  0  0  0  0  0  0  0  0  0  0
    0.5099    0.1478   -0.1291 C   0  0  0  0  0  0  0  0  0  0  0  0
    0.2598   -0.9718   -0.6883 O   0  0  0  0  0  0  0  0  0  0  0  0
    1.8110    0.5660    0.3123 C   0  0  0  0  0  0  0  0  0  0  0  0
    2.9934   -0.3159    0.1372 C   0  0  0  0  0  0  0  0  0  0  0  0
    1.9834    1.7049    0.8656 O   0  0  0  0  0  0  0  0  0  0  0  0
   -3.5485   -0.3895    0.4317 H   0  0  0  0  0  0  0  0  0  0  0  0
   -2.0133   -0.8804    1.2212 H   0  0  0  0  0  0  0  0  0  0  0  0
   -2.4435   -1.4432   -0.4678 H   0  0  0  0  0  0  0  0  0  0  0  0
   -2.5095    1.5318   -0.1356 H   0  0  0  0  0  0  0  0  0  0  0  0
   -1.9508    0.5138   -1.4743 H   0  0  0  0  0  0  0  0  0  0  0  0
    2.6956   -1.3323    0.4355 H   0  0  0  0  0  0  0  0  0  0  0  0
    3.2383   -0.2548   -0.9622 H   0  0  0  0  0  0  0  0  0  0  0  0
    3.8828    0.0663    0.6655 H   0  0  0  0  0  0  0  0  0  0  0  0
  1  2  1  0
  2  3  1  0
  3  4  1  0
  4  5  2  0
  4  6  1  0
  6  7  1  0
  6  8  2  0
  1  9  1  0
  1 10  1  0
  1 11  1  0
  2 12  1  0
  2 13  1  0
  7 14  1  0
  7 15  1  0
  7 16  1  0
M  END
$$$$
