@<TRIPOS>MOLECULE
*****
 45 48 0 0 0
SMALL
GASTEIGER

@<TRIPOS>ATOM
      1 C           5.6973    1.4136   -1.8978 C.1     1  UNL1       -0.1179
      2 C           5.3301    0.4508   -1.2879 C.1     1  UNL1       -0.0900
      3 C           4.9044   -0.7296   -0.5318 C.3     1  UNL1        0.0609
      4 N           4.5903   -0.3434    0.8216 N.3     1  UNL1       -0.2868
      5 C           4.1657   -1.4288    1.6332 C.3     1  UNL1        0.0055
      6 C           2.8900   -1.1943    2.3898 C.3     1  UNL1        0.0029
      7 C           1.8648   -0.5194    1.5314 C.ar    1  UNL1        0.0511
      8 N           0.5769   -0.8828    1.5097 N.ar    1  UNL1       -0.2317
      9 C          -0.3045   -0.2373    0.7146 C.ar    1  UNL1        0.1638
     10 N          -1.6015   -0.5645    0.6589 N.ar    1  UNL1       -0.2113
     11 C          -2.4921    0.0674   -0.1269 C.ar    1  UNL1        0.1412
     12 N          -3.8679   -0.2913   -0.1760 N.pl3   1  UNL1       -0.3141
     13 C          -4.6788   -0.7425   -1.2675 C.3     1  UNL1        0.0136
     14 C          -5.6312   -1.7432   -0.6223 C.3     1  UNL1       -0.0358
     15 C          -5.9403   -1.0584    0.6938 C.3     1  UNL1       -0.0358
     16 C          -4.7159   -0.2387    1.0071 C.3     1  UNL1        0.0136
     17 C          -2.0388    1.1048   -0.9131 C.ar    1  UNL1        0.0923
     18 C          -2.9642    1.7881   -1.7528 C.1     1  UNL1        0.1026
     19 N          -3.7069    2.3570   -2.4279 N.1     1  UNL1       -0.1908
     20 C          -0.7058    1.5015   -0.9085 C.ar    1  UNL1       -0.0285
     21 C           0.1414    0.7960   -0.0699 C.ar    1  UNL1        0.0415
     22 C           1.4695    1.1915   -0.0657 C.ar    1  UNL1        0.0416
     23 N           1.9383    2.2442   -0.8610 N.pl3   1  UNL1       -0.3571
     24 C           2.3520    0.5266    0.7468 C.ar    1  UNL1        0.0093
     25 C           3.7839    0.8274    0.8612 C.3     1  UNL1        0.0284
     26 H           6.0429    2.2699   -2.4511 H       1  UNL1        0.1228
     27 H           4.0120   -1.2109   -0.9841 H       1  UNL1        0.0563
     28 H           5.7427   -1.4635   -0.5756 H       1  UNL1        0.0563
     29 H           3.9677   -2.3035    0.9464 H       1  UNL1        0.0431
     30 H           4.9240   -1.7846    2.3563 H       1  UNL1        0.0431
     31 H           2.4883   -2.1891    2.6849 H       1  UNL1        0.0341
     32 H           3.0083   -0.6030    3.3049 H       1  UNL1        0.0341
     33 H          -4.1172   -1.1905   -2.0990 H       1  UNL1        0.0464
     34 H          -5.3314    0.1118   -1.5943 H       1  UNL1        0.0464
     35 H          -6.5281   -1.8741   -1.2515 H       1  UNL1        0.0281
     36 H          -5.1492   -2.7204   -0.4653 H       1  UNL1        0.0281
     37 H          -6.1627   -1.7459    1.5081 H       1  UNL1        0.0281
     38 H          -6.7872   -0.3381    0.5031 H       1  UNL1        0.0281
     39 H          -4.1951   -0.6324    1.8988 H       1  UNL1        0.0464
     40 H          -4.9388    0.8317    1.1822 H       1  UNL1        0.0464
     41 H          -0.3399    2.3181   -1.5250 H       1  UNL1        0.0639
     42 H           1.7794    2.2528   -1.8747 H       1  UNL1        0.1423
     43 H           2.4564    3.0290   -0.4110 H       1  UNL1        0.1423
     44 H           4.0602    1.4626   -0.0298 H       1  UNL1        0.0477
     45 H           4.0107    1.4854    1.7455 H       1  UNL1        0.0477
@<TRIPOS>BOND
     1     1     2    3
     2     2     3    1
     3     3     4    1
     4     4     5    1
     5     5     6    1
     6     6     7    1
     7     7     8   ar
     8     8     9   ar
     9     9    10   ar
    10    10    11   ar
    11    11    12    1
    12    12    13    1
    13    13    14    1
    14    14    15    1
    15    15    16    1
    16    11    17   ar
    17    17    18    1
    18    18    19    3
    19    17    20   ar
    20    20    21   ar
    21    21    22   ar
    22    22    23    1
    23    22    24   ar
    24    24    25    1
    25    25     4    1
    26    24     7   ar
    27    21     9   ar
    28    16    12    1
    29     1    26    1
    30     3    27    1
    31     3    28    1
    32     5    29    1
    33     5    30    1
    34     6    31    1
    35     6    32    1
    36    13    33    1
    37    13    34    1
    38    14    35    1
    39    14    36    1
    40    15    37    1
    41    15    38    1
    42    16    39    1
    43    16    40    1
    44    20    41    1
    45    23    42    1
    46    23    43    1
    47    25    44    1
    48    25    45    1
