
     RDKit          3D

 80 82  0  0  0  0  0  0  0  0999 V2000
   -0.2451   -5.1355    1.2279 C   0  0  0  0  0  0  0  0  0  0  0  0
    0.4092   -3.8521    0.6573 C   0  0  0  0  0  0  0  0  0  0  0  0
   -0.5082   -3.3507   -0.3628 C   0  0  0  0  0  0  0  0  0  0  0  0
   -0.2168   -2.1458   -1.1493 C   0  0  0  0  0  0  0  0  0  0  0  0
   -0.0514   -0.8351   -0.5363 C   0  0  2  0  0  0  0  0  0  0  0  0
    0.9561   -0.5651    0.4059 N   0  0  0  0  0  0  0  0  0  0  0  0
    2.0434    0.3267    0.1691 C   0  0  0  0  0  0  0  0  0  0  0  0
    2.0663    0.8746   -0.9388 O   0  0  0  0  0  0  0  0  0  0  0  0
    3.0998    0.6058    1.1643 C   0  0  2  0  0  0  0  0  0  0  0  0
    2.5760    1.2725    2.4194 C   0  0  0  0  0  0  0  0  0  0  0  0
    2.5119    2.7301    2.0337 C   0  0  0  0  0  0  0  0  0  0  0  0
    3.0714    3.5539    2.9979 F   0  0  0  0  0  0  0  0  0  0  0  0
    1.1922    3.1311    1.8542 F   0  0  0  0  0  0  0  0  0  0  0  0
    3.2784    2.8627    0.7389 C   0  0  0  0  0  0  0  0  0  0  0  0
    3.9709    1.6133    0.6403 N   0  0  0  0  0  0  0  0  0  0  0  0
    5.2573    1.4162    0.1212 C   0  0  0  0  0  0  0  0  0  0  0  0
    5.8919    2.4346   -0.3222 O   0  0  0  0  0  0  0  0  0  0  0  0
    5.9549    0.1147    0.0397 C   0  0  2  0  0  0  0  0  0  0  0  0
    6.2225   -0.3619    1.4495 C   0  0  0  0  0  0  0  0  0  0  0  0
    7.2601    0.2634   -0.5992 N   0  0  0  0  0  0  0  0  0  0  0  0
    7.6297   -0.4378   -1.7744 C   0  0  0  0  0  0  0  0  0  0  0  0
    6.7781   -1.2163   -2.2685 O   0  0  0  0  0  0  0  0  0  0  0  0
    8.9839   -0.2627   -2.4101 C   0  0  0  0  0  0  0  0  0  0  0  0
    9.7761    0.6787   -1.6597 N   0  0  0  0  0  0  0  0  0  0  0  0
    9.4750    1.8866   -1.7223 N   0  0  0  0  0  4  0  0  0  0  0  0
    9.6245    3.0902   -1.9415 N   0  0  0  0  0  2  0  0  0  0  0  0
   -1.3778   -0.3884    0.0212 C   0  0  0  0  0  0  0  0  0  0  0  0
   -1.4642    0.0705    1.1919 O   0  0  0  0  0  0  0  0  0  0  0  0
   -2.5366   -0.4750   -0.7557 N   0  0  0  0  0  0  0  0  0  0  0  0
   -3.8352   -0.0228   -0.1697 C   0  0  1  0  0  0  0  0  0  0  0  0
   -4.1165    1.2251   -1.0226 C   0  0  0  0  0  0  0  0  0  0  0  0
   -5.3441    1.9247   -0.7156 C   0  0  0  0  0  0  0  0  0  0  0  0
   -5.3982    2.9151    0.2408 C   0  0  0  0  0  0  0  0  0  0  0  0
   -6.5764    3.5729    0.4840 C   0  0  0  0  0  0  0  0  0  0  0  0
   -7.7532    3.2900   -0.1982 C   0  0  0  0  0  0  0  0  0  0  0  0
   -7.6579    2.2937   -1.1461 C   0  0  0  0  0  0  0  0  0  0  0  0
   -6.5066    1.6090   -1.4250 C   0  0  0  0  0  0  0  0  0  0  0  0
   -4.8353   -1.0701   -0.3206 C   0  0  0  0  0  0  0  0  0  0  0  0
   -4.6405   -1.9911   -1.0943 O   0  0  0  0  0  0  0  0  0  0  0  0
   -6.1061   -1.0840    0.4345 C   0  0  1  0  0  0  0  0  0  0  0  0
   -6.3670   -0.0504    1.5063 C   0  0  0  0  0  0  0  0  0  0  0  0
   -7.3711   -1.4800   -0.3227 C   0  0  0  0  0  0  0  0  0  0  0  0
   -6.7106   -2.3243    0.6582 O   0  0  0  0  0  0  0  0  0  0  0  0
   -0.5307   -5.7643    0.3591 H   0  0  0  0  0  0  0  0  0  0  0  0
    0.4754   -5.7042    1.8260 H   0  0  0  0  0  0  0  0  0  0  0  0
   -1.1782   -4.8787    1.7689 H   0  0  0  0  0  0  0  0  0  0  0  0
    1.3519   -4.2352    0.1727 H   0  0  0  0  0  0  0  0  0  0  0  0
    0.6731   -3.2492    1.5093 H   0  0  0  0  0  0  0  0  0  0  0  0
   -1.5582   -3.2942    0.0834 H   0  0  0  0  0  0  0  0  0  0  0  0
   -0.6485   -4.1950   -1.1183 H   0  0  0  0  0  0  0  0  0  0  0  0
   -1.0969   -2.0570   -1.8662 H   0  0  0  0  0  0  0  0  0  0  0  0
    0.6004   -2.3669   -1.9359 H   0  0  0  0  0  0  0  0  0  0  0  0
    0.1259   -0.1051   -1.3980 H   0  0  0  0  0  0  0  0  0  0  0  0
    0.9353   -1.0053    1.3416 H   0  0  0  0  0  0  0  0  0  0  0  0
    3.6497   -0.3348    1.4287 H   0  0  0  0  0  0  0  0  0  0  0  0
    1.5905    0.8754    2.7351 H   0  0  0  0  0  0  0  0  0  0  0  0
    3.3411    1.0821    3.2207 H   0  0  0  0  0  0  0  0  0  0  0  0
    2.5331    2.9699   -0.0970 H   0  0  0  0  0  0  0  0  0  0  0  0
    3.9694    3.7373    0.7580 H   0  0  0  0  0  0  0  0  0  0  0  0
    5.3494   -0.6201   -0.5485 H   0  0  0  0  0  0  0  0  0  0  0  0
    5.7931   -1.3712    1.6258 H   0  0  0  0  0  0  0  0  0  0  0  0
    5.8055    0.3573    2.1811 H   0  0  0  0  0  0  0  0  0  0  0  0
    7.3308   -0.3617    1.6692 H   0  0  0  0  0  0  0  0  0  0  0  0
    7.9486    0.9088   -0.1779 H   0  0  0  0  0  0  0  0  0  0  0  0
    9.5292   -1.2214   -2.4657 H   0  0  0  0  0  0  0  0  0  0  0  0
    8.7868    0.1288   -3.4312 H   0  0  0  0  0  0  0  0  0  0  0  0
   -2.6064   -0.8162   -1.7100 H   0  0  0  0  0  0  0  0  0  0  0  0
   -3.6137    0.3115    0.8404 H   0  0  0  0  0  0  0  0  0  0  0  0
   -4.1204    0.8498   -2.0737 H   0  0  0  0  0  0  0  0  0  0  0  0
   -3.1939    1.8541   -0.9079 H   0  0  0  0  0  0  0  0  0  0  0  0
   -4.4687    3.1300    0.7712 H   0  0  0  0  0  0  0  0  0  0  0  0
   -6.6079    4.3478    1.2358 H   0  0  0  0  0  0  0  0  0  0  0  0
   -8.6724    3.8226    0.0105 H   0  0  0  0  0  0  0  0  0  0  0  0
   -8.5519    2.0344   -1.7079 H   0  0  0  0  0  0  0  0  0  0  0  0
   -6.4715    0.8197   -2.1900 H   0  0  0  0  0  0  0  0  0  0  0  0
   -5.4057    0.4625    1.7641 H   0  0  0  0  0  0  0  0  0  0  0  0
   -7.1483    0.6624    1.1941 H   0  0  0  0  0  0  0  0  0  0  0  0
   -6.7739   -0.5858    2.3986 H   0  0  0  0  0  0  0  0  0  0  0  0
   -7.2302   -1.8503   -1.3757 H   0  0  0  0  0  0  0  0  0  0  0  0
   -8.3228   -1.0448   -0.0247 H   0  0  0  0  0  0  0  0  0  0  0  0
  1  2  1  0
  2  3  1  0
  3  4  1  0
  4  5  1  0
  5  6  1  0
  6  7  1  0
  7  8  2  0
  7  9  1  0
  9 10  1  0
 10 11  1  0
 11 12  1  0
 11 13  1  0
 11 14  1  0
 14 15  1  0
 15 16  1  0
 16 17  2  0
 16 18  1  0
 18 19  1  0
 18 20  1  0
 20 21  1  0
 21 22  2  0
 21 23  1  0
 23 24  1  0
 24 25  2  0
 25 26  2  0
  5 27  1  0
 27 28  2  0
 27 29  1  0
 29 30  1  0
 30 31  1  0
 31 32  1  0
 32 33  2  0
 33 34  1  0
 34 35  2  0
 35 36  1  0
 36 37  2  0
 30 38  1  0
 38 39  2  0
 38 40  1  0
 40 41  1  1
 40 42  1  0
 42 43  1  0
 15  9  1  0
 37 32  1  0
 43 40  1  0
  1 44  1  0
  1 45  1  0
  1 46  1  0
  2 47  1  0
  2 48  1  0
  3 49  1  0
  3 50  1  0
  4 51  1  0
  4 52  1  0
  5 53  1  6
  6 54  1  0
  9 55  1  1
 10 56  1  0
 10 57  1  0
 14 58  1  0
 14 59  1  0
 18 60  1  6
 19 61  1  0
 19 62  1  0
 19 63  1  0
 20 64  1  0
 23 65  1  0
 23 66  1  0
 29 67  1  0
 30 68  1  1
 31 69  1  0
 31 70  1  0
 33 71  1  0
 34 72  1  0
 35 73  1  0
 36 74  1  0
 37 75  1  0
 41 76  1  0
 41 77  1  0
 41 78  1  0
 42 79  1  0
 42 80  1  0
M  CHG  2  25   1  26  -1
M  END
$$$$
