@<TRIPOS>MOLECULE
*****
 80 82 0 0 0
SMALL
GASTEIGER

@<TRIPOS>ATOM
      1 C          -0.2451   -5.1355    1.2279 C.3     1  UNL1       -0.0653
      2 C           0.4092   -3.8521    0.6573 C.3     1  UNL1       -0.0558
      3 C          -0.5082   -3.3507   -0.3628 C.3     1  UNL1       -0.0512
      4 C          -0.2168   -2.1458   -1.1493 C.3     1  UNL1       -0.0260
      5 C          -0.0514   -0.8351   -0.5363 C.3     1  UNL1        0.0994
      6 N           0.9561   -0.5651    0.4059 N.am    1  UNL1       -0.3025
      7 C           2.0434    0.3267    0.1691 C.2     1  UNL1        0.2344
      8 O           2.0663    0.8746   -0.9388 O.2     1  UNL1       -0.2738
      9 C           3.0998    0.6058    1.1643 C.3     1  UNL1        0.1079
     10 C           2.5760    1.2725    2.4194 C.3     1  UNL1        0.0394
     11 C           2.5119    2.7301    2.0337 C.3     1  UNL1        0.2664
     12 F           3.0714    3.5539    2.9979 F       1  UNL1       -0.2039
     13 F           1.1922    3.1311    1.8542 F       1  UNL1       -0.2039
     14 C           3.2784    2.8627    0.7389 C.3     1  UNL1        0.0790
     15 N           3.9709    1.6133    0.6403 N.am    1  UNL1       -0.2825
     16 C           5.2573    1.4162    0.1212 C.2     1  UNL1        0.2364
     17 O           5.8919    2.4346   -0.3222 O.2     1  UNL1       -0.2736
     18 C           5.9549    0.1147    0.0397 C.3     1  UNL1        0.0968
     19 C           6.2225   -0.3619    1.4495 C.3     1  UNL1       -0.0381
     20 N           7.2601    0.2634   -0.5992 N.am    1  UNL1       -0.3026
     21 C           7.6297   -0.4378   -1.7744 C.2     1  UNL1        0.2420
     22 O           6.7781   -1.2163   -2.2685 O.2     1  UNL1       -0.2735
     23 C           8.9839   -0.2627   -2.4101 C.3     1  UNL1        0.1942
     24 N           9.7761    0.6787   -1.6597 N.2     1  UNL1        0.0857
     25 N           9.4750    1.8866   -1.7223 N.2     1  UNL1       -0.0143
     26 N           9.6245    3.0902   -1.9415 N.2     1  UNL1       -0.3282
     27 C          -1.3778   -0.3884    0.0212 C.2     1  UNL1        0.2339
     28 O          -1.4642    0.0705    1.1919 O.2     1  UNL1       -0.2738
     29 N          -2.5366   -0.4750   -0.7557 N.am    1  UNL1       -0.3037
     30 C          -3.8352   -0.0228   -0.1697 C.3     1  UNL1        0.0884
     31 C          -4.1165    1.2251   -1.0226 C.3     1  UNL1       -0.0022
     32 C          -5.3441    1.9247   -0.7156 C.ar    1  UNL1       -0.0452
     33 C          -5.3982    2.9151    0.2408 C.ar    1  UNL1       -0.0585
     34 C          -6.5764    3.5729    0.4840 C.ar    1  UNL1       -0.0615
     35 C          -7.7532    3.2900   -0.1982 C.ar    1  UNL1       -0.0617
     36 C          -7.6579    2.2937   -1.1461 C.ar    1  UNL1       -0.0615
     37 C          -6.5066    1.6090   -1.4250 C.ar    1  UNL1       -0.0585
     38 C          -4.8353   -1.0701   -0.3206 C.2     1  UNL1        0.1871
     39 O          -4.6405   -1.9911   -1.0943 O.2     1  UNL1       -0.2923
     40 C          -6.1061   -1.0840    0.4345 C.3     1  UNL1        0.1492
     41 C          -6.3670   -0.0504    1.5063 C.3     1  UNL1       -0.0266
     42 C          -7.3711   -1.4800   -0.3227 C.3     1  UNL1        0.0847
     43 O          -6.7106   -2.3243    0.6582 O.3     1  UNL1       -0.3605
     44 H          -0.5307   -5.7643    0.3591 H       1  UNL1        0.0230
     45 H           0.4754   -5.7042    1.8260 H       1  UNL1        0.0230
     46 H          -1.1782   -4.8787    1.7689 H       1  UNL1        0.0230
     47 H           1.3519   -4.2352    0.1727 H       1  UNL1        0.0263
     48 H           0.6731   -3.2492    1.5093 H       1  UNL1        0.0263
     49 H          -1.5582   -3.2942    0.0834 H       1  UNL1        0.0266
     50 H          -0.6485   -4.1950   -1.1183 H       1  UNL1        0.0266
     51 H          -1.0969   -2.0570   -1.8662 H       1  UNL1        0.0288
     52 H           0.6004   -2.3669   -1.9359 H       1  UNL1        0.0288
     53 H           0.1259   -0.1051   -1.3980 H       1  UNL1        0.0594
     54 H           0.9353   -1.0053    1.3416 H       1  UNL1        0.1495
     55 H           3.6497   -0.3348    1.4287 H       1  UNL1        0.0599
     56 H           1.5905    0.8754    2.7351 H       1  UNL1        0.0346
     57 H           3.3411    1.0821    3.2207 H       1  UNL1        0.0346
     58 H           2.5331    2.9699   -0.0970 H       1  UNL1        0.0523
     59 H           3.9694    3.7373    0.7580 H       1  UNL1        0.0523
     60 H           5.3494   -0.6201   -0.5485 H       1  UNL1        0.0592
     61 H           5.7931   -1.3712    1.6258 H       1  UNL1        0.0252
     62 H           5.8055    0.3573    2.1811 H       1  UNL1        0.0252
     63 H           7.3308   -0.3617    1.6692 H       1  UNL1        0.0252
     64 H           7.9486    0.9088   -0.1779 H       1  UNL1        0.1495
     65 H           9.5292   -1.2214   -2.4657 H       1  UNL1        0.0676
     66 H           8.7868    0.1288   -3.4312 H       1  UNL1        0.0676
     67 H          -2.6064   -0.8162   -1.7100 H       1  UNL1        0.1495
     68 H          -3.6137    0.3115    0.8404 H       1  UNL1        0.0581
     69 H          -4.1204    0.8498   -2.0737 H       1  UNL1        0.0335
     70 H          -3.1939    1.8541   -0.9079 H       1  UNL1        0.0335
     71 H          -4.4687    3.1300    0.7712 H       1  UNL1        0.0620
     72 H          -6.6079    4.3478    1.2358 H       1  UNL1        0.0618
     73 H          -8.6724    3.8226    0.0105 H       1  UNL1        0.0618
     74 H          -8.5519    2.0344   -1.7079 H       1  UNL1        0.0618
     75 H          -6.4715    0.8197   -2.1900 H       1  UNL1        0.0620
     76 H          -5.4057    0.4625    1.7641 H       1  UNL1        0.0262
     77 H          -7.1483    0.6624    1.1941 H       1  UNL1        0.0262
     78 H          -6.7739   -0.5858    2.3986 H       1  UNL1        0.0262
     79 H          -7.2302   -1.8503   -1.3757 H       1  UNL1        0.0593
     80 H          -8.3228   -1.0448   -0.0247 H       1  UNL1        0.0593
@<TRIPOS>UNITY_ATOM_ATTR
25 1
charge 1
26 1
charge -1
@<TRIPOS>BOND
     1     1     2    1
     2     2     3    1
     3     3     4    1
     4     4     5    1
     5     5     6    1
     6     6     7   am
     7     7     8    2
     8     7     9    1
     9     9    10    1
    10    10    11    1
    11    11    12    1
    12    11    13    1
    13    11    14    1
    14    14    15    1
    15    15    16   am
    16    16    17    2
    17    16    18    1
    18    18    19    1
    19    18    20    1
    20    20    21   am
    21    21    22    2
    22    21    23    1
    23    23    24    1
    24    24    25    2
    25    25    26    2
    26     5    27    1
    27    27    28    2
    28    27    29   am
    29    29    30    1
    30    30    31    1
    31    31    32    1
    32    32    33   ar
    33    33    34   ar
    34    34    35   ar
    35    35    36   ar
    36    36    37   ar
    37    30    38    1
    38    38    39    2
    39    38    40    1
    40    40    41    1
    41    40    42    1
    42    42    43    1
    43    15     9    1
    44    37    32   ar
    45    43    40    1
    46     1    44    1
    47     1    45    1
    48     1    46    1
    49     2    47    1
    50     2    48    1
    51     3    49    1
    52     3    50    1
    53     4    51    1
    54     4    52    1
    55     5    53    1
    56     6    54    1
    57     9    55    1
    58    10    56    1
    59    10    57    1
    60    14    58    1
    61    14    59    1
    62    18    60    1
    63    19    61    1
    64    19    62    1
    65    19    63    1
    66    20    64    1
    67    23    65    1
    68    23    66    1
    69    29    67    1
    70    30    68    1
    71    31    69    1
    72    31    70    1
    73    33    71    1
    74    34    72    1
    75    35    73    1
    76    36    74    1
    77    37    75    1
    78    41    76    1
    79    41    77    1
    80    41    78    1
    81    42    79    1
    82    42    80    1
