
     RDKit          3D

 59 63  0  0  0  0  0  0  0  0999 V2000
   -8.1297    1.6933    0.9466 O   0  0  0  0  0  0  0  0  0  0  0  0
   -7.6637    1.5724   -0.2169 C   0  0  0  0  0  0  0  0  0  0  0  0
   -8.5245    1.9310   -1.2466 O   0  0  0  0  0  0  0  0  0  0  0  0
   -6.2909    1.0804   -0.4529 C   0  0  0  0  0  0  0  0  0  0  0  0
   -5.6444    0.7593    0.8840 C   0  0  0  0  0  0  0  0  0  0  0  0
   -6.4062   -0.3071    1.6338 C   0  0  0  0  0  0  0  0  0  0  0  0
   -5.6126   -1.6001    1.7067 C   0  0  0  0  0  0  0  0  0  0  0  0
   -4.8611   -1.7928    0.5525 O   0  0  0  0  0  0  0  0  0  0  0  0
   -3.7850   -0.9034    0.4612 C   0  0  0  0  0  0  0  0  0  0  0  0
   -3.3809   -0.9105   -0.9962 C   0  0  0  0  0  0  0  0  0  0  0  0
   -1.9582   -0.4742   -1.2348 C   0  0  0  0  0  0  0  0  0  0  0  0
   -1.0323   -1.0853   -0.3368 N   0  0  0  0  0  0  0  0  0  0  0  0
    0.3553   -0.8121   -0.3330 C   0  0  0  0  0  0  0  0  0  0  0  0
    0.9090    0.0969   -1.2420 C   0  0  0  0  0  0  0  0  0  0  0  0
    2.2528    0.3955   -1.2755 C   0  0  0  0  0  0  0  0  0  0  0  0
    3.0845   -0.2175   -0.3875 C   0  0  0  0  0  0  0  0  0  0  0  0
    4.5228    0.0686   -0.3845 C   0  0  0  0  0  0  0  0  0  0  0  0
    5.4616   -0.4457    0.4153 N   0  0  0  0  0  0  0  0  0  0  0  0
    6.6699    0.0736    0.1008 C   0  0  0  0  0  0  0  0  0  0  0  0
    7.9612   -0.0758    0.5660 C   0  0  0  0  0  0  0  0  0  0  0  0
    9.0294    0.6121    0.0279 C   0  0  0  0  0  0  0  0  0  0  0  0
   10.4216    0.4203    0.5643 C   0  0  0  0  0  0  0  0  0  0  0  0
   10.5044    1.0064    1.8257 F   0  0  0  0  0  0  0  0  0  0  0  0
   10.6992   -0.9266    0.6830 F   0  0  0  0  0  0  0  0  0  0  0  0
   11.3157    1.0286   -0.2913 F   0  0  0  0  0  0  0  0  0  0  0  0
    8.8205    1.4879   -1.0159 C   0  0  0  0  0  0  0  0  0  0  0  0
    7.5349    1.6371   -1.4795 C   0  0  0  0  0  0  0  0  0  0  0  0
    6.4632    0.9548   -0.9488 C   0  0  0  0  0  0  0  0  0  0  0  0
    5.1419    0.9157   -1.2065 N   0  0  0  0  0  0  0  0  0  0  0  0
    2.5302   -1.1107    0.5032 C   0  0  0  0  0  0  0  0  0  0  0  0
    1.2151   -1.3903    0.5216 N   0  0  0  0  0  0  0  0  0  0  0  0
   -1.5654   -2.0356    0.6175 C   0  0  0  0  0  0  0  0  0  0  0  0
   -2.6533   -1.3040    1.3674 C   0  0  0  0  0  0  0  0  0  0  0  0
   -4.1787    0.5151    0.7914 C   0  0  0  0  0  0  0  0  0  0  0  0
   -9.3004    2.5661   -1.0925 H   0  0  0  0  0  0  0  0  0  0  0  0
   -6.3502    0.1736   -1.0938 H   0  0  0  0  0  0  0  0  0  0  0  0
   -5.7217    1.8995   -0.9278 H   0  0  0  0  0  0  0  0  0  0  0  0
   -5.7872    1.7048    1.4939 H   0  0  0  0  0  0  0  0  0  0  0  0
   -6.7194    0.0192    2.6448 H   0  0  0  0  0  0  0  0  0  0  0  0
   -7.3540   -0.4864    1.0599 H   0  0  0  0  0  0  0  0  0  0  0  0
   -4.9942   -1.6650    2.6255 H   0  0  0  0  0  0  0  0  0  0  0  0
   -6.3428   -2.4337    1.7543 H   0  0  0  0  0  0  0  0  0  0  0  0
   -3.5514   -1.9031   -1.4548 H   0  0  0  0  0  0  0  0  0  0  0  0
   -4.0276   -0.1976   -1.5578 H   0  0  0  0  0  0  0  0  0  0  0  0
   -1.6967   -0.8405   -2.2713 H   0  0  0  0  0  0  0  0  0  0  0  0
   -1.9215    0.6147   -1.2666 H   0  0  0  0  0  0  0  0  0  0  0  0
    0.2634    0.5870   -1.9475 H   0  0  0  0  0  0  0  0  0  0  0  0
    2.6675    1.1002   -1.9833 H   0  0  0  0  0  0  0  0  0  0  0  0
    8.1094   -0.7663    1.3853 H   0  0  0  0  0  0  0  0  0  0  0  0
    9.6727    2.0223   -1.4290 H   0  0  0  0  0  0  0  0  0  0  0  0
    7.3611    2.3258   -2.3023 H   0  0  0  0  0  0  0  0  0  0  0  0
    4.7106    1.5040   -1.9742 H   0  0  0  0  0  0  0  0  0  0  0  0
    3.2179   -1.5968    1.2138 H   0  0  0  0  0  0  0  0  0  0  0  0
   -1.9939   -2.8781    0.0201 H   0  0  0  0  0  0  0  0  0  0  0  0
   -0.8116   -2.3896    1.3351 H   0  0  0  0  0  0  0  0  0  0  0  0
   -2.1863   -0.3919    1.7832 H   0  0  0  0  0  0  0  0  0  0  0  0
   -2.9904   -1.9003    2.2380 H   0  0  0  0  0  0  0  0  0  0  0  0
   -3.7025    0.8360    1.7647 H   0  0  0  0  0  0  0  0  0  0  0  0
   -3.7568    1.2388    0.0453 H   0  0  0  0  0  0  0  0  0  0  0  0
  1  2  2  0
  2  3  1  0
  2  4  1  0
  4  5  1  0
  5  6  1  0
  6  7  1  0
  7  8  1  0
  8  9  1  0
  9 10  1  0
 10 11  1  0
 11 12  1  0
 12 13  1  0
 13 14  2  0
 14 15  1  0
 15 16  2  0
 16 17  1  0
 17 18  2  0
 18 19  1  0
 19 20  2  0
 20 21  1  0
 21 22  1  0
 22 23  1  0
 22 24  1  0
 22 25  1  0
 21 26  2  0
 26 27  1  0
 27 28  2  0
 28 29  1  0
 16 30  1  0
 30 31  2  0
 12 32  1  0
 32 33  1  0
  9 34  1  0
 34  5  1  0
 33  9  1  0
 31 13  1  0
 29 17  1  0
 28 19  1  0
  3 35  1  0
  4 36  1  0
  4 37  1  0
  5 38  1  0
  6 39  1  0
  6 40  1  0
  7 41  1  0
  7 42  1  0
 10 43  1  0
 10 44  1  0
 11 45  1  0
 11 46  1  0
 14 47  1  0
 15 48  1  0
 20 49  1  0
 26 50  1  0
 27 51  1  0
 29 52  1  0
 30 53  1  0
 32 54  1  0
 32 55  1  0
 33 56  1  0
 33 57  1  0
 34 58  1  0
 34 59  1  0
M  END
$$$$
