@<TRIPOS>MOLECULE
*****
 59 63 0 0 0
SMALL
GASTEIGER

@<TRIPOS>ATOM
      1 O          -8.1297    1.6933    0.9466 O.2     1  UNL1       -0.2510
      2 C          -7.6637    1.5724   -0.2169 C.2     1  UNL1        0.3050
      3 O          -8.5245    1.9310   -1.2466 O.3     1  UNL1       -0.4806
      4 C          -6.2909    1.0804   -0.4529 C.3     1  UNL1        0.0478
      5 C          -5.6444    0.7593    0.8840 C.3     1  UNL1       -0.0263
      6 C          -6.4062   -0.3071    1.6338 C.3     1  UNL1       -0.0260
      7 C          -5.6126   -1.6001    1.7067 C.3     1  UNL1        0.0486
      8 O          -4.8611   -1.7928    0.5525 O.3     1  UNL1       -0.3732
      9 C          -3.7850   -0.9034    0.4612 C.3     1  UNL1        0.0727
     10 C          -3.3809   -0.9105   -0.9962 C.3     1  UNL1       -0.0079
     11 C          -1.9582   -0.4742   -1.2348 C.3     1  UNL1        0.0161
     12 N          -1.0323   -1.0853   -0.3368 N.pl3   1  UNL1       -0.3150
     13 C           0.3553   -0.8121   -0.3330 C.ar    1  UNL1        0.1212
     14 C           0.9090    0.0969   -1.2420 C.ar    1  UNL1       -0.0210
     15 C           2.2528    0.3955   -1.2755 C.ar    1  UNL1       -0.0464
     16 C           3.0845   -0.2175   -0.3875 C.ar    1  UNL1        0.0355
     17 C           4.5228    0.0686   -0.3845 C.ar    1  UNL1        0.1407
     18 N           5.4616   -0.4457    0.4153 N.ar    1  UNL1       -0.2277
     19 C           6.6699    0.0736    0.1008 C.ar    1  UNL1        0.0900
     20 C           7.9612   -0.0758    0.5660 C.ar    1  UNL1       -0.0226
     21 C           9.0294    0.6121    0.0279 C.ar    1  UNL1        0.0569
     22 C          10.4216    0.4203    0.5643 C.3     1  UNL1        0.4175
     23 F          10.5044    1.0064    1.8257 F       1  UNL1       -0.1659
     24 F          10.6992   -0.9266    0.6830 F       1  UNL1       -0.1659
     25 F          11.3157    1.0286   -0.2913 F       1  UNL1       -0.1659
     26 C           8.8205    1.4879   -1.0159 C.ar    1  UNL1       -0.0480
     27 C           7.5349    1.6371   -1.4795 C.ar    1  UNL1       -0.0357
     28 C           6.4632    0.9548   -0.9488 C.ar    1  UNL1        0.0665
     29 N           5.1419    0.9157   -1.2065 N.ar    1  UNL1       -0.3378
     30 C           2.5302   -1.1107    0.5032 C.ar    1  UNL1        0.0403
     31 N           1.2151   -1.3903    0.5216 N.ar    1  UNL1       -0.2396
     32 C          -1.5654   -2.0356    0.6175 C.3     1  UNL1        0.0161
     33 C          -2.6533   -1.3040    1.3674 C.3     1  UNL1       -0.0079
     34 C          -4.1787    0.5151    0.7914 C.3     1  UNL1       -0.0202
     35 H          -9.3004    2.5661   -1.0925 H       1  UNL1        0.2951
     36 H          -6.3502    0.1736   -1.0938 H       1  UNL1        0.0380
     37 H          -5.7217    1.8995   -0.9278 H       1  UNL1        0.0380
     38 H          -5.7872    1.7048    1.4939 H       1  UNL1        0.0308
     39 H          -6.7194    0.0192    2.6448 H       1  UNL1        0.0290
     40 H          -7.3540   -0.4864    1.0599 H       1  UNL1        0.0290
     41 H          -4.9942   -1.6650    2.6255 H       1  UNL1        0.0560
     42 H          -6.3428   -2.4337    1.7543 H       1  UNL1        0.0560
     43 H          -3.5514   -1.9031   -1.4548 H       1  UNL1        0.0308
     44 H          -4.0276   -0.1976   -1.5578 H       1  UNL1        0.0308
     45 H          -1.6967   -0.8405   -2.2713 H       1  UNL1        0.0465
     46 H          -1.9215    0.6147   -1.2666 H       1  UNL1        0.0465
     47 H           0.2634    0.5870   -1.9475 H       1  UNL1        0.0652
     48 H           2.6675    1.1002   -1.9833 H       1  UNL1        0.0626
     49 H           8.1094   -0.7663    1.3853 H       1  UNL1        0.0645
     50 H           9.6727    2.0223   -1.4290 H       1  UNL1        0.0624
     51 H           7.3611    2.3258   -2.3023 H       1  UNL1        0.0639
     52 H           4.7106    1.5040   -1.9742 H       1  UNL1        0.1674
     53 H           3.2179   -1.5968    1.2138 H       1  UNL1        0.0837
     54 H          -1.9939   -2.8781    0.0201 H       1  UNL1        0.0465
     55 H          -0.8116   -2.3896    1.3351 H       1  UNL1        0.0465
     56 H          -2.1863   -0.3919    1.7832 H       1  UNL1        0.0308
     57 H          -2.9904   -1.9003    2.2380 H       1  UNL1        0.0308
     58 H          -3.7025    0.8360    1.7647 H       1  UNL1        0.0296
     59 H          -3.7568    1.2388    0.0453 H       1  UNL1        0.0296
@<TRIPOS>BOND
     1     1     2    2
     2     2     3    1
     3     2     4    1
     4     4     5    1
     5     5     6    1
     6     6     7    1
     7     7     8    1
     8     8     9    1
     9     9    10    1
    10    10    11    1
    11    11    12    1
    12    12    13    1
    13    13    14   ar
    14    14    15   ar
    15    15    16   ar
    16    16    17    1
    17    17    18   ar
    18    18    19   ar
    19    19    20   ar
    20    20    21   ar
    21    21    22    1
    22    22    23    1
    23    22    24    1
    24    22    25    1
    25    21    26   ar
    26    26    27   ar
    27    27    28   ar
    28    28    29   ar
    29    16    30   ar
    30    30    31   ar
    31    12    32    1
    32    32    33    1
    33     9    34    1
    34    34     5    1
    35    33     9    1
    36    31    13   ar
    37    29    17   ar
    38    28    19   ar
    39     3    35    1
    40     4    36    1
    41     4    37    1
    42     5    38    1
    43     6    39    1
    44     6    40    1
    45     7    41    1
    46     7    42    1
    47    10    43    1
    48    10    44    1
    49    11    45    1
    50    11    46    1
    51    14    47    1
    52    15    48    1
    53    20    49    1
    54    26    50    1
    55    27    51    1
    56    29    52    1
    57    30    53    1
    58    32    54    1
    59    32    55    1
    60    33    56    1
    61    33    57    1
    62    34    58    1
    63    34    59    1
