@<TRIPOS>MOLECULE
*****
 42 42 0 0 0
SMALL
GASTEIGER

@<TRIPOS>ATOM
      1 C          -3.3770   -1.1682   -0.3807 C.3     1  UNL1        0.1141
      2 O          -4.3958   -1.9636    0.1900 O.3     1  UNL1       -0.3864
      3 C          -3.8208    0.2502   -0.2612 C.3     1  UNL1        0.1119
      4 O          -4.3829    0.4966    1.0000 O.3     1  UNL1       -0.3865
      5 C          -2.5876    1.1240   -0.3419 C.3     1  UNL1        0.1130
      6 C          -2.9423    2.5866   -0.4397 C.3     1  UNL1        0.0730
      7 O          -1.8415    3.4067   -0.4507 O.3     1  UNL1       -0.3924
      8 O          -1.8742    0.8306    0.8191 O.3     1  UNL1       -0.3405
      9 C          -1.1670   -0.3337    0.5370 C.3     1  UNL1        0.1879
     10 O          -0.3461   -0.7165    1.5768 O.3     1  UNL1       -0.3487
     11 C           0.9831   -0.6808    1.2468 C.3     1  UNL1        0.0508
     12 C           1.4461    0.7018    0.9102 C.3     1  UNL1       -0.0294
     13 C           2.9084    0.6796    0.5768 C.3     1  UNL1       -0.0510
     14 C           3.2388   -0.1902   -0.5946 C.3     1  UNL1       -0.0532
     15 C           4.7454   -0.1431   -0.8785 C.3     1  UNL1       -0.0559
     16 C           5.4678   -0.6437    0.3588 C.3     1  UNL1       -0.0653
     17 C          -2.0589   -1.4968    0.2125 C.3     1  UNL1        0.1341
     18 O          -1.3618   -2.3109   -0.6964 O.3     1  UNL1       -0.3841
     19 H          -3.4240   -1.4273   -1.4783 H       1  UNL1        0.0648
     20 H          -4.2513   -2.9274   -0.0487 H       1  UNL1        0.2100
     21 H          -4.4799    0.5543   -1.0967 H       1  UNL1        0.0647
     22 H          -5.0172   -0.2430    1.2048 H       1  UNL1        0.2100
     23 H          -1.9995    0.7868   -1.2292 H       1  UNL1        0.0647
     24 H          -3.6446    2.7938    0.4091 H       1  UNL1        0.0584
     25 H          -3.5358    2.7282   -1.3656 H       1  UNL1        0.0584
     26 H          -1.6821    3.8357   -1.3354 H       1  UNL1        0.2095
     27 H          -0.5633   -0.1070   -0.3576 H       1  UNL1        0.0937
     28 H           1.6125   -1.1200    2.0486 H       1  UNL1        0.0561
     29 H           1.1527   -1.3576    0.3550 H       1  UNL1        0.0561
     30 H           1.3355    1.3103    1.8595 H       1  UNL1        0.0287
     31 H           0.8518    1.1751    0.1028 H       1  UNL1        0.0287
     32 H           3.2312    1.7324    0.4320 H       1  UNL1        0.0266
     33 H           3.4371    0.2497    1.4769 H       1  UNL1        0.0266
     34 H           2.9859   -1.2653   -0.3906 H       1  UNL1        0.0265
     35 H           2.6963    0.1258   -1.5030 H       1  UNL1        0.0265
     36 H           5.0518    0.8801   -1.1357 H       1  UNL1        0.0263
     37 H           4.9223   -0.8455   -1.7092 H       1  UNL1        0.0263
     38 H           5.4466    0.1338    1.1454 H       1  UNL1        0.0230
     39 H           4.9908   -1.5803    0.7087 H       1  UNL1        0.0230
     40 H           6.5376   -0.7827    0.0483 H       1  UNL1        0.0230
     41 H          -2.2255   -2.1586    1.1111 H       1  UNL1        0.0671
     42 H          -2.0626   -2.9198   -1.0887 H       1  UNL1        0.2101
@<TRIPOS>BOND
     1     1     2    1
     2     1     3    1
     3     3     4    1
     4     3     5    1
     5     5     6    1
     6     6     7    1
     7     5     8    1
     8     8     9    1
     9     9    10    1
    10    10    11    1
    11    11    12    1
    12    12    13    1
    13    13    14    1
    14    14    15    1
    15    15    16    1
    16     9    17    1
    17    17    18    1
    18    17     1    1
    19     1    19    1
    20     2    20    1
    21     3    21    1
    22     4    22    1
    23     5    23    1
    24     6    24    1
    25     6    25    1
    26     7    26    1
    27     9    27    1
    28    11    28    1
    29    11    29    1
    30    12    30    1
    31    12    31    1
    32    13    32    1
    33    13    33    1
    34    14    34    1
    35    14    35    1
    36    15    36    1
    37    15    37    1
    38    16    38    1
    39    16    39    1
    40    16    40    1
    41    17    41    1
    42    18    42    1
