
     RDKit          3D

 42 42  0  0  0  0  0  0  0  0999 V2000
   -3.3770   -1.1682   -0.3807 C   0  0  1  0  0  0  0  0  0  0  0  0
   -4.3958   -1.9636    0.1900 O   0  0  0  0  0  0  0  0  0  0  0  0
   -3.8208    0.2502   -0.2612 C   0  0  1  0  0  0  0  0  0  0  0  0
   -4.3829    0.4966    1.0000 O   0  0  0  0  0  0  0  0  0  0  0  0
   -2.5876    1.1240   -0.3419 C   0  0  1  0  0  0  0  0  0  0  0  0
   -2.9423    2.5866   -0.4397 C   0  0  0  0  0  0  0  0  0  0  0  0
   -1.8415    3.4067   -0.4507 O   0  0  0  0  0  0  0  0  0  0  0  0
   -1.8742    0.8306    0.8191 O   0  0  0  0  0  0  0  0  0  0  0  0
   -1.1670   -0.3337    0.5370 C   0  0  1  0  0  0  0  0  0  0  0  0
   -0.3461   -0.7165    1.5768 O   0  0  0  0  0  0  0  0  0  0  0  0
    0.9831   -0.6808    1.2468 C   0  0  0  0  0  0  0  0  0  0  0  0
    1.4461    0.7018    0.9102 C   0  0  0  0  0  0  0  0  0  0  0  0
    2.9084    0.6796    0.5768 C   0  0  0  0  0  0  0  0  0  0  0  0
    3.2388   -0.1902   -0.5946 C   0  0  0  0  0  0  0  0  0  0  0  0
    4.7454   -0.1431   -0.8785 C   0  0  0  0  0  0  0  0  0  0  0  0
    5.4678   -0.6437    0.3588 C   0  0  0  0  0  0  0  0  0  0  0  0
   -2.0589   -1.4968    0.2125 C   0  0  2  0  0  0  0  0  0  0  0  0
   -1.3618   -2.3109   -0.6964 O   0  0  0  0  0  0  0  0  0  0  0  0
   -3.4240   -1.4273   -1.4783 H   0  0  0  0  0  0  0  0  0  0  0  0
   -4.2513   -2.9274   -0.0487 H   0  0  0  0  0  0  0  0  0  0  0  0
   -4.4799    0.5543   -1.0967 H   0  0  0  0  0  0  0  0  0  0  0  0
   -5.0172   -0.2430    1.2048 H   0  0  0  0  0  0  0  0  0  0  0  0
   -1.9995    0.7868   -1.2292 H   0  0  0  0  0  0  0  0  0  0  0  0
   -3.6446    2.7938    0.4091 H   0  0  0  0  0  0  0  0  0  0  0  0
   -3.5358    2.7282   -1.3656 H   0  0  0  0  0  0  0  0  0  0  0  0
   -1.6821    3.8357   -1.3354 H   0  0  0  0  0  0  0  0  0  0  0  0
   -0.5633   -0.1070   -0.3576 H   0  0  0  0  0  0  0  0  0  0  0  0
    1.6125   -1.1200    2.0486 H   0  0  0  0  0  0  0  0  0  0  0  0
    1.1527   -1.3576    0.3550 H   0  0  0  0  0  0  0  0  0  0  0  0
    1.3355    1.3103    1.8595 H   0  0  0  0  0  0  0  0  0  0  0  0
    0.8518    1.1751    0.1028 H   0  0  0  0  0  0  0  0  0  0  0  0
    3.2312    1.7324    0.4320 H   0  0  0  0  0  0  0  0  0  0  0  0
    3.4371    0.2497    1.4769 H   0  0  0  0  0  0  0  0  0  0  0  0
    2.9859   -1.2653   -0.3906 H   0  0  0  0  0  0  0  0  0  0  0  0
    2.6963    0.1258   -1.5030 H   0  0  0  0  0  0  0  0  0  0  0  0
    5.0518    0.8801   -1.1357 H   0  0  0  0  0  0  0  0  0  0  0  0
    4.9223   -0.8455   -1.7092 H   0  0  0  0  0  0  0  0  0  0  0  0
    5.4466    0.1338    1.1454 H   0  0  0  0  0  0  0  0  0  0  0  0
    4.9908   -1.5803    0.7087 H   0  0  0  0  0  0  0  0  0  0  0  0
    6.5376   -0.7827    0.0483 H   0  0  0  0  0  0  0  0  0  0  0  0
   -2.2255   -2.1586    1.1111 H   0  0  0  0  0  0  0  0  0  0  0  0
   -2.0626   -2.9198   -1.0887 H   0  0  0  0  0  0  0  0  0  0  0  0
  1  2  1  0
  1  3  1  0
  3  4  1  0
  3  5  1  0
  5  6  1  0
  6  7  1  0
  5  8  1  0
  8  9  1  0
  9 10  1  0
 10 11  1  0
 11 12  1  0
 12 13  1  0
 13 14  1  0
 14 15  1  0
 15 16  1  0
  9 17  1  0
 17 18  1  0
 17  1  1  0
  1 19  1  6
  2 20  1  0
  3 21  1  6
  4 22  1  0
  5 23  1  6
  6 24  1  0
  6 25  1  0
  7 26  1  0
  9 27  1  6
 11 28  1  0
 11 29  1  0
 12 30  1  0
 12 31  1  0
 13 32  1  0
 13 33  1  0
 14 34  1  0
 14 35  1  0
 15 36  1  0
 15 37  1  0
 16 38  1  0
 16 39  1  0
 16 40  1  0
 17 41  1  1
 18 42  1  0
M  END
$$$$
