@<TRIPOS>MOLECULE
*****
 52 56 0 0 0
SMALL
GASTEIGER

@<TRIPOS>ATOM
      1 C          -3.7077   -2.2994   -1.1664 C.3     1  UNL1       -0.0373
      2 C          -3.7248   -1.3224   -0.0756 C.ar    1  UNL1       -0.0202
      3 C          -3.2439   -0.0632   -0.3085 C.ar    1  UNL1        0.0350
      4 N          -2.7449    0.2535   -1.5930 N.pl3   1  UNL1       -0.3127
      5 C          -2.2518    1.5765   -1.8023 C.ar    1  UNL1        0.0602
      6 C          -3.0968    2.5596   -2.2520 C.ar    1  UNL1        0.0915
      7 C          -4.4792    2.1729   -2.4916 C.1     1  UNL1        0.1026
      8 N          -5.5781    1.8697   -2.6776 N.1     1  UNL1       -0.1908
      9 C          -2.7435    3.8724   -2.4929 C.ar    1  UNL1        0.0480
     10 N          -1.4336    4.1559   -2.2455 N.ar    1  UNL1       -0.2464
     11 C          -0.5958    3.2118   -1.8071 C.ar    1  UNL1        0.1106
     12 S           1.1623    3.3096   -1.4047 S.2     1  UNL1       -0.0692
     13 C           1.3326    1.5931   -0.9361 C.ar    1  UNL1        0.0150
     14 C           2.5662    0.9592   -0.4798 C.2     1  UNL1       -0.0430
     15 C           3.6551    1.6861   -0.4018 C.2     1  UNL1        0.0014
     16 C           4.9703    1.3444    0.0006 C.2     1  UNL1        0.2395
     17 O           5.8322    2.3156   -0.0416 O.2     1  UNL1       -0.2706
     18 N           5.4107    0.0720    0.4316 N.am    1  UNL1       -0.2980
     19 C           4.7040   -1.1334    0.5791 C.3     1  UNL1        0.0150
     20 C           5.6839   -2.1698    1.1232 C.3     1  UNL1       -0.0357
     21 C           7.0082   -1.5940    0.6338 C.3     1  UNL1       -0.0357
     22 C           6.8168   -0.1183    0.8024 C.3     1  UNL1        0.0150
     23 C           0.1028    1.1096   -1.1144 C.ar    1  UNL1       -0.0364
     24 C          -0.8944    1.9040   -1.5542 C.ar    1  UNL1        0.0306
     25 C          -3.2758    0.8408    0.7515 C.ar    1  UNL1       -0.0383
     26 C          -3.7710    0.4821    1.9834 C.ar    1  UNL1       -0.0360
     27 C          -4.2510   -0.7856    2.2042 C.ar    1  UNL1        0.0468
     28 N          -4.7883   -1.4171    3.2858 N.ar    1  UNL1       -0.3606
     29 C          -5.1044   -2.6845    2.9744 C.ar    1  UNL1        0.0027
     30 C          -4.7626   -2.8728    1.6623 C.ar    1  UNL1       -0.0364
     31 C          -4.2337   -1.7085    1.1717 C.ar    1  UNL1        0.0043
     32 H          -4.1603   -1.8920   -2.1120 H       1  UNL1        0.0278
     33 H          -2.7024   -2.7291   -1.3501 H       1  UNL1        0.0278
     34 H          -4.3599   -3.1524   -0.8916 H       1  UNL1        0.0278
     35 H          -2.7401   -0.4545   -2.3506 H       1  UNL1        0.1522
     36 H          -3.4295    4.5975   -2.8399 H       1  UNL1        0.0843
     37 H           2.6018   -0.0683   -0.2132 H       1  UNL1        0.0630
     38 H           3.5344    2.7730   -0.7053 H       1  UNL1        0.0670
     39 H           4.2956   -1.5354   -0.4006 H       1  UNL1        0.0465
     40 H           3.8680   -1.0738    1.3324 H       1  UNL1        0.0465
     41 H           5.6400   -2.2097    2.2189 H       1  UNL1        0.0281
     42 H           5.4708   -3.1227    0.6321 H       1  UNL1        0.0281
     43 H           7.2117   -1.8831   -0.4080 H       1  UNL1        0.0281
     44 H           7.7979   -1.9723    1.3069 H       1  UNL1        0.0281
     45 H           7.4907    0.4828    0.1392 H       1  UNL1        0.0465
     46 H           6.9994    0.1842    1.8607 H       1  UNL1        0.0465
     47 H          -0.0658    0.0182   -0.8836 H       1  UNL1        0.0636
     48 H          -2.8837    1.8331    0.5257 H       1  UNL1        0.0637
     49 H          -3.7824    1.1964    2.7760 H       1  UNL1        0.0639
     50 H          -4.9073   -0.9228    4.1965 H       1  UNL1        0.1653
     51 H          -5.5539   -3.4083    3.6731 H       1  UNL1        0.0807
     52 H          -4.8887   -3.7805    1.1135 H       1  UNL1        0.0639
@<TRIPOS>BOND
     1     1     2    1
     2     2     3   ar
     3     3     4    1
     4     4     5    1
     5     5     6   ar
     6     6     7    1
     7     7     8    3
     8     6     9   ar
     9     9    10   ar
    10    10    11   ar
    11    11    12   ar
    12    12    13   ar
    13    13    14    1
    14    14    15    2
    15    15    16    1
    16    16    17    2
    17    16    18   am
    18    18    19    1
    19    19    20    1
    20    20    21    1
    21    21    22    1
    22    13    23   ar
    23    23    24   ar
    24     3    25   ar
    25    25    26   ar
    26    26    27   ar
    27    27    28   ar
    28    28    29   ar
    29    29    30   ar
    30    30    31   ar
    31    31     2   ar
    32    24     5   ar
    33    31    27   ar
    34    24    11   ar
    35    22    18    1
    36     1    32    1
    37     1    33    1
    38     1    34    1
    39     4    35    1
    40     9    36    1
    41    14    37    1
    42    15    38    1
    43    19    39    1
    44    19    40    1
    45    20    41    1
    46    20    42    1
    47    21    43    1
    48    21    44    1
    49    22    45    1
    50    22    46    1
    51    23    47    1
    52    25    48    1
    53    26    49    1
    54    28    50    1
    55    29    51    1
    56    30    52    1
