
     RDKit          3D

 52 56  0  0  0  0  0  0  0  0999 V2000
   -3.7077   -2.2994   -1.1664 C   0  0  0  0  0  0  0  0  0  0  0  0
   -3.7248   -1.3224   -0.0756 C   0  0  0  0  0  0  0  0  0  0  0  0
   -3.2439   -0.0632   -0.3085 C   0  0  0  0  0  0  0  0  0  0  0  0
   -2.7449    0.2535   -1.5930 N   0  0  0  0  0  0  0  0  0  0  0  0
   -2.2518    1.5765   -1.8023 C   0  0  0  0  0  0  0  0  0  0  0  0
   -3.0968    2.5596   -2.2520 C   0  0  0  0  0  0  0  0  0  0  0  0
   -4.4792    2.1729   -2.4916 C   0  0  0  0  0  0  0  0  0  0  0  0
   -5.5781    1.8697   -2.6776 N   0  0  0  0  0  0  0  0  0  0  0  0
   -2.7435    3.8724   -2.4929 C   0  0  0  0  0  0  0  0  0  0  0  0
   -1.4336    4.1559   -2.2455 N   0  0  0  0  0  0  0  0  0  0  0  0
   -0.5958    3.2118   -1.8071 C   0  0  0  0  0  0  0  0  0  0  0  0
    1.1623    3.3096   -1.4047 S   0  0  0  0  0  0  0  0  0  0  0  0
    1.3326    1.5931   -0.9361 C   0  0  0  0  0  0  0  0  0  0  0  0
    2.5662    0.9592   -0.4798 C   0  0  0  0  0  0  0  0  0  0  0  0
    3.6551    1.6861   -0.4018 C   0  0  0  0  0  0  0  0  0  0  0  0
    4.9703    1.3444    0.0006 C   0  0  0  0  0  0  0  0  0  0  0  0
    5.8322    2.3156   -0.0416 O   0  0  0  0  0  0  0  0  0  0  0  0
    5.4107    0.0720    0.4316 N   0  0  0  0  0  0  0  0  0  0  0  0
    4.7040   -1.1334    0.5791 C   0  0  0  0  0  0  0  0  0  0  0  0
    5.6839   -2.1698    1.1232 C   0  0  0  0  0  0  0  0  0  0  0  0
    7.0082   -1.5940    0.6338 C   0  0  0  0  0  0  0  0  0  0  0  0
    6.8168   -0.1183    0.8024 C   0  0  0  0  0  0  0  0  0  0  0  0
    0.1028    1.1096   -1.1144 C   0  0  0  0  0  0  0  0  0  0  0  0
   -0.8944    1.9040   -1.5542 C   0  0  0  0  0  0  0  0  0  0  0  0
   -3.2758    0.8408    0.7515 C   0  0  0  0  0  0  0  0  0  0  0  0
   -3.7710    0.4821    1.9834 C   0  0  0  0  0  0  0  0  0  0  0  0
   -4.2510   -0.7856    2.2042 C   0  0  0  0  0  0  0  0  0  0  0  0
   -4.7883   -1.4171    3.2858 N   0  0  0  0  0  0  0  0  0  0  0  0
   -5.1044   -2.6845    2.9744 C   0  0  0  0  0  0  0  0  0  0  0  0
   -4.7626   -2.8728    1.6623 C   0  0  0  0  0  0  0  0  0  0  0  0
   -4.2337   -1.7085    1.1717 C   0  0  0  0  0  0  0  0  0  0  0  0
   -4.1603   -1.8920   -2.1120 H   0  0  0  0  0  0  0  0  0  0  0  0
   -2.7024   -2.7291   -1.3501 H   0  0  0  0  0  0  0  0  0  0  0  0
   -4.3599   -3.1524   -0.8916 H   0  0  0  0  0  0  0  0  0  0  0  0
   -2.7401   -0.4545   -2.3506 H   0  0  0  0  0  0  0  0  0  0  0  0
   -3.4295    4.5975   -2.8399 H   0  0  0  0  0  0  0  0  0  0  0  0
    2.6018   -0.0683   -0.2132 H   0  0  0  0  0  0  0  0  0  0  0  0
    3.5344    2.7730   -0.7053 H   0  0  0  0  0  0  0  0  0  0  0  0
    4.2956   -1.5354   -0.4006 H   0  0  0  0  0  0  0  0  0  0  0  0
    3.8680   -1.0738    1.3324 H   0  0  0  0  0  0  0  0  0  0  0  0
    5.6400   -2.2097    2.2189 H   0  0  0  0  0  0  0  0  0  0  0  0
    5.4708   -3.1227    0.6321 H   0  0  0  0  0  0  0  0  0  0  0  0
    7.2117   -1.8831   -0.4080 H   0  0  0  0  0  0  0  0  0  0  0  0
    7.7979   -1.9723    1.3069 H   0  0  0  0  0  0  0  0  0  0  0  0
    7.4907    0.4828    0.1392 H   0  0  0  0  0  0  0  0  0  0  0  0
    6.9994    0.1842    1.8607 H   0  0  0  0  0  0  0  0  0  0  0  0
   -0.0658    0.0182   -0.8836 H   0  0  0  0  0  0  0  0  0  0  0  0
   -2.8837    1.8331    0.5257 H   0  0  0  0  0  0  0  0  0  0  0  0
   -3.7824    1.1964    2.7760 H   0  0  0  0  0  0  0  0  0  0  0  0
   -4.9073   -0.9228    4.1965 H   0  0  0  0  0  0  0  0  0  0  0  0
   -5.5539   -3.4083    3.6731 H   0  0  0  0  0  0  0  0  0  0  0  0
   -4.8887   -3.7805    1.1135 H   0  0  0  0  0  0  0  0  0  0  0  0
  1  2  1  0
  2  3  2  0
  3  4  1  0
  4  5  1  0
  5  6  2  0
  6  7  1  0
  7  8  3  0
  6  9  1  0
  9 10  2  0
 10 11  1  0
 11 12  1  0
 12 13  1  0
 13 14  1  0
 14 15  2  0
 15 16  1  0
 16 17  2  0
 16 18  1  0
 18 19  1  0
 19 20  1  0
 20 21  1  0
 21 22  1  0
 13 23  2  0
 23 24  1  0
  3 25  1  0
 25 26  2  0
 26 27  1  0
 27 28  1  0
 28 29  1  0
 29 30  2  0
 30 31  1  0
 31  2  1  0
 24  5  1  0
 31 27  2  0
 24 11  2  0
 22 18  1  0
  1 32  1  0
  1 33  1  0
  1 34  1  0
  4 35  1  0
  9 36  1  0
 14 37  1  0
 15 38  1  0
 19 39  1  0
 19 40  1  0
 20 41  1  0
 20 42  1  0
 21 43  1  0
 21 44  1  0
 22 45  1  0
 22 46  1  0
 23 47  1  0
 25 48  1  0
 26 49  1  0
 28 50  1  0
 29 51  1  0
 30 52  1  0
M  END
$$$$
