@<TRIPOS>MOLECULE
*****
 74 79 0 0 0
SMALL
GASTEIGER

@<TRIPOS>ATOM
      1 C          -5.9653   -0.2134   -3.2092 C.3     1  UNL1       -0.0274
      2 C          -6.1065   -0.0969   -1.6851 C.3     1  UNL1        0.1037
      3 O          -4.9597   -0.2379   -1.0155 O.3     1  UNL1       -0.4725
      4 C          -4.3090   -0.8592   -0.0563 C.ar    1  UNL1        0.2265
      5 N          -2.9949   -0.5035    0.1566 N.ar    1  UNL1       -0.2121
      6 C          -2.2395   -1.0696    1.1042 C.ar    1  UNL1        0.0798
      7 C          -0.8596   -0.6510    1.2789 C.ar    1  UNL1        0.0380
      8 C           0.0072   -1.1575    2.2132 C.ar    1  UNL1        0.0586
      9 N           1.1825   -0.5344    2.0758 N.ar    1  UNL1       -0.1787
     10 N           1.1076    0.3467    1.0975 N.ar    1  UNL1       -0.2678
     11 C           2.1744    1.1972    0.6673 C.3     1  UNL1        0.0528
     12 C           3.4326    0.8567    1.3958 C.3     1  UNL1       -0.0291
     13 C           4.0418   -0.3536    0.6773 C.3     1  UNL1       -0.0354
     14 C           4.6725    0.1706   -0.5952 C.3     1  UNL1        0.0111
     15 N           6.0342    0.5297   -0.2787 N.3     1  UNL1       -0.2895
     16 C           6.7059   -0.6394    0.1896 C.3     1  UNL1        0.0155
     17 C           8.0923   -0.8245   -0.3552 C.3     1  UNL1        0.0272
     18 N           8.8069    0.4366   -0.3064 N.am    1  UNL1       -0.3023
     19 C          10.1135    0.6202    0.2359 C.3     1  UNL1        0.0032
     20 C           8.0815    1.5511   -0.8671 C.2     1  UNL1        0.2295
     21 O           8.5689    2.6831   -0.9259 O.2     1  UNL1       -0.2742
     22 C           6.7057    1.2021   -1.3601 C.3     1  UNL1        0.0762
     23 C           3.8495    1.3167   -1.0940 C.3     1  UNL1       -0.0354
     24 C           2.3678    1.1433   -0.8325 C.3     1  UNL1       -0.0291
     25 C          -0.1331    0.3018    0.5856 C.ar    1  UNL1        0.0350
     26 C          -2.7407   -2.0501    1.9276 C.ar    1  UNL1       -0.0076
     27 C          -4.0512   -2.4431    1.7562 C.ar    1  UNL1        0.0999
     28 N          -4.8332   -3.3588    2.3834 N.ar    1  UNL1       -0.1712
     29 N          -6.0243   -3.3405    1.8256 N.ar    1  UNL1       -0.2732
     30 C          -7.1744   -4.1770    2.2015 C.3     1  UNL1        0.0302
     31 C          -6.0302   -2.4249    0.8425 C.ar    1  UNL1        0.0380
     32 C          -4.8048   -1.8385    0.7683 C.ar    1  UNL1        0.0812
     33 C          -6.5879    1.3629   -1.4690 C.3     1  UNL1        0.0196
     34 C          -6.7420    1.5273    0.0195 C.3     1  UNL1        0.0182
     35 N          -6.4774    2.9365    0.2107 N.am    1  UNL1       -0.3149
     36 C          -5.5872    3.3512   -0.8131 C.2     1  UNL1        0.2135
     37 O          -5.0360    4.4741   -0.8876 O.2     1  UNL1       -0.2758
     38 C          -5.4112    2.2483   -1.7807 C.3     1  UNL1        0.0315
     39 H          -5.6710   -1.2354   -3.4887 H       1  UNL1        0.0265
     40 H          -6.9787   -0.0303   -3.6185 H       1  UNL1        0.0265
     41 H          -5.2847    0.5705   -3.5958 H       1  UNL1        0.0265
     42 H          -6.9900   -0.6982   -1.4454 H       1  UNL1        0.0734
     43 H          -0.2138   -1.9172    2.9279 H       1  UNL1        0.0854
     44 H           1.8995    2.2399    0.9541 H       1  UNL1        0.0545
     45 H           3.2489    0.6092    2.4472 H       1  UNL1        0.0286
     46 H           4.1866    1.6725    1.3053 H       1  UNL1        0.0286
     47 H           4.7527   -0.8048    1.3694 H       1  UNL1        0.0281
     48 H           3.2591   -1.1133    0.4675 H       1  UNL1        0.0281
     49 H           4.7101   -0.6721   -1.3150 H       1  UNL1        0.0463
     50 H           6.7821   -0.6118    1.3013 H       1  UNL1        0.0442
     51 H           6.1420   -1.5833   -0.0489 H       1  UNL1        0.0442
     52 H           8.1236   -1.3006   -1.3434 H       1  UNL1        0.0477
     53 H           8.6248   -1.5209    0.3477 H       1  UNL1        0.0477
     54 H          10.7658   -0.2480   -0.0312 H       1  UNL1        0.0428
     55 H          10.0426    0.6047    1.3463 H       1  UNL1        0.0428
     56 H          10.5885    1.5221   -0.1485 H       1  UNL1        0.0428
     57 H           6.2119    2.1400   -1.5944 H       1  UNL1        0.0522
     58 H           6.8500    0.5648   -2.2423 H       1  UNL1        0.0522
     59 H           3.9543    1.3183   -2.2190 H       1  UNL1        0.0281
     60 H           4.1405    2.2902   -0.7036 H       1  UNL1        0.0281
     61 H           1.8471    2.0030   -1.2815 H       1  UNL1        0.0286
     62 H           1.9640    0.2136   -1.2765 H       1  UNL1        0.0286
     63 H          -0.5566    0.8790   -0.2244 H       1  UNL1        0.0833
     64 H          -2.1497   -2.5150    2.6924 H       1  UNL1        0.0661
     65 H          -7.8283   -3.6382    2.8954 H       1  UNL1        0.0473
     66 H          -7.7322   -4.3917    1.2648 H       1  UNL1        0.0473
     67 H          -6.8148   -5.1536    2.5765 H       1  UNL1        0.0473
     68 H          -6.8875   -2.2217    0.2375 H       1  UNL1        0.0834
     69 H          -7.4840    1.5746   -2.0465 H       1  UNL1        0.0356
     70 H          -7.7265    1.2176    0.3943 H       1  UNL1        0.0466
     71 H          -5.8981    0.9730    0.4996 H       1  UNL1        0.0466
     72 H          -6.8907    3.5018    0.9781 H       1  UNL1        0.1487
     73 H          -5.3746    2.5851   -2.8253 H       1  UNL1        0.0363
     74 H          -4.4893    1.6938   -1.4655 H       1  UNL1        0.0363
@<TRIPOS>BOND
     1     1     2    1
     2     2     3    1
     3     3     4    1
     4     4     5   ar
     5     5     6   ar
     6     6     7    1
     7     7     8   ar
     8     8     9   ar
     9     9    10   ar
    10    10    11    1
    11    11    12    1
    12    12    13    1
    13    13    14    1
    14    14    15    1
    15    15    16    1
    16    16    17    1
    17    17    18    1
    18    18    19    1
    19    18    20   am
    20    20    21    2
    21    20    22    1
    22    14    23    1
    23    23    24    1
    24    10    25   ar
    25     6    26   ar
    26    26    27   ar
    27    27    28   ar
    28    28    29   ar
    29    29    30    1
    30    29    31   ar
    31    31    32   ar
    32     2    33    1
    33    33    34    1
    34    34    35    1
    35    35    36   am
    36    36    37    2
    37    36    38    1
    38    32     4   ar
    39    38    33    1
    40    25     7   ar
    41    32    27   ar
    42    24    11    1
    43    22    15    1
    44     1    39    1
    45     1    40    1
    46     1    41    1
    47     2    42    1
    48     8    43    1
    49    11    44    1
    50    12    45    1
    51    12    46    1
    52    13    47    1
    53    13    48    1
    54    14    49    1
    55    16    50    1
    56    16    51    1
    57    17    52    1
    58    17    53    1
    59    19    54    1
    60    19    55    1
    61    19    56    1
    62    22    57    1
    63    22    58    1
    64    23    59    1
    65    23    60    1
    66    24    61    1
    67    24    62    1
    68    25    63    1
    69    26    64    1
    70    30    65    1
    71    30    66    1
    72    30    67    1
    73    31    68    1
    74    33    69    1
    75    34    70    1
    76    34    71    1
    77    35    72    1
    78    38    73    1
    79    38    74    1
