
     RDKit          3D

 74 79  0  0  0  0  0  0  0  0999 V2000
   -5.9653   -0.2134   -3.2092 C   0  0  0  0  0  0  0  0  0  0  0  0
   -6.1065   -0.0969   -1.6851 C   0  0  1  0  0  0  0  0  0  0  0  0
   -4.9597   -0.2379   -1.0155 O   0  0  0  0  0  0  0  0  0  0  0  0
   -4.3090   -0.8592   -0.0563 C   0  0  0  0  0  0  0  0  0  0  0  0
   -2.9949   -0.5035    0.1566 N   0  0  0  0  0  0  0  0  0  0  0  0
   -2.2395   -1.0696    1.1042 C   0  0  0  0  0  0  0  0  0  0  0  0
   -0.8596   -0.6510    1.2789 C   0  0  0  0  0  0  0  0  0  0  0  0
    0.0072   -1.1575    2.2132 C   0  0  0  0  0  0  0  0  0  0  0  0
    1.1825   -0.5344    2.0758 N   0  0  0  0  0  0  0  0  0  0  0  0
    1.1076    0.3467    1.0975 N   0  0  0  0  0  0  0  0  0  0  0  0
    2.1744    1.1972    0.6673 C   0  0  1  0  0  0  0  0  0  0  0  0
    3.4326    0.8567    1.3958 C   0  0  0  0  0  0  0  0  0  0  0  0
    4.0418   -0.3536    0.6773 C   0  0  0  0  0  0  0  0  0  0  0  0
    4.6725    0.1706   -0.5952 C   0  0  2  0  0  0  0  0  0  0  0  0
    6.0342    0.5297   -0.2787 N   0  0  0  0  0  0  0  0  0  0  0  0
    6.7059   -0.6394    0.1896 C   0  0  0  0  0  0  0  0  0  0  0  0
    8.0923   -0.8245   -0.3552 C   0  0  0  0  0  0  0  0  0  0  0  0
    8.8069    0.4366   -0.3064 N   0  0  0  0  0  0  0  0  0  0  0  0
   10.1135    0.6202    0.2359 C   0  0  0  0  0  0  0  0  0  0  0  0
    8.0815    1.5511   -0.8671 C   0  0  0  0  0  0  0  0  0  0  0  0
    8.5689    2.6831   -0.9259 O   0  0  0  0  0  0  0  0  0  0  0  0
    6.7057    1.2021   -1.3601 C   0  0  0  0  0  0  0  0  0  0  0  0
    3.8495    1.3167   -1.0940 C   0  0  0  0  0  0  0  0  0  0  0  0
    2.3678    1.1433   -0.8325 C   0  0  0  0  0  0  0  0  0  0  0  0
   -0.1331    0.3018    0.5856 C   0  0  0  0  0  0  0  0  0  0  0  0
   -2.7407   -2.0501    1.9276 C   0  0  0  0  0  0  0  0  0  0  0  0
   -4.0512   -2.4431    1.7562 C   0  0  0  0  0  0  0  0  0  0  0  0
   -4.8332   -3.3588    2.3834 N   0  0  0  0  0  0  0  0  0  0  0  0
   -6.0243   -3.3405    1.8256 N   0  0  0  0  0  0  0  0  0  0  0  0
   -7.1744   -4.1770    2.2015 C   0  0  0  0  0  0  0  0  0  0  0  0
   -6.0302   -2.4249    0.8425 C   0  0  0  0  0  0  0  0  0  0  0  0
   -4.8048   -1.8385    0.7683 C   0  0  0  0  0  0  0  0  0  0  0  0
   -6.5879    1.3629   -1.4690 C   0  0  1  0  0  0  0  0  0  0  0  0
   -6.7420    1.5273    0.0195 C   0  0  0  0  0  0  0  0  0  0  0  0
   -6.4774    2.9365    0.2107 N   0  0  0  0  0  0  0  0  0  0  0  0
   -5.5872    3.3512   -0.8131 C   0  0  0  0  0  0  0  0  0  0  0  0
   -5.0360    4.4741   -0.8876 O   0  0  0  0  0  0  0  0  0  0  0  0
   -5.4112    2.2483   -1.7807 C   0  0  0  0  0  0  0  0  0  0  0  0
   -5.6710   -1.2354   -3.4887 H   0  0  0  0  0  0  0  0  0  0  0  0
   -6.9787   -0.0303   -3.6185 H   0  0  0  0  0  0  0  0  0  0  0  0
   -5.2847    0.5705   -3.5958 H   0  0  0  0  0  0  0  0  0  0  0  0
   -6.9900   -0.6982   -1.4454 H   0  0  0  0  0  0  0  0  0  0  0  0
   -0.2138   -1.9172    2.9279 H   0  0  0  0  0  0  0  0  0  0  0  0
    1.8995    2.2399    0.9541 H   0  0  0  0  0  0  0  0  0  0  0  0
    3.2489    0.6092    2.4472 H   0  0  0  0  0  0  0  0  0  0  0  0
    4.1866    1.6725    1.3053 H   0  0  0  0  0  0  0  0  0  0  0  0
    4.7527   -0.8048    1.3694 H   0  0  0  0  0  0  0  0  0  0  0  0
    3.2591   -1.1133    0.4675 H   0  0  0  0  0  0  0  0  0  0  0  0
    4.7101   -0.6721   -1.3150 H   0  0  0  0  0  0  0  0  0  0  0  0
    6.7821   -0.6118    1.3013 H   0  0  0  0  0  0  0  0  0  0  0  0
    6.1420   -1.5833   -0.0489 H   0  0  0  0  0  0  0  0  0  0  0  0
    8.1236   -1.3006   -1.3434 H   0  0  0  0  0  0  0  0  0  0  0  0
    8.6248   -1.5209    0.3477 H   0  0  0  0  0  0  0  0  0  0  0  0
   10.7658   -0.2480   -0.0312 H   0  0  0  0  0  0  0  0  0  0  0  0
   10.0426    0.6047    1.3463 H   0  0  0  0  0  0  0  0  0  0  0  0
   10.5885    1.5221   -0.1485 H   0  0  0  0  0  0  0  0  0  0  0  0
    6.2119    2.1400   -1.5944 H   0  0  0  0  0  0  0  0  0  0  0  0
    6.8500    0.5648   -2.2423 H   0  0  0  0  0  0  0  0  0  0  0  0
    3.9543    1.3183   -2.2190 H   0  0  0  0  0  0  0  0  0  0  0  0
    4.1405    2.2902   -0.7036 H   0  0  0  0  0  0  0  0  0  0  0  0
    1.8471    2.0030   -1.2815 H   0  0  0  0  0  0  0  0  0  0  0  0
    1.9640    0.2136   -1.2765 H   0  0  0  0  0  0  0  0  0  0  0  0
   -0.5566    0.8790   -0.2244 H   0  0  0  0  0  0  0  0  0  0  0  0
   -2.1497   -2.5150    2.6924 H   0  0  0  0  0  0  0  0  0  0  0  0
   -7.8283   -3.6382    2.8954 H   0  0  0  0  0  0  0  0  0  0  0  0
   -7.7322   -4.3917    1.2648 H   0  0  0  0  0  0  0  0  0  0  0  0
   -6.8148   -5.1536    2.5765 H   0  0  0  0  0  0  0  0  0  0  0  0
   -6.8875   -2.2217    0.2375 H   0  0  0  0  0  0  0  0  0  0  0  0
   -7.4840    1.5746   -2.0465 H   0  0  0  0  0  0  0  0  0  0  0  0
   -7.7265    1.2176    0.3943 H   0  0  0  0  0  0  0  0  0  0  0  0
   -5.8981    0.9730    0.4996 H   0  0  0  0  0  0  0  0  0  0  0  0
   -6.8907    3.5018    0.9781 H   0  0  0  0  0  0  0  0  0  0  0  0
   -5.3746    2.5851   -2.8253 H   0  0  0  0  0  0  0  0  0  0  0  0
   -4.4893    1.6938   -1.4655 H   0  0  0  0  0  0  0  0  0  0  0  0
  1  2  1  0
  2  3  1  0
  3  4  1  0
  4  5  2  0
  5  6  1  0
  6  7  1  0
  7  8  1  0
  8  9  2  0
  9 10  1  0
 10 11  1  0
 11 12  1  0
 12 13  1  0
 13 14  1  0
 14 15  1  0
 15 16  1  0
 16 17  1  0
 17 18  1  0
 18 19  1  0
 18 20  1  0
 20 21  2  0
 20 22  1  0
 14 23  1  0
 23 24  1  0
 10 25  1  0
  6 26  2  0
 26 27  1  0
 27 28  2  0
 28 29  1  0
 29 30  1  0
 29 31  1  0
 31 32  2  0
  2 33  1  0
 33 34  1  0
 34 35  1  0
 35 36  1  0
 36 37  2  0
 36 38  1  0
 32  4  1  0
 38 33  1  0
 25  7  2  0
 32 27  1  0
 24 11  1  0
 22 15  1  0
  1 39  1  0
  1 40  1  0
  1 41  1  0
  2 42  1  1
  8 43  1  0
 11 44  1  6
 12 45  1  0
 12 46  1  0
 13 47  1  0
 13 48  1  0
 14 49  1  6
 16 50  1  0
 16 51  1  0
 17 52  1  0
 17 53  1  0
 19 54  1  0
 19 55  1  0
 19 56  1  0
 22 57  1  0
 22 58  1  0
 23 59  1  0
 23 60  1  0
 24 61  1  0
 24 62  1  0
 25 63  1  0
 26 64  1  0
 30 65  1  0
 30 66  1  0
 30 67  1  0
 31 68  1  0
 33 69  1  6
 34 70  1  0
 34 71  1  0
 35 72  1  0
 38 73  1  0
 38 74  1  0
M  END
$$$$
