@<TRIPOS>MOLECULE
*****
 54 58 0 0 0
SMALL
GASTEIGER

@<TRIPOS>ATOM
      1 C          -6.4347    0.2981   -3.0967 C.3     1  UNL1       -0.0414
      2 C          -5.9289    0.2997   -1.6670 C.3     1  UNL1        0.0794
      3 N          -6.6192    1.2780   -0.8501 N.3     1  UNL1       -0.3202
      4 C          -4.4758    0.6778   -1.6813 C.2     1  UNL1        0.2298
      5 O          -4.0563    1.6727   -1.0649 O.2     1  UNL1       -0.2741
      6 N          -3.5598   -0.1156   -2.4129 N.am    1  UNL1       -0.3099
      7 C          -2.1523    0.1154   -2.5181 C.3     1  UNL1        0.0369
      8 C          -1.4680   -0.3270   -1.2799 C.ar    1  UNL1       -0.0283
      9 C          -1.0600   -1.6574   -1.1346 C.ar    1  UNL1       -0.0569
     10 C          -0.4216   -2.0489    0.0069 C.ar    1  UNL1       -0.0594
     11 C          -0.1534   -1.1822    1.0443 C.ar    1  UNL1       -0.0362
     12 C          -0.5444    0.1335    0.9266 C.ar    1  UNL1        0.0665
     13 N          -0.2950    1.0747    1.9646 N.ar    1  UNL1       -0.2269
     14 N          -1.2603    1.7848    2.5728 N.ar    1  UNL1       -0.1616
     15 C          -0.7124    2.5837    3.5053 C.ar    1  UNL1        0.1663
     16 C          -1.3810    3.5423    4.4221 C.3     1  UNL1        0.4360
     17 F          -1.9759    2.9128    5.4956 F       1  UNL1       -0.1644
     18 F          -0.5305    4.5034    4.8885 F       1  UNL1       -0.1644
     19 F          -2.4126    4.2098    3.7499 F       1  UNL1       -0.1644
     20 C           0.6384    2.3359    3.4471 C.ar    1  UNL1        0.0008
     21 C           0.8961    1.3877    2.4782 C.ar    1  UNL1        0.1313
     22 C           2.2154    0.8595    2.1169 C.ar    1  UNL1        0.2670
     23 N           3.3787    1.2261    2.6849 N.ar    1  UNL1       -0.1053
     24 N           4.3642    0.5513    2.1165 N.ar    1  UNL1       -0.1069
     25 C           3.8261   -0.2349    1.1968 C.ar    1  UNL1        0.2499
     26 C           4.5191   -1.1692    0.3071 C.ar    1  UNL1        0.0543
     27 C           3.8103   -1.9300   -0.6115 C.ar    1  UNL1       -0.0482
     28 C           4.5547   -2.7694   -1.3924 C.ar    1  UNL1       -0.0590
     29 C           5.9119   -2.9172   -1.3432 C.ar    1  UNL1       -0.0352
     30 C           6.6481   -2.1511   -0.4147 C.ar    1  UNL1        0.0789
     31 N           7.9093   -2.1378   -0.2086 N.ar    1  UNL1       -0.2474
     32 C           8.5818   -1.4705    0.6048 C.ar    1  UNL1        0.0659
     33 S           7.1488   -0.5195    1.3999 S.2     1  UNL1       -0.0747
     34 C           5.8643   -1.2814    0.3925 C.ar    1  UNL1        0.0512
     35 O           2.5327   -0.0230    1.2252 O.2     1  UNL1       -0.4143
     36 C          -1.1963    0.5146   -0.2496 C.ar    1  UNL1       -0.0316
     37 H          -6.0889    1.1909   -3.6560 H       1  UNL1        0.0249
     38 H          -6.0297   -0.5931   -3.6026 H       1  UNL1        0.0249
     39 H          -7.5318    0.2192   -3.0803 H       1  UNL1        0.0249
     40 H          -6.0430   -0.7168   -1.2744 H       1  UNL1        0.0551
     41 H          -7.1067    0.8378   -0.0568 H       1  UNL1        0.1189
     42 H          -7.2402    1.8262   -1.4870 H       1  UNL1        0.1189
     43 H          -3.9400   -0.9510   -2.9279 H       1  UNL1        0.1491
     44 H          -1.6907   -0.3916   -3.3794 H       1  UNL1        0.0512
     45 H          -2.0039    1.2073   -2.6940 H       1  UNL1        0.0512
     46 H          -1.2865   -2.3179   -1.9714 H       1  UNL1        0.0621
     47 H          -0.1257   -3.0978    0.0667 H       1  UNL1        0.0618
     48 H           0.3609   -1.5506    1.9366 H       1  UNL1        0.0639
     49 H           1.3753    2.8180    4.0715 H       1  UNL1        0.0662
     50 H           2.7511   -1.8181   -0.6535 H       1  UNL1        0.0625
     51 H           3.9765   -3.3667   -2.1165 H       1  UNL1        0.0618
     52 H           6.3771   -3.6125   -2.0129 H       1  UNL1        0.0639
     53 H           9.5561   -1.2824    0.9537 H       1  UNL1        0.0907
     54 H          -1.4714    1.5722   -0.2794 H       1  UNL1        0.0642
@<TRIPOS>BOND
     1     1     2    1
     2     2     3    1
     3     2     4    1
     4     4     5    2
     5     4     6   am
     6     6     7    1
     7     7     8    1
     8     8     9   ar
     9     9    10   ar
    10    10    11   ar
    11    11    12   ar
    12    12    13    1
    13    13    14   ar
    14    14    15   ar
    15    15    16    1
    16    16    17    1
    17    16    18    1
    18    16    19    1
    19    15    20   ar
    20    20    21   ar
    21    21    22    1
    22    22    23   ar
    23    23    24   ar
    24    24    25   ar
    25    25    26    1
    26    26    27   ar
    27    27    28   ar
    28    28    29   ar
    29    29    30   ar
    30    30    31   ar
    31    31    32   ar
    32    32    33   ar
    33    33    34   ar
    34    25    35   ar
    35    12    36   ar
    36    36     8   ar
    37    21    13   ar
    38    35    22   ar
    39    34    26   ar
    40    34    30   ar
    41     1    37    1
    42     1    38    1
    43     1    39    1
    44     2    40    1
    45     3    41    1
    46     3    42    1
    47     6    43    1
    48     7    44    1
    49     7    45    1
    50     9    46    1
    51    10    47    1
    52    11    48    1
    53    20    49    1
    54    27    50    1
    55    28    51    1
    56    29    52    1
    57    32    53    1
    58    36    54    1
