@<TRIPOS>MOLECULE
*****
 65 69 0 0 0
SMALL
GASTEIGER

@<TRIPOS>ATOM
      1 C          10.0567   -0.5949   -1.4902 C.3     1  UNL1        0.0788
      2 O           9.5550   -0.2960   -0.1955 O.3     1  UNL1       -0.4951
      3 C           8.1813   -0.1240   -0.0711 C.ar    1  UNL1        0.1201
      4 C           7.3173   -0.2328   -1.1403 C.ar    1  UNL1       -0.0197
      5 C           5.9431   -0.0650   -1.0403 C.ar    1  UNL1       -0.0551
      6 C           5.3878    0.2301    0.2012 C.ar    1  UNL1       -0.0459
      7 C           3.9279    0.4318    0.3760 C.3     1  UNL1       -0.0149
      8 C           3.2867   -0.8982    0.6549 C.3     1  UNL1        0.0029
      9 N           1.8601   -0.8235    0.8494 N.3     1  UNL1       -0.3019
     10 C           1.4796   -0.1604    2.0471 C.3     1  UNL1        0.0006
     11 C          -0.0152   -0.3085    2.2354 C.3     1  UNL1       -0.0216
     12 C          -0.6643    0.4832    1.1426 C.3     1  UNL1        0.0256
     13 N          -2.1129    0.3646    1.2627 N.pl3   1  UNL1       -0.3118
     14 C          -2.9769    1.0486    0.3515 C.ar    1  UNL1        0.1971
     15 N          -2.5820    1.8727   -0.6599 N.ar    1  UNL1       -0.2144
     16 C          -3.6758    2.3382   -1.2754 C.ar    1  UNL1        0.0909
     17 C          -3.8984    3.1957   -2.3424 C.ar    1  UNL1       -0.0342
     18 C          -5.1417    3.5437   -2.8113 C.ar    1  UNL1       -0.0596
     19 C          -6.2367    2.9968   -2.1685 C.ar    1  UNL1       -0.0597
     20 C          -6.0545    2.1429   -1.1069 C.ar    1  UNL1       -0.0360
     21 C          -4.8042    1.8035   -0.6499 C.ar    1  UNL1        0.0704
     22 N          -4.3143    1.0167    0.3423 N.ar    1  UNL1       -0.3075
     23 C          -5.1624    0.2546    1.2515 C.3     1  UNL1        0.0514
     24 C          -5.5140   -1.0972    0.7156 C.ar    1  UNL1       -0.0275
     25 C          -4.6472   -2.1338    0.8852 C.ar    1  UNL1       -0.0542
     26 C          -4.9963   -3.3907    0.3856 C.ar    1  UNL1       -0.0261
     27 C          -6.1877   -3.5979   -0.2677 C.ar    1  UNL1        0.1234
     28 F          -6.4786   -4.8491   -0.7375 F       1  UNL1       -0.2055
     29 C          -7.0339   -2.5384   -0.4205 C.ar    1  UNL1       -0.0261
     30 C          -6.7207   -1.2917    0.0583 C.ar    1  UNL1       -0.0542
     31 C          -0.1971    0.0822   -0.2162 C.3     1  UNL1       -0.0216
     32 C           1.1045   -0.6036   -0.3118 C.3     1  UNL1        0.0006
     33 C           6.2384    0.3407    1.2727 C.ar    1  UNL1       -0.0551
     34 C           7.6020    0.1693    1.1469 C.ar    1  UNL1       -0.0197
     35 H           9.7085   -1.5969   -1.8446 H       1  UNL1        0.0660
     36 H           9.6739    0.2004   -2.1853 H       1  UNL1        0.0660
     37 H          11.1632   -0.5369   -1.5348 H       1  UNL1        0.0660
     38 H           7.7447   -0.4640   -2.1165 H       1  UNL1        0.0654
     39 H           5.3200   -0.1630   -1.9182 H       1  UNL1        0.0621
     40 H           3.8079    1.1494    1.2062 H       1  UNL1        0.0326
     41 H           3.5511    0.8181   -0.5893 H       1  UNL1        0.0326
     42 H           3.4761   -1.6075   -0.1740 H       1  UNL1        0.0430
     43 H           3.7101   -1.3666    1.5780 H       1  UNL1        0.0430
     44 H           1.9725   -0.6897    2.8931 H       1  UNL1        0.0427
     45 H           1.7868    0.8962    2.0172 H       1  UNL1        0.0427
     46 H          -0.2612   -1.3686    2.2366 H       1  UNL1        0.0295
     47 H          -0.2504    0.1491    3.2163 H       1  UNL1        0.0295
     48 H          -0.3938    1.5512    1.3212 H       1  UNL1        0.0499
     49 H          -2.4706   -0.2199    2.0382 H       1  UNL1        0.1491
     50 H          -3.0252    3.6125   -2.8295 H       1  UNL1        0.0639
     51 H          -5.2847    4.2181   -3.6503 H       1  UNL1        0.0618
     52 H          -7.2126    3.2857   -2.5556 H       1  UNL1        0.0618
     53 H          -6.9245    1.7482   -0.6317 H       1  UNL1        0.0639
     54 H          -4.6679    0.1551    2.2525 H       1  UNL1        0.0542
     55 H          -6.1201    0.7903    1.4439 H       1  UNL1        0.0542
     56 H          -3.6923   -2.0586    1.3894 H       1  UNL1        0.0622
     57 H          -4.3238   -4.2429    0.5043 H       1  UNL1        0.0646
     58 H          -7.9861   -2.6915   -0.9385 H       1  UNL1        0.0646
     59 H          -7.3760   -0.4619   -0.0497 H       1  UNL1        0.0622
     60 H          -0.9901   -0.6182   -0.6198 H       1  UNL1        0.0295
     61 H          -0.2895    0.9628   -0.9260 H       1  UNL1        0.0295
     62 H           1.7340   -0.0011   -1.0380 H       1  UNL1        0.0427
     63 H           0.9950   -1.5881   -0.8611 H       1  UNL1        0.0427
     64 H           5.8292    0.5686    2.2425 H       1  UNL1        0.0621
     65 H           8.2704    0.2597    2.0063 H       1  UNL1        0.0654
@<TRIPOS>BOND
     1     1     2    1
     2     2     3    1
     3     3     4   ar
     4     4     5   ar
     5     5     6   ar
     6     6     7    1
     7     7     8    1
     8     8     9    1
     9     9    10    1
    10    10    11    1
    11    11    12    1
    12    12    13    1
    13    13    14    1
    14    14    15   ar
    15    15    16   ar
    16    16    17   ar
    17    17    18   ar
    18    18    19   ar
    19    19    20   ar
    20    20    21   ar
    21    21    22   ar
    22    22    23    1
    23    23    24    1
    24    24    25   ar
    25    25    26   ar
    26    26    27   ar
    27    27    28    1
    28    27    29   ar
    29    29    30   ar
    30    12    31    1
    31    31    32    1
    32     6    33   ar
    33    33    34   ar
    34    34     3   ar
    35    32     9    1
    36    22    14   ar
    37    30    24   ar
    38    21    16   ar
    39     1    35    1
    40     1    36    1
    41     1    37    1
    42     4    38    1
    43     5    39    1
    44     7    40    1
    45     7    41    1
    46     8    42    1
    47     8    43    1
    48    10    44    1
    49    10    45    1
    50    11    46    1
    51    11    47    1
    52    12    48    1
    53    13    49    1
    54    17    50    1
    55    18    51    1
    56    19    52    1
    57    20    53    1
    58    23    54    1
    59    23    55    1
    60    25    56    1
    61    26    57    1
    62    29    58    1
    63    30    59    1
    64    31    60    1
    65    31    61    1
    66    32    62    1
    67    32    63    1
    68    33    64    1
    69    34    65    1
