
     RDKit          3D

 65 69  0  0  0  0  0  0  0  0999 V2000
   10.0567   -0.5949   -1.4902 C   0  0  0  0  0  0  0  0  0  0  0  0
    9.5550   -0.2960   -0.1955 O   0  0  0  0  0  0  0  0  0  0  0  0
    8.1813   -0.1240   -0.0711 C   0  0  0  0  0  0  0  0  0  0  0  0
    7.3173   -0.2328   -1.1403 C   0  0  0  0  0  0  0  0  0  0  0  0
    5.9431   -0.0650   -1.0403 C   0  0  0  0  0  0  0  0  0  0  0  0
    5.3878    0.2301    0.2012 C   0  0  0  0  0  0  0  0  0  0  0  0
    3.9279    0.4318    0.3760 C   0  0  0  0  0  0  0  0  0  0  0  0
    3.2867   -0.8982    0.6549 C   0  0  0  0  0  0  0  0  0  0  0  0
    1.8601   -0.8235    0.8494 N   0  0  0  0  0  0  0  0  0  0  0  0
    1.4796   -0.1604    2.0471 C   0  0  0  0  0  0  0  0  0  0  0  0
   -0.0152   -0.3085    2.2354 C   0  0  0  0  0  0  0  0  0  0  0  0
   -0.6643    0.4832    1.1426 C   0  0  0  0  0  0  0  0  0  0  0  0
   -2.1129    0.3646    1.2627 N   0  0  0  0  0  0  0  0  0  0  0  0
   -2.9769    1.0486    0.3515 C   0  0  0  0  0  0  0  0  0  0  0  0
   -2.5820    1.8727   -0.6599 N   0  0  0  0  0  0  0  0  0  0  0  0
   -3.6758    2.3382   -1.2754 C   0  0  0  0  0  0  0  0  0  0  0  0
   -3.8984    3.1957   -2.3424 C   0  0  0  0  0  0  0  0  0  0  0  0
   -5.1417    3.5437   -2.8113 C   0  0  0  0  0  0  0  0  0  0  0  0
   -6.2367    2.9968   -2.1685 C   0  0  0  0  0  0  0  0  0  0  0  0
   -6.0545    2.1429   -1.1069 C   0  0  0  0  0  0  0  0  0  0  0  0
   -4.8042    1.8035   -0.6499 C   0  0  0  0  0  0  0  0  0  0  0  0
   -4.3143    1.0167    0.3423 N   0  0  0  0  0  0  0  0  0  0  0  0
   -5.1624    0.2546    1.2515 C   0  0  0  0  0  0  0  0  0  0  0  0
   -5.5140   -1.0972    0.7156 C   0  0  0  0  0  0  0  0  0  0  0  0
   -4.6472   -2.1338    0.8852 C   0  0  0  0  0  0  0  0  0  0  0  0
   -4.9963   -3.3907    0.3856 C   0  0  0  0  0  0  0  0  0  0  0  0
   -6.1877   -3.5979   -0.2677 C   0  0  0  0  0  0  0  0  0  0  0  0
   -6.4786   -4.8491   -0.7375 F   0  0  0  0  0  0  0  0  0  0  0  0
   -7.0339   -2.5384   -0.4205 C   0  0  0  0  0  0  0  0  0  0  0  0
   -6.7207   -1.2917    0.0583 C   0  0  0  0  0  0  0  0  0  0  0  0
   -0.1971    0.0822   -0.2162 C   0  0  0  0  0  0  0  0  0  0  0  0
    1.1045   -0.6036   -0.3118 C   0  0  0  0  0  0  0  0  0  0  0  0
    6.2384    0.3407    1.2727 C   0  0  0  0  0  0  0  0  0  0  0  0
    7.6020    0.1693    1.1469 C   0  0  0  0  0  0  0  0  0  0  0  0
    9.7085   -1.5969   -1.8446 H   0  0  0  0  0  0  0  0  0  0  0  0
    9.6739    0.2004   -2.1853 H   0  0  0  0  0  0  0  0  0  0  0  0
   11.1632   -0.5369   -1.5348 H   0  0  0  0  0  0  0  0  0  0  0  0
    7.7447   -0.4640   -2.1165 H   0  0  0  0  0  0  0  0  0  0  0  0
    5.3200   -0.1630   -1.9182 H   0  0  0  0  0  0  0  0  0  0  0  0
    3.8079    1.1494    1.2062 H   0  0  0  0  0  0  0  0  0  0  0  0
    3.5511    0.8181   -0.5893 H   0  0  0  0  0  0  0  0  0  0  0  0
    3.4761   -1.6075   -0.1740 H   0  0  0  0  0  0  0  0  0  0  0  0
    3.7101   -1.3666    1.5780 H   0  0  0  0  0  0  0  0  0  0  0  0
    1.9725   -0.6897    2.8931 H   0  0  0  0  0  0  0  0  0  0  0  0
    1.7868    0.8962    2.0172 H   0  0  0  0  0  0  0  0  0  0  0  0
   -0.2612   -1.3686    2.2366 H   0  0  0  0  0  0  0  0  0  0  0  0
   -0.2504    0.1491    3.2163 H   0  0  0  0  0  0  0  0  0  0  0  0
   -0.3938    1.5512    1.3212 H   0  0  0  0  0  0  0  0  0  0  0  0
   -2.4706   -0.2199    2.0382 H   0  0  0  0  0  0  0  0  0  0  0  0
   -3.0252    3.6125   -2.8295 H   0  0  0  0  0  0  0  0  0  0  0  0
   -5.2847    4.2181   -3.6503 H   0  0  0  0  0  0  0  0  0  0  0  0
   -7.2126    3.2857   -2.5556 H   0  0  0  0  0  0  0  0  0  0  0  0
   -6.9245    1.7482   -0.6317 H   0  0  0  0  0  0  0  0  0  0  0  0
   -4.6679    0.1551    2.2525 H   0  0  0  0  0  0  0  0  0  0  0  0
   -6.1201    0.7903    1.4439 H   0  0  0  0  0  0  0  0  0  0  0  0
   -3.6923   -2.0586    1.3894 H   0  0  0  0  0  0  0  0  0  0  0  0
   -4.3238   -4.2429    0.5043 H   0  0  0  0  0  0  0  0  0  0  0  0
   -7.9861   -2.6915   -0.9385 H   0  0  0  0  0  0  0  0  0  0  0  0
   -7.3760   -0.4619   -0.0497 H   0  0  0  0  0  0  0  0  0  0  0  0
   -0.9901   -0.6182   -0.6198 H   0  0  0  0  0  0  0  0  0  0  0  0
   -0.2895    0.9628   -0.9260 H   0  0  0  0  0  0  0  0  0  0  0  0
    1.7340   -0.0011   -1.0380 H   0  0  0  0  0  0  0  0  0  0  0  0
    0.9950   -1.5881   -0.8611 H   0  0  0  0  0  0  0  0  0  0  0  0
    5.8292    0.5686    2.2425 H   0  0  0  0  0  0  0  0  0  0  0  0
    8.2704    0.2597    2.0063 H   0  0  0  0  0  0  0  0  0  0  0  0
  1  2  1  0
  2  3  1  0
  3  4  2  0
  4  5  1  0
  5  6  2  0
  6  7  1  0
  7  8  1  0
  8  9  1  0
  9 10  1  0
 10 11  1  0
 11 12  1  0
 12 13  1  0
 13 14  1  0
 14 15  2  0
 15 16  1  0
 16 17  2  0
 17 18  1  0
 18 19  2  0
 19 20  1  0
 20 21  2  0
 21 22  1  0
 22 23  1  0
 23 24  1  0
 24 25  2  0
 25 26  1  0
 26 27  2  0
 27 28  1  0
 27 29  1  0
 29 30  2  0
 12 31  1  0
 31 32  1  0
  6 33  1  0
 33 34  2  0
 34  3  1  0
 32  9  1  0
 22 14  1  0
 30 24  1  0
 21 16  1  0
  1 35  1  0
  1 36  1  0
  1 37  1  0
  4 38  1  0
  5 39  1  0
  7 40  1  0
  7 41  1  0
  8 42  1  0
  8 43  1  0
 10 44  1  0
 10 45  1  0
 11 46  1  0
 11 47  1  0
 12 48  1  0
 13 49  1  0
 17 50  1  0
 18 51  1  0
 19 52  1  0
 20 53  1  0
 23 54  1  0
 23 55  1  0
 25 56  1  0
 26 57  1  0
 29 58  1  0
 30 59  1  0
 31 60  1  0
 31 61  1  0
 32 62  1  0
 32 63  1  0
 33 64  1  0
 34 65  1  0
M  END
$$$$
