
     RDKit          3D

 38 39  0  0  0  0  0  0  0  0999 V2000
   -0.3137    2.7849   -1.3108 C   0  0  0  0  0  0  0  0  0  0  0  0
   -0.5998    1.5348   -0.5940 C   0  0  0  0  0  0  0  0  0  0  0  0
   -0.7717    0.3885    0.0513 C   0  0  0  0  0  0  0  0  0  0  0  0
    0.4540   -0.3992    0.3188 C   0  0  0  0  0  0  0  0  0  0  0  0
    0.7208   -1.5388    0.9189 C   0  0  0  0  0  0  0  0  0  0  0  0
    1.7499   -2.5158    1.3186 C   0  0  0  0  0  0  0  0  0  0  0  0
    1.7717    0.0560   -0.0591 C   0  0  0  0  0  0  0  0  0  0  0  0
    2.9759   -0.0492    0.5857 C   0  0  0  0  0  0  0  0  0  0  0  0
    4.2241    0.2706    0.1160 C   0  0  0  0  0  0  0  0  0  0  0  0
    4.3374    0.7665   -1.1614 C   0  0  0  0  0  0  0  0  0  0  0  0
    5.6033    1.0752   -1.5943 O   0  0  0  0  0  0  0  0  0  0  0  0
    3.1856    0.9144   -1.9019 C   0  0  0  0  0  0  0  0  0  0  0  0
    1.9772    0.5629   -1.3405 C   0  0  0  0  0  0  0  0  0  0  0  0
   -2.1081   -0.0833    0.3871 C   0  0  0  0  0  0  0  0  0  0  0  0
   -3.1505    0.3778   -0.4376 C   0  0  0  0  0  0  0  0  0  0  0  0
   -4.4835    0.1044   -0.2216 C   0  0  0  0  0  0  0  0  0  0  0  0
   -4.8278   -0.6770    0.8790 C   0  0  0  0  0  0  0  0  0  0  0  0
   -6.1498   -1.0191    1.1950 O   0  0  0  0  0  0  0  0  0  0  0  0
   -3.8717   -1.1695    1.7387 C   0  0  0  0  0  0  0  0  0  0  0  0
   -2.5820   -0.8280    1.4193 C   0  0  0  0  0  0  0  0  0  0  0  0
   -0.5069    2.6441   -2.4092 H   0  0  0  0  0  0  0  0  0  0  0  0
    0.7845    3.0721   -1.2128 H   0  0  0  0  0  0  0  0  0  0  0  0
   -0.8569    3.6802   -0.9980 H   0  0  0  0  0  0  0  0  0  0  0  0
   -1.6501    1.8690   -0.5845 H   0  0  0  0  0  0  0  0  0  0  0  0
   -0.1289   -2.0638    1.3008 H   0  0  0  0  0  0  0  0  0  0  0  0
    1.4145   -3.5824    1.1739 H   0  0  0  0  0  0  0  0  0  0  0  0
    1.9615   -2.4002    2.3972 H   0  0  0  0  0  0  0  0  0  0  0  0
    2.6792   -2.4660    0.6910 H   0  0  0  0  0  0  0  0  0  0  0  0
    2.9304   -0.4034    1.6259 H   0  0  0  0  0  0  0  0  0  0  0  0
    5.0902    0.1303    0.7476 H   0  0  0  0  0  0  0  0  0  0  0  0
    6.3704    0.4229   -1.6580 H   0  0  0  0  0  0  0  0  0  0  0  0
    3.3589    1.3090   -2.8915 H   0  0  0  0  0  0  0  0  0  0  0  0
    1.2070    0.7096   -2.0840 H   0  0  0  0  0  0  0  0  0  0  0  0
   -3.1109    0.9785   -1.3537 H   0  0  0  0  0  0  0  0  0  0  0  0
   -5.3445    0.4018   -0.7789 H   0  0  0  0  0  0  0  0  0  0  0  0
   -6.4869   -1.9459    1.0241 H   0  0  0  0  0  0  0  0  0  0  0  0
   -4.0466   -1.7803    2.6122 H   0  0  0  0  0  0  0  0  0  0  0  0
   -1.8062   -1.1315    2.0904 H   0  0  0  0  0  0  0  0  0  0  0  0
  1  2  1  0
  2  3  2  3
  3  4  1  0
  4  5  2  3
  5  6  1  0
  4  7  1  0
  7  8  2  0
  8  9  1  0
  9 10  2  0
 10 11  1  0
 10 12  1  0
 12 13  2  0
  3 14  1  0
 14 15  2  0
 15 16  1  0
 16 17  2  0
 17 18  1  0
 17 19  1  0
 19 20  2  0
 13  7  1  0
 20 14  1  0
  1 21  1  0
  1 22  1  0
  1 23  1  0
  2 24  1  0
  5 25  1  0
  6 26  1  0
  6 27  1  0
  6 28  1  0
  8 29  1  0
  9 30  1  0
 11 31  1  0
 12 32  1  0
 13 33  1  0
 15 34  1  0
 16 35  1  0
 18 36  1  0
 19 37  1  0
 20 38  1  0
M  END
$$$$
