@<TRIPOS>MOLECULE
*****
 38 39 0 0 0
SMALL
GASTEIGER

@<TRIPOS>ATOM
      1 C          -0.3137    2.7849   -1.3108 C.3     1  UNL1       -0.0459
      2 C          -0.5998    1.5348   -0.5940 C.2     1  UNL1       -0.0788
      3 C          -0.7717    0.3885    0.0513 C.2     1  UNL1       -0.0147
      4 C           0.4540   -0.3992    0.3188 C.2     1  UNL1       -0.0147
      5 C           0.7208   -1.5388    0.9189 C.2     1  UNL1       -0.0788
      6 C           1.7499   -2.5158    1.3186 C.3     1  UNL1       -0.0459
      7 C           1.7717    0.0560   -0.0591 C.ar    1  UNL1       -0.0174
      8 C           2.9759   -0.0492    0.5857 C.ar    1  UNL1       -0.0506
      9 C           4.2241    0.2706    0.1160 C.ar    1  UNL1       -0.0196
     10 C           4.3374    0.7665   -1.1614 C.ar    1  UNL1        0.1169
     11 O           5.6033    1.0752   -1.5943 O.3     1  UNL1       -0.5068
     12 C           3.1856    0.9144   -1.9019 C.ar    1  UNL1       -0.0196
     13 C           1.9772    0.5629   -1.3405 C.ar    1  UNL1       -0.0506
     14 C          -2.1081   -0.0833    0.3871 C.ar    1  UNL1       -0.0174
     15 C          -3.1505    0.3778   -0.4376 C.ar    1  UNL1       -0.0506
     16 C          -4.4835    0.1044   -0.2216 C.ar    1  UNL1       -0.0196
     17 C          -4.8278   -0.6770    0.8790 C.ar    1  UNL1        0.1169
     18 O          -6.1498   -1.0191    1.1950 O.3     1  UNL1       -0.5068
     19 C          -3.8717   -1.1695    1.7387 C.ar    1  UNL1       -0.0196
     20 C          -2.5820   -0.8280    1.4193 C.ar    1  UNL1       -0.0506
     21 H          -0.5069    2.6441   -2.4092 H       1  UNL1        0.0272
     22 H           0.7845    3.0721   -1.2128 H       1  UNL1        0.0272
     23 H          -0.8569    3.6802   -0.9980 H       1  UNL1        0.0272
     24 H          -1.6501    1.8690   -0.5845 H       1  UNL1        0.0575
     25 H          -0.1289   -2.0638    1.3008 H       1  UNL1        0.0575
     26 H           1.4145   -3.5824    1.1739 H       1  UNL1        0.0272
     27 H           1.9615   -2.4002    2.3972 H       1  UNL1        0.0272
     28 H           2.6792   -2.4660    0.6910 H       1  UNL1        0.0272
     29 H           2.9304   -0.4034    1.6259 H       1  UNL1        0.0625
     30 H           5.0902    0.1303    0.7476 H       1  UNL1        0.0654
     31 H           6.3704    0.4229   -1.6580 H       1  UNL1        0.2921
     32 H           3.3589    1.3090   -2.8915 H       1  UNL1        0.0654
     33 H           1.2070    0.7096   -2.0840 H       1  UNL1        0.0625
     34 H          -3.1109    0.9785   -1.3537 H       1  UNL1        0.0625
     35 H          -5.3445    0.4018   -0.7789 H       1  UNL1        0.0654
     36 H          -6.4869   -1.9459    1.0241 H       1  UNL1        0.2921
     37 H          -4.0466   -1.7803    2.6122 H       1  UNL1        0.0654
     38 H          -1.8062   -1.1315    2.0904 H       1  UNL1        0.0625
@<TRIPOS>BOND
     1     1     2    1
     2     2     3    2
     3     3     4    1
     4     4     5    2
     5     5     6    1
     6     4     7    1
     7     7     8   ar
     8     8     9   ar
     9     9    10   ar
    10    10    11    1
    11    10    12   ar
    12    12    13   ar
    13     3    14    1
    14    14    15   ar
    15    15    16   ar
    16    16    17   ar
    17    17    18    1
    18    17    19   ar
    19    19    20   ar
    20    13     7   ar
    21    20    14   ar
    22     1    21    1
    23     1    22    1
    24     1    23    1
    25     2    24    1
    26     5    25    1
    27     6    26    1
    28     6    27    1
    29     6    28    1
    30     8    29    1
    31     9    30    1
    32    11    31    1
    33    12    32    1
    34    13    33    1
    35    15    34    1
    36    16    35    1
    37    18    36    1
    38    19    37    1
    39    20    38    1
