
     RDKit          3D

 80 83  0  0  0  0  0  0  0  0999 V2000
  -10.3117    0.9646    0.9475 C   0  0  0  0  0  0  0  0  0  0  0  0
   -8.9050    1.0332    1.1500 N   0  0  0  0  0  0  0  0  0  0  0  0
   -8.2648   -0.1502    1.5805 C   0  0  0  0  0  0  0  0  0  0  0  0
   -9.2665   -1.0326    2.3423 C   0  0  0  0  0  0  0  0  0  0  0  0
   -7.1146    0.0468    2.5284 C   0  0  0  0  0  0  0  0  0  0  0  0
   -7.7659   -1.0247    0.4398 C   0  0  0  0  0  0  0  0  0  0  0  0
   -6.7710   -0.1466   -0.3412 C   0  0  0  0  0  0  0  0  0  0  0  0
   -6.0605   -0.8675   -1.2711 O   0  0  0  0  0  0  0  0  0  0  0  0
   -4.7178   -1.0217   -1.3371 C   0  0  0  0  0  0  0  0  0  0  0  0
   -4.1917   -1.7945   -2.3602 C   0  0  0  0  0  0  0  0  0  0  0  0
   -2.8150   -1.9693   -2.4515 C   0  0  0  0  0  0  0  0  0  0  0  0
   -1.9645   -1.3835   -1.5369 C   0  0  0  0  0  0  0  0  0  0  0  0
   -0.5284   -1.5939   -1.6736 C   0  0  0  0  0  0  0  0  0  0  0  0
   -0.0664   -2.2986   -2.6076 O   0  0  0  0  0  0  0  0  0  0  0  0
    0.4247   -1.0294   -0.7810 N   0  0  0  0  0  0  0  0  0  0  0  0
    1.8179   -1.2615   -0.9545 C   0  0  0  0  0  0  0  0  0  0  0  0
    2.5869   -0.4159   -1.7315 C   0  0  0  0  0  0  0  0  0  0  0  0
    3.9386   -0.6145   -1.9203 C   0  0  0  0  0  0  0  0  0  0  0  0
    4.5843   -1.6913   -1.3247 C   0  0  0  0  0  0  0  0  0  0  0  0
    5.9818   -1.9048   -1.5167 N   0  0  0  0  0  0  0  0  0  0  0  0
    6.9900   -1.3695   -0.6938 C   0  0  0  0  0  0  0  0  0  0  0  0
    6.6494   -0.6518    0.2832 O   0  0  0  0  0  0  0  0  0  0  0  0
    8.3769   -1.5969   -0.9082 N   0  0  0  0  0  0  0  0  0  0  0  0
    9.4070   -1.0688   -0.0958 C   0  0  0  0  0  0  0  0  0  0  0  0
   10.1004    0.1174   -0.1940 C   0  0  0  0  0  0  0  0  0  0  0  0
   11.0173    0.1645    0.8534 C   0  0  0  0  0  0  0  0  0  0  0  0
   11.9941    1.2327    1.1816 C   0  0  0  0  0  0  0  0  0  0  0  0
   12.7868    0.8558    2.3956 C   0  0  0  0  0  0  0  0  0  0  0  0
   11.2810    2.5475    1.4863 C   0  0  0  0  0  0  0  0  0  0  0  0
   12.8732    1.4759   -0.0274 C   0  0  0  0  0  0  0  0  0  0  0  0
   10.8497   -0.9436    1.5130 O   0  0  0  0  0  0  0  0  0  0  0  0
    9.9163   -1.6840    0.9825 N   0  0  0  0  0  0  0  0  0  0  0  0
    3.8252   -2.5398   -0.5479 C   0  0  0  0  0  0  0  0  0  0  0  0
    2.4540   -2.3308   -0.3616 C   0  0  0  0  0  0  0  0  0  0  0  0
   -2.4926   -0.6496   -0.5684 N   0  0  0  0  0  0  0  0  0  0  0  0
   -3.8486   -0.4573   -0.4503 C   0  0  0  0  0  0  0  0  0  0  0  0
   -7.6411    0.9317   -0.9651 C   0  0  0  0  0  0  0  0  0  0  0  0
   -8.2630    1.7698    0.1112 C   0  0  0  0  0  0  0  0  0  0  0  0
   -9.2942    2.6603   -0.6069 C   0  0  0  0  0  0  0  0  0  0  0  0
   -7.2143    2.7556    0.6467 C   0  0  0  0  0  0  0  0  0  0  0  0
  -10.7755    1.8023    1.5485 H   0  0  0  0  0  0  0  0  0  0  0  0
  -10.6165    1.0478   -0.1376 H   0  0  0  0  0  0  0  0  0  0  0  0
  -10.8092    0.0535    1.3062 H   0  0  0  0  0  0  0  0  0  0  0  0
   -9.8760   -0.4595    3.0410 H   0  0  0  0  0  0  0  0  0  0  0  0
   -9.8275   -1.6933    1.6539 H   0  0  0  0  0  0  0  0  0  0  0  0
   -8.6670   -1.7472    2.9833 H   0  0  0  0  0  0  0  0  0  0  0  0
   -7.4333   -0.0876    3.6017 H   0  0  0  0  0  0  0  0  0  0  0  0
   -6.6088    1.0004    2.4630 H   0  0  0  0  0  0  0  0  0  0  0  0
   -6.3484   -0.7485    2.3728 H   0  0  0  0  0  0  0  0  0  0  0  0
   -8.6143   -1.3275   -0.1813 H   0  0  0  0  0  0  0  0  0  0  0  0
   -7.2413   -1.8875    0.9123 H   0  0  0  0  0  0  0  0  0  0  0  0
   -6.1412    0.3318    0.4033 H   0  0  0  0  0  0  0  0  0  0  0  0
   -4.8554   -2.2488   -3.0699 H   0  0  0  0  0  0  0  0  0  0  0  0
   -2.4522   -2.5784   -3.2639 H   0  0  0  0  0  0  0  0  0  0  0  0
    0.0387   -0.4451   -0.0058 H   0  0  0  0  0  0  0  0  0  0  0  0
    2.1013    0.4281   -2.2035 H   0  0  0  0  0  0  0  0  0  0  0  0
    4.5307    0.0569   -2.5325 H   0  0  0  0  0  0  0  0  0  0  0  0
    6.2876   -2.5031   -2.3280 H   0  0  0  0  0  0  0  0  0  0  0  0
    8.6373   -2.2032   -1.7358 H   0  0  0  0  0  0  0  0  0  0  0  0
    9.9552    0.8680   -0.9462 H   0  0  0  0  0  0  0  0  0  0  0  0
   12.1512    0.8719    3.2823 H   0  0  0  0  0  0  0  0  0  0  0  0
   13.6045    1.5933    2.5510 H   0  0  0  0  0  0  0  0  0  0  0  0
   13.1784   -0.1784    2.2801 H   0  0  0  0  0  0  0  0  0  0  0  0
   11.4865    2.8914    2.5214 H   0  0  0  0  0  0  0  0  0  0  0  0
   11.5960    3.3555    0.7951 H   0  0  0  0  0  0  0  0  0  0  0  0
   10.1638    2.4068    1.4408 H   0  0  0  0  0  0  0  0  0  0  0  0
   13.3619    0.5604   -0.3971 H   0  0  0  0  0  0  0  0  0  0  0  0
   13.6075    2.2686    0.1180 H   0  0  0  0  0  0  0  0  0  0  0  0
   12.1727    1.8329   -0.8373 H   0  0  0  0  0  0  0  0  0  0  0  0
    4.2902   -3.4028   -0.0577 H   0  0  0  0  0  0  0  0  0  0  0  0
    1.8513   -2.9968    0.2497 H   0  0  0  0  0  0  0  0  0  0  0  0
   -4.1793    0.1560    0.3716 H   0  0  0  0  0  0  0  0  0  0  0  0
   -7.0693    1.5994   -1.6336 H   0  0  0  0  0  0  0  0  0  0  0  0
   -8.4645    0.3934   -1.4915 H   0  0  0  0  0  0  0  0  0  0  0  0
   -8.7833    3.5962   -0.9851 H   0  0  0  0  0  0  0  0  0  0  0  0
  -10.0846    3.0041    0.0567 H   0  0  0  0  0  0  0  0  0  0  0  0
   -9.6549    2.1630   -1.5437 H   0  0  0  0  0  0  0  0  0  0  0  0
   -7.4650    3.0944    1.6701 H   0  0  0  0  0  0  0  0  0  0  0  0
   -7.2156    3.7043    0.0304 H   0  0  0  0  0  0  0  0  0  0  0  0
   -6.1897    2.3642    0.5394 H   0  0  0  0  0  0  0  0  0  0  0  0
  1  2  1  0
  2  3  1  0
  3  4  1  0
  3  5  1  0
  3  6  1  0
  6  7  1  0
  7  8  1  0
  8  9  1  0
  9 10  2  0
 10 11  1  0
 11 12  2  0
 12 13  1  0
 13 14  2  0
 13 15  1  0
 15 16  1  0
 16 17  2  0
 17 18  1  0
 18 19  2  0
 19 20  1  0
 20 21  1  0
 21 22  2  0
 21 23  1  0
 23 24  1  0
 24 25  1  0
 25 26  2  0
 26 27  1  0
 27 28  1  0
 27 29  1  0
 27 30  1  0
 26 31  1  0
 31 32  1  0
 19 33  1  0
 33 34  2  0
 12 35  1  0
 35 36  2  0
  7 37  1  0
 37 38  1  0
 38 39  1  0
 38 40  1  0
 38  2  1  0
 36  9  1  0
 34 16  1  0
 32 24  2  0
  1 41  1  0
  1 42  1  0
  1 43  1  0
  4 44  1  0
  4 45  1  0
  4 46  1  0
  5 47  1  0
  5 48  1  0
  5 49  1  0
  6 50  1  0
  6 51  1  0
  7 52  1  0
 10 53  1  0
 11 54  1  0
 15 55  1  0
 17 56  1  0
 18 57  1  0
 20 58  1  0
 23 59  1  0
 25 60  1  0
 28 61  1  0
 28 62  1  0
 28 63  1  0
 29 64  1  0
 29 65  1  0
 29 66  1  0
 30 67  1  0
 30 68  1  0
 30 69  1  0
 33 70  1  0
 34 71  1  0
 36 72  1  0
 37 73  1  0
 37 74  1  0
 39 75  1  0
 39 76  1  0
 39 77  1  0
 40 78  1  0
 40 79  1  0
 40 80  1  0
M  END
$$$$
