@<TRIPOS>MOLECULE
*****
 80 83 0 0 0
SMALL
GASTEIGER

@<TRIPOS>ATOM
      1 C         -10.3117    0.9646    0.9475 C.3     1  UNL1       -0.0117
      2 N          -8.9050    1.0332    1.1500 N.3     1  UNL1       -0.2949
      3 C          -8.2648   -0.1502    1.5805 C.3     1  UNL1        0.0199
      4 C          -9.2665   -1.0326    2.3423 C.3     1  UNL1       -0.0467
      5 C          -7.1146    0.0468    2.5284 C.3     1  UNL1       -0.0467
      6 C          -7.7659   -1.0247    0.4398 C.3     1  UNL1        0.0023
      7 C          -6.7710   -0.1466   -0.3412 C.3     1  UNL1        0.1036
      8 O          -6.0605   -0.8675   -1.2711 O.3     1  UNL1       -0.4872
      9 C          -4.7178   -1.0217   -1.3371 C.ar    1  UNL1        0.1390
     10 C          -4.1917   -1.7945   -2.3602 C.ar    1  UNL1       -0.0162
     11 C          -2.8150   -1.9693   -2.4515 C.ar    1  UNL1       -0.0277
     12 C          -1.9645   -1.3835   -1.5369 C.ar    1  UNL1        0.1259
     13 C          -0.5284   -1.5939   -1.6736 C.2     1  UNL1        0.2666
     14 O          -0.0664   -2.2986   -2.6076 O.2     1  UNL1       -0.2682
     15 N           0.4247   -1.0294   -0.7810 N.am    1  UNL1       -0.2802
     16 C           1.8179   -1.2615   -0.9545 C.ar    1  UNL1        0.0338
     17 C           2.5869   -0.4159   -1.7315 C.ar    1  UNL1       -0.0387
     18 C           3.9386   -0.6145   -1.9203 C.ar    1  UNL1       -0.0387
     19 C           4.5843   -1.6913   -1.3247 C.ar    1  UNL1        0.0349
     20 N           5.9818   -1.9048   -1.5167 N.am    1  UNL1       -0.2692
     21 C           6.9900   -1.3695   -0.6938 C.2     1  UNL1        0.3093
     22 O           6.6494   -0.6518    0.2832 O.2     1  UNL1       -0.2521
     23 N           8.3769   -1.5969   -0.9082 N.am    1  UNL1       -0.2512
     24 C           9.4070   -1.0688   -0.0958 C.ar    1  UNL1        0.1691
     25 C          10.1004    0.1174   -0.1940 C.ar    1  UNL1        0.0230
     26 C          11.0173    0.1645    0.8534 C.ar    1  UNL1        0.1445
     27 C          11.9941    1.2327    1.1816 C.3     1  UNL1        0.0230
     28 C          12.7868    0.8558    2.3956 C.3     1  UNL1       -0.0531
     29 C          11.2810    2.5475    1.4863 C.3     1  UNL1       -0.0531
     30 C          12.8732    1.4759   -0.0274 C.3     1  UNL1       -0.0531
     31 O          10.8497   -0.9436    1.5130 O.2     1  UNL1       -0.3573
     32 N           9.9163   -1.6840    0.9825 N.ar    1  UNL1       -0.0627
     33 C           3.8252   -2.5398   -0.5479 C.ar    1  UNL1       -0.0387
     34 C           2.4540   -2.3308   -0.3616 C.ar    1  UNL1       -0.0387
     35 N          -2.4926   -0.6496   -0.5684 N.ar    1  UNL1       -0.2467
     36 C          -3.8486   -0.4573   -0.4503 C.ar    1  UNL1        0.0701
     37 C          -7.6411    0.9317   -0.9651 C.3     1  UNL1        0.0023
     38 C          -8.2630    1.7698    0.1112 C.3     1  UNL1        0.0199
     39 C          -9.2942    2.6603   -0.6069 C.3     1  UNL1       -0.0467
     40 C          -7.2143    2.7556    0.6467 C.3     1  UNL1       -0.0467
     41 H         -10.7755    1.8023    1.5485 H       1  UNL1        0.0391
     42 H         -10.6165    1.0478   -0.1376 H       1  UNL1        0.0391
     43 H         -10.8092    0.0535    1.3062 H       1  UNL1        0.0391
     44 H          -9.8760   -0.4595    3.0410 H       1  UNL1        0.0247
     45 H          -9.8275   -1.6933    1.6539 H       1  UNL1        0.0247
     46 H          -8.6670   -1.7472    2.9833 H       1  UNL1        0.0247
     47 H          -7.4333   -0.0876    3.6017 H       1  UNL1        0.0247
     48 H          -6.6088    1.0004    2.4630 H       1  UNL1        0.0247
     49 H          -6.3484   -0.7485    2.3728 H       1  UNL1        0.0247
     50 H          -8.6143   -1.3275   -0.1813 H       1  UNL1        0.0319
     51 H          -7.2413   -1.8875    0.9123 H       1  UNL1        0.0319
     52 H          -6.1412    0.3318    0.4033 H       1  UNL1        0.0734
     53 H          -4.8554   -2.2488   -3.0699 H       1  UNL1        0.0655
     54 H          -2.4522   -2.5784   -3.2639 H       1  UNL1        0.0641
     55 H           0.0387   -0.4451   -0.0058 H       1  UNL1        0.1552
     56 H           2.1013    0.4281   -2.2035 H       1  UNL1        0.0637
     57 H           4.5307    0.0569   -2.5325 H       1  UNL1        0.0637
     58 H           6.2876   -2.5031   -2.3280 H       1  UNL1        0.1564
     59 H           8.6373   -2.2032   -1.7358 H       1  UNL1        0.1579
     60 H           9.9552    0.8680   -0.9462 H       1  UNL1        0.0688
     61 H          12.1512    0.8719    3.2823 H       1  UNL1        0.0239
     62 H          13.6045    1.5933    2.5510 H       1  UNL1        0.0239
     63 H          13.1784   -0.1784    2.2801 H       1  UNL1        0.0239
     64 H          11.4865    2.8914    2.5214 H       1  UNL1        0.0239
     65 H          11.5960    3.3555    0.7951 H       1  UNL1        0.0239
     66 H          10.1638    2.4068    1.4408 H       1  UNL1        0.0239
     67 H          13.3619    0.5604   -0.3971 H       1  UNL1        0.0239
     68 H          13.6075    2.2686    0.1180 H       1  UNL1        0.0239
     69 H          12.1727    1.8329   -0.8373 H       1  UNL1        0.0239
     70 H           4.2902   -3.4028   -0.0577 H       1  UNL1        0.0637
     71 H           1.8513   -2.9968    0.2497 H       1  UNL1        0.0637
     72 H          -4.1793    0.1560    0.3716 H       1  UNL1        0.0867
     73 H          -7.0693    1.5994   -1.6336 H       1  UNL1        0.0319
     74 H          -8.4645    0.3934   -1.4915 H       1  UNL1        0.0319
     75 H          -8.7833    3.5962   -0.9851 H       1  UNL1        0.0247
     76 H         -10.0846    3.0041    0.0567 H       1  UNL1        0.0247
     77 H          -9.6549    2.1630   -1.5437 H       1  UNL1        0.0247
     78 H          -7.4650    3.0944    1.6701 H       1  UNL1        0.0247
     79 H          -7.2156    3.7043    0.0304 H       1  UNL1        0.0247
     80 H          -6.1897    2.3642    0.5394 H       1  UNL1        0.0247
@<TRIPOS>BOND
     1     1     2    1
     2     2     3    1
     3     3     4    1
     4     3     5    1
     5     3     6    1
     6     6     7    1
     7     7     8    1
     8     8     9    1
     9     9    10   ar
    10    10    11   ar
    11    11    12   ar
    12    12    13    1
    13    13    14    2
    14    13    15   am
    15    15    16    1
    16    16    17   ar
    17    17    18   ar
    18    18    19   ar
    19    19    20    1
    20    20    21   am
    21    21    22    2
    22    21    23   am
    23    23    24    1
    24    24    25   ar
    25    25    26   ar
    26    26    27    1
    27    27    28    1
    28    27    29    1
    29    27    30    1
    30    26    31   ar
    31    31    32   ar
    32    19    33   ar
    33    33    34   ar
    34    12    35   ar
    35    35    36   ar
    36     7    37    1
    37    37    38    1
    38    38    39    1
    39    38    40    1
    40    38     2    1
    41    36     9   ar
    42    34    16   ar
    43    32    24   ar
    44     1    41    1
    45     1    42    1
    46     1    43    1
    47     4    44    1
    48     4    45    1
    49     4    46    1
    50     5    47    1
    51     5    48    1
    52     5    49    1
    53     6    50    1
    54     6    51    1
    55     7    52    1
    56    10    53    1
    57    11    54    1
    58    15    55    1
    59    17    56    1
    60    18    57    1
    61    20    58    1
    62    23    59    1
    63    25    60    1
    64    28    61    1
    65    28    62    1
    66    28    63    1
    67    29    64    1
    68    29    65    1
    69    29    66    1
    70    30    67    1
    71    30    68    1
    72    30    69    1
    73    33    70    1
    74    34    71    1
    75    36    72    1
    76    37    73    1
    77    37    74    1
    78    39    75    1
    79    39    76    1
    80    39    77    1
    81    40    78    1
    82    40    79    1
    83    40    80    1
