@<TRIPOS>MOLECULE
*****
 56 57 0 0 0
SMALL
GASTEIGER

@<TRIPOS>ATOM
      1 C          -2.8860   -0.7809    0.7922 C.3     1  UNL1        0.0927
      2 N          -2.0135   -0.5595   -0.3556 N.am    1  UNL1       -0.3036
      3 C          -1.4074    0.6942   -0.6474 C.2     1  UNL1        0.2335
      4 O          -1.6242    1.6878    0.1201 O.2     1  UNL1       -0.2738
      5 C          -0.5145    0.9097   -1.8281 C.3     1  UNL1        0.1029
      6 N           0.8680    0.7043   -1.5123 N.ar    1  UNL1       -0.2977
      7 C           1.3864   -0.5270   -1.6511 C.ar    1  UNL1        0.2747
      8 O           0.6652   -1.4561   -2.0784 O.2     1  UNL1       -0.2656
      9 C           2.7103   -0.8489   -1.3435 C.ar    1  UNL1        0.1134
     10 N           3.1979   -2.1630   -1.5163 N.pl3   1  UNL1       -0.2014
     11 S           4.6983   -2.7388   -0.9319 S.O2    1  UNL1        0.1091
     12 O           4.8870   -4.1812   -1.3069 O.2     1  UNL1       -0.1381
     13 O           5.8431   -1.9349   -1.4959 O.2     1  UNL1       -0.1381
     14 N           4.7618   -2.6501    0.7879 N.3     1  UNL1       -0.1802
     15 C           3.7134   -3.4952    1.3376 C.3     1  UNL1        0.0071
     16 C           3.4747    0.1861   -0.8798 C.ar    1  UNL1       -0.0320
     17 C           2.9300    1.4560   -0.7400 C.ar    1  UNL1       -0.0355
     18 C           1.5936    1.7343   -1.0619 C.ar    1  UNL1        0.0527
     19 C           1.2517    3.1157   -0.8223 C.ar    1  UNL1       -0.0014
     20 C           0.6750    4.0617   -1.6082 C.ar    1  UNL1       -0.0526
     21 C           0.3942    5.3423   -1.1898 C.ar    1  UNL1       -0.0611
     22 C           0.6948    5.7456    0.0909 C.ar    1  UNL1       -0.0617
     23 C           1.2807    4.8457    0.9458 C.ar    1  UNL1       -0.0611
     24 C           1.5385    3.5768    0.4731 C.ar    1  UNL1       -0.0526
     25 C          -4.2537   -1.2441    0.3630 C.3     1  UNL1       -0.0210
     26 C          -5.1939   -1.4871    1.5255 C.3     1  UNL1       -0.0606
     27 C          -4.9349   -0.2679   -0.5524 C.3     1  UNL1       -0.0606
     28 C          -2.2838   -1.7310    1.7556 C.2     1  UNL1        0.2556
     29 O          -1.4530   -1.6420    0.8463 O.2     1  UNL1       -0.2859
     30 C          -1.9436   -2.6222    2.8664 C.3     1  UNL1        0.4525
     31 F          -1.8726   -1.9780    4.0851 F       1  UNL1       -0.1633
     32 F          -0.7399   -3.2606    2.6704 F       1  UNL1       -0.1633
     33 F          -2.9016   -3.6263    3.0472 F       1  UNL1       -0.1633
     34 H          -3.0219    0.1737    1.3497 H       1  UNL1        0.0583
     35 H          -1.8382   -1.3845   -0.9938 H       1  UNL1        0.1495
     36 H          -0.7496    1.9117   -2.1931 H       1  UNL1        0.0589
     37 H          -0.7746    0.1876   -2.6490 H       1  UNL1        0.0589
     38 H           2.5759   -2.8350   -2.0523 H       1  UNL1        0.1749
     39 H           4.5882   -1.6714    1.0648 H       1  UNL1        0.1490
     40 H           3.3271   -4.1795    0.5582 H       1  UNL1        0.0406
     41 H           4.0420   -4.0077    2.2492 H       1  UNL1        0.0406
     42 H           2.8511   -2.8414    1.6142 H       1  UNL1        0.0406
     43 H           4.5080   -0.0090   -0.6306 H       1  UNL1        0.0639
     44 H           3.6368    2.1985   -0.3622 H       1  UNL1        0.0639
     45 H           0.4458    3.7998   -2.6083 H       1  UNL1        0.0624
     46 H          -0.0668    6.0292   -1.8839 H       1  UNL1        0.0618
     47 H           0.4593    6.7542    0.3781 H       1  UNL1        0.0618
     48 H           1.5264    5.1391    1.9551 H       1  UNL1        0.0618
     49 H           2.0068    2.9166    1.2141 H       1  UNL1        0.0624
     50 H          -4.1050   -2.1919   -0.2140 H       1  UNL1        0.0318
     51 H          -6.2633   -1.3232    1.2125 H       1  UNL1        0.0233
     52 H          -5.1767   -2.5732    1.8128 H       1  UNL1        0.0233
     53 H          -5.0383   -0.8093    2.3737 H       1  UNL1        0.0233
     54 H          -4.2620    0.2069   -1.2860 H       1  UNL1        0.0233
     55 H          -5.5200    0.4795    0.0403 H       1  UNL1        0.0233
     56 H          -5.6930   -0.8364   -1.1346 H       1  UNL1        0.0233
@<TRIPOS>BOND
     1     1     2    1
     2     2     3   am
     3     3     4    2
     4     3     5    1
     5     5     6    1
     6     6     7   ar
     7     7     8    2
     8     7     9   ar
     9     9    10    1
    10    10    11    1
    11    11    12    2
    12    11    13    2
    13    11    14    1
    14    14    15    1
    15     9    16   ar
    16    16    17   ar
    17    17    18   ar
    18    18    19    1
    19    19    20   ar
    20    20    21   ar
    21    21    22   ar
    22    22    23   ar
    23    23    24   ar
    24     1    25    1
    25    25    26    1
    26    25    27    1
    27     1    28    1
    28    28    29    2
    29    28    30    1
    30    30    31    1
    31    30    32    1
    32    30    33    1
    33    18     6   ar
    34    24    19   ar
    35     1    34    1
    36     2    35    1
    37     5    36    1
    38     5    37    1
    39    10    38    1
    40    14    39    1
    41    15    40    1
    42    15    41    1
    43    15    42    1
    44    16    43    1
    45    17    44    1
    46    20    45    1
    47    21    46    1
    48    22    47    1
    49    23    48    1
    50    24    49    1
    51    25    50    1
    52    26    51    1
    53    26    52    1
    54    26    53    1
    55    27    54    1
    56    27    55    1
    57    27    56    1
