
     RDKit          3D

 56 57  0  0  0  0  0  0  0  0999 V2000
   -2.8860   -0.7809    0.7922 C   0  0  1  0  0  0  0  0  0  0  0  0
   -2.0135   -0.5595   -0.3556 N   0  0  0  0  0  0  0  0  0  0  0  0
   -1.4074    0.6942   -0.6474 C   0  0  0  0  0  0  0  0  0  0  0  0
   -1.6242    1.6878    0.1201 O   0  0  0  0  0  0  0  0  0  0  0  0
   -0.5145    0.9097   -1.8281 C   0  0  0  0  0  0  0  0  0  0  0  0
    0.8680    0.7043   -1.5123 N   0  0  0  0  0  0  0  0  0  0  0  0
    1.3864   -0.5270   -1.6511 C   0  0  0  0  0  0  0  0  0  0  0  0
    0.6652   -1.4561   -2.0784 O   0  0  0  0  0  0  0  0  0  0  0  0
    2.7103   -0.8489   -1.3435 C   0  0  0  0  0  0  0  0  0  0  0  0
    3.1979   -2.1630   -1.5163 N   0  0  0  0  0  0  0  0  0  0  0  0
    4.6983   -2.7388   -0.9319 S   0  0  0  0  0  0  0  0  0  0  0  0
    4.8870   -4.1812   -1.3069 O   0  0  0  0  0  0  0  0  0  0  0  0
    5.8431   -1.9349   -1.4959 O   0  0  0  0  0  0  0  0  0  0  0  0
    4.7618   -2.6501    0.7879 N   0  0  0  0  0  0  0  0  0  0  0  0
    3.7134   -3.4952    1.3376 C   0  0  0  0  0  0  0  0  0  0  0  0
    3.4747    0.1861   -0.8798 C   0  0  0  0  0  0  0  0  0  0  0  0
    2.9300    1.4560   -0.7400 C   0  0  0  0  0  0  0  0  0  0  0  0
    1.5936    1.7343   -1.0619 C   0  0  0  0  0  0  0  0  0  0  0  0
    1.2517    3.1157   -0.8223 C   0  0  0  0  0  0  0  0  0  0  0  0
    0.6750    4.0617   -1.6082 C   0  0  0  0  0  0  0  0  0  0  0  0
    0.3942    5.3423   -1.1898 C   0  0  0  0  0  0  0  0  0  0  0  0
    0.6948    5.7456    0.0909 C   0  0  0  0  0  0  0  0  0  0  0  0
    1.2807    4.8457    0.9458 C   0  0  0  0  0  0  0  0  0  0  0  0
    1.5385    3.5768    0.4731 C   0  0  0  0  0  0  0  0  0  0  0  0
   -4.2537   -1.2441    0.3630 C   0  0  0  0  0  0  0  0  0  0  0  0
   -5.1939   -1.4871    1.5255 C   0  0  0  0  0  0  0  0  0  0  0  0
   -4.9349   -0.2679   -0.5524 C   0  0  0  0  0  0  0  0  0  0  0  0
   -2.2838   -1.7310    1.7556 C   0  0  0  0  0  0  0  0  0  0  0  0
   -1.4530   -1.6420    0.8463 O   0  0  0  0  0  0  0  0  0  0  0  0
   -1.9436   -2.6222    2.8664 C   0  0  0  0  0  0  0  0  0  0  0  0
   -1.8726   -1.9780    4.0851 F   0  0  0  0  0  0  0  0  0  0  0  0
   -0.7399   -3.2606    2.6704 F   0  0  0  0  0  0  0  0  0  0  0  0
   -2.9016   -3.6263    3.0472 F   0  0  0  0  0  0  0  0  0  0  0  0
   -3.0219    0.1737    1.3497 H   0  0  0  0  0  0  0  0  0  0  0  0
   -1.8382   -1.3845   -0.9938 H   0  0  0  0  0  0  0  0  0  0  0  0
   -0.7496    1.9117   -2.1931 H   0  0  0  0  0  0  0  0  0  0  0  0
   -0.7746    0.1876   -2.6490 H   0  0  0  0  0  0  0  0  0  0  0  0
    2.5759   -2.8350   -2.0523 H   0  0  0  0  0  0  0  0  0  0  0  0
    4.5882   -1.6714    1.0648 H   0  0  0  0  0  0  0  0  0  0  0  0
    3.3271   -4.1795    0.5582 H   0  0  0  0  0  0  0  0  0  0  0  0
    4.0420   -4.0077    2.2492 H   0  0  0  0  0  0  0  0  0  0  0  0
    2.8511   -2.8414    1.6142 H   0  0  0  0  0  0  0  0  0  0  0  0
    4.5080   -0.0090   -0.6306 H   0  0  0  0  0  0  0  0  0  0  0  0
    3.6368    2.1985   -0.3622 H   0  0  0  0  0  0  0  0  0  0  0  0
    0.4458    3.7998   -2.6083 H   0  0  0  0  0  0  0  0  0  0  0  0
   -0.0668    6.0292   -1.8839 H   0  0  0  0  0  0  0  0  0  0  0  0
    0.4593    6.7542    0.3781 H   0  0  0  0  0  0  0  0  0  0  0  0
    1.5264    5.1391    1.9551 H   0  0  0  0  0  0  0  0  0  0  0  0
    2.0068    2.9166    1.2141 H   0  0  0  0  0  0  0  0  0  0  0  0
   -4.1050   -2.1919   -0.2140 H   0  0  0  0  0  0  0  0  0  0  0  0
   -6.2633   -1.3232    1.2125 H   0  0  0  0  0  0  0  0  0  0  0  0
   -5.1767   -2.5732    1.8128 H   0  0  0  0  0  0  0  0  0  0  0  0
   -5.0383   -0.8093    2.3737 H   0  0  0  0  0  0  0  0  0  0  0  0
   -4.2620    0.2069   -1.2860 H   0  0  0  0  0  0  0  0  0  0  0  0
   -5.5200    0.4795    0.0403 H   0  0  0  0  0  0  0  0  0  0  0  0
   -5.6930   -0.8364   -1.1346 H   0  0  0  0  0  0  0  0  0  0  0  0
  1  2  1  0
  2  3  1  0
  3  4  2  0
  3  5  1  0
  5  6  1  0
  6  7  1  0
  7  8  2  0
  7  9  1  0
  9 10  1  0
 10 11  1  0
 11 12  2  0
 11 13  2  0
 11 14  1  0
 14 15  1  0
  9 16  2  0
 16 17  1  0
 17 18  2  0
 18 19  1  0
 19 20  2  0
 20 21  1  0
 21 22  2  0
 22 23  1  0
 23 24  2  0
  1 25  1  0
 25 26  1  0
 25 27  1  0
  1 28  1  0
 28 29  2  0
 28 30  1  0
 30 31  1  0
 30 32  1  0
 30 33  1  0
 18  6  1  0
 24 19  1  0
  1 34  1  1
  2 35  1  0
  5 36  1  0
  5 37  1  0
 10 38  1  0
 14 39  1  0
 15 40  1  0
 15 41  1  0
 15 42  1  0
 16 43  1  0
 17 44  1  0
 20 45  1  0
 21 46  1  0
 22 47  1  0
 23 48  1  0
 24 49  1  0
 25 50  1  0
 26 51  1  0
 26 52  1  0
 26 53  1  0
 27 54  1  0
 27 55  1  0
 27 56  1  0
M  END
$$$$
