@<TRIPOS>MOLECULE
*****
 52 53 0 0 0
SMALL
GASTEIGER

@<TRIPOS>ATOM
      1 C           2.8279    0.5977    2.7645 C.3     1  UNL1       -0.0492
      2 C           2.7526   -0.4344    1.6810 C.3     1  UNL1        0.0153
      3 N           2.1673    0.1616    0.4991 N.am    1  UNL1       -0.2634
      4 C           0.7362    0.1269    0.3045 C.3     1  UNL1        0.0434
      5 C           0.3097   -1.0883   -0.4354 C.ar    1  UNL1       -0.0217
      6 C           1.2182   -2.0377   -0.8753 C.ar    1  UNL1       -0.0449
      7 C           0.8310   -3.1687   -1.5630 C.ar    1  UNL1        0.0552
      8 C           1.8367   -4.1724   -2.0230 C.3     1  UNL1        0.4174
      9 F           3.0687   -3.5513   -2.0065 F       1  UNL1       -0.1659
     10 F           1.5198   -4.6723   -3.2650 F       1  UNL1       -0.1659
     11 F           1.9120   -5.2422   -1.1508 F       1  UNL1       -0.1659
     12 C          -0.5190   -3.3179   -1.7983 C.ar    1  UNL1       -0.0495
     13 C          -1.4247   -2.3732   -1.3608 C.ar    1  UNL1       -0.0531
     14 C          -1.0417   -1.2405   -0.6726 C.ar    1  UNL1       -0.0097
     15 C          -1.9841   -0.2311   -0.2026 C.ar    1  UNL1        0.0244
     16 C          -2.3368    0.8539   -1.0029 C.ar    1  UNL1       -0.0468
     17 C          -3.2266    1.8124   -0.5667 C.ar    1  UNL1       -0.0360
     18 C          -3.5943    2.9639   -1.4312 C.3     1  UNL1        0.0699
     19 C          -2.6994    4.1241   -1.2420 C.2     1  UNL1        0.3091
     20 O          -1.7608    4.0482   -0.4183 O.2     1  UNL1       -0.2507
     21 O          -2.9422    5.2543   -1.9922 O.3     1  UNL1       -0.4804
     22 C          -3.7589    1.6594    0.6969 C.ar    1  UNL1       -0.0546
     23 C          -3.4080    0.5739    1.5014 C.ar    1  UNL1       -0.0191
     24 C          -2.5199   -0.3809    1.0634 C.ar    1  UNL1        0.1278
     25 O          -2.1535   -1.4799    1.8556 O.3     1  UNL1       -0.4945
     26 C          -2.6998   -1.6361    3.1508 C.3     1  UNL1        0.0788
     27 C           3.0539    0.7689   -0.4384 C.2     1  UNL1        0.4029
     28 O           2.5512    1.2834   -1.4580 O.2     1  UNL1       -0.2263
     29 O           4.4217    0.8021   -0.2525 O.3     1  UNL1       -0.4535
     30 C           5.3129    1.3965   -1.1660 C.3     1  UNL1        0.0833
     31 H           2.7800    1.6407    2.3933 H       1  UNL1        0.0245
     32 H           2.0304    0.4517    3.5290 H       1  UNL1        0.0245
     33 H           3.8263    0.5175    3.2844 H       1  UNL1        0.0245
     34 H           2.1304   -1.3184    1.9652 H       1  UNL1        0.0463
     35 H           3.7697   -0.8386    1.4605 H       1  UNL1        0.0463
     36 H           0.4670    1.0192   -0.2992 H       1  UNL1        0.0515
     37 H           0.1837    0.2360    1.2673 H       1  UNL1        0.0515
     38 H           2.2746   -1.8953   -0.6765 H       1  UNL1        0.0626
     39 H          -0.8568   -4.2011   -2.3391 H       1  UNL1        0.0623
     40 H          -2.4994   -2.5083   -1.5574 H       1  UNL1        0.0624
     41 H          -1.9102    0.9593   -1.9918 H       1  UNL1        0.0628
     42 H          -3.6109    2.7023   -2.5039 H       1  UNL1        0.0426
     43 H          -4.6212    3.2969   -1.1674 H       1  UNL1        0.0426
     44 H          -2.2072    5.9396   -2.1338 H       1  UNL1        0.2951
     45 H          -4.4637    2.4206    1.0396 H       1  UNL1        0.0622
     46 H          -3.8392    0.4770    2.4882 H       1  UNL1        0.0654
     47 H          -2.5771   -2.6840    3.5020 H       1  UNL1        0.0660
     48 H          -2.2197   -0.9742    3.8994 H       1  UNL1        0.0660
     49 H          -3.7896   -1.4385    3.1779 H       1  UNL1        0.0660
     50 H           6.0135    0.6678   -1.6178 H       1  UNL1        0.0661
     51 H           5.8843    2.1848   -0.5950 H       1  UNL1        0.0661
     52 H           4.7851    1.9444   -1.9734 H       1  UNL1        0.0661
@<TRIPOS>BOND
     1     1     2    1
     2     2     3    1
     3     3     4    1
     4     4     5    1
     5     5     6   ar
     6     6     7   ar
     7     7     8    1
     8     8     9    1
     9     8    10    1
    10     8    11    1
    11     7    12   ar
    12    12    13   ar
    13    13    14   ar
    14    14    15    1
    15    15    16   ar
    16    16    17   ar
    17    17    18    1
    18    18    19    1
    19    19    20    2
    20    19    21    1
    21    17    22   ar
    22    22    23   ar
    23    23    24   ar
    24    24    25    1
    25    25    26    1
    26     3    27   am
    27    27    28    2
    28    27    29    1
    29    29    30    1
    30    14     5   ar
    31    24    15   ar
    32     1    31    1
    33     1    32    1
    34     1    33    1
    35     2    34    1
    36     2    35    1
    37     4    36    1
    38     4    37    1
    39     6    38    1
    40    12    39    1
    41    13    40    1
    42    16    41    1
    43    18    42    1
    44    18    43    1
    45    21    44    1
    46    22    45    1
    47    23    46    1
    48    26    47    1
    49    26    48    1
    50    26    49    1
    51    30    50    1
    52    30    51    1
    53    30    52    1
