@<TRIPOS>MOLECULE
*****
 50 54 0 0 0
SMALL
GASTEIGER

@<TRIPOS>ATOM
      1 C          -2.3182    0.0918   -3.9009 C.3     1  UNL1        0.0788
      2 O          -2.1531   -0.0809   -2.5276 O.3     1  UNL1       -0.4947
      3 C          -2.9434    0.5379   -1.5699 C.ar    1  UNL1        0.1278
      4 C          -3.9681    1.3842   -1.9308 C.ar    1  UNL1       -0.0194
      5 C          -4.7682    2.0114   -0.9878 C.ar    1  UNL1       -0.0556
      6 C          -4.5184    1.7713    0.3346 C.ar    1  UNL1       -0.0259
      7 C          -3.5117    0.9390    0.7240 C.ar    1  UNL1        0.1318
      8 F          -3.3076    0.7452    2.0538 F       1  UNL1       -0.2050
      9 C          -2.7304    0.3266   -0.2091 C.ar    1  UNL1        0.0497
     10 C          -1.6236   -0.5774    0.1342 C.3     1  UNL1        0.0606
     11 C          -2.0049   -2.0349    0.0953 C.3     1  UNL1        0.0048
     12 C          -2.6340   -2.2299    1.4523 C.3     1  UNL1        0.1331
     13 O          -2.6509   -3.5829    1.7928 O.3     1  UNL1       -0.3825
     14 C          -1.7289   -1.4464    2.3181 C.2     1  UNL1        0.2450
     15 O          -1.5145   -1.6832    3.5263 O.2     1  UNL1       -0.2727
     16 N          -1.1758   -0.4099    1.5233 N.am    1  UNL1       -0.2876
     17 C          -0.3117    0.6655    1.9253 C.3     1  UNL1        0.0404
     18 C           1.1254    0.3274    1.8316 C.ar    1  UNL1       -0.0293
     19 C           1.8213   -0.2309    2.8724 C.ar    1  UNL1       -0.0536
     20 C           3.1584   -0.5336    2.7524 C.ar    1  UNL1       -0.0184
     21 C           3.8346   -0.2812    1.5761 C.ar    1  UNL1        0.1363
     22 O           5.0583   -0.4426    1.1483 O.2     1  UNL1       -0.4548
     23 C           5.2042   -0.0319   -0.0859 C.ar    1  UNL1        0.1362
     24 C           6.2766    0.0129   -0.9736 C.ar    1  UNL1       -0.0187
     25 C           6.1246    0.5140   -2.2442 C.ar    1  UNL1       -0.0582
     26 C           4.9171    0.9914   -2.6977 C.ar    1  UNL1       -0.0610
     27 C           3.8542    0.9512   -1.8296 C.ar    1  UNL1       -0.0504
     28 C           3.9975    0.4499   -0.5520 C.ar    1  UNL1        0.0279
     29 C           3.1277    0.2802    0.5348 C.ar    1  UNL1        0.0282
     30 C           1.8069    0.5753    0.6638 C.ar    1  UNL1       -0.0457
     31 H          -1.3737   -0.1002   -4.4642 H       1  UNL1        0.0660
     32 H          -2.5764    1.1664   -4.1124 H       1  UNL1        0.0660
     33 H          -3.1257   -0.5371   -4.3233 H       1  UNL1        0.0660
     34 H          -4.2023    1.6037   -2.9635 H       1  UNL1        0.0654
     35 H          -5.5775    2.6795   -1.2647 H       1  UNL1        0.0620
     36 H          -5.1270    2.2472    1.0926 H       1  UNL1        0.0646
     37 H          -0.7644   -0.3813   -0.5638 H       1  UNL1        0.0553
     38 H          -1.0661   -2.6351    0.0528 H       1  UNL1        0.0316
     39 H          -2.6902   -2.2739   -0.7397 H       1  UNL1        0.0316
     40 H          -3.6764   -1.8285    1.4234 H       1  UNL1        0.0691
     41 H          -3.5424   -3.9727    1.6184 H       1  UNL1        0.2104
     42 H          -0.4999    1.5544    1.2890 H       1  UNL1        0.0514
     43 H          -0.5406    1.0138    2.9752 H       1  UNL1        0.0514
     44 H           1.3091   -0.4441    3.8241 H       1  UNL1        0.0622
     45 H           3.7431   -0.9767    3.5552 H       1  UNL1        0.0654
     46 H           7.2248   -0.3601   -0.6225 H       1  UNL1        0.0654
     47 H           6.9935    0.5251   -2.8941 H       1  UNL1        0.0619
     48 H           4.8563    1.3735   -3.7059 H       1  UNL1        0.0618
     49 H           2.8896    1.3138   -2.1401 H       1  UNL1        0.0625
     50 H           1.3027    1.0230   -0.2090 H       1  UNL1        0.0628
@<TRIPOS>BOND
     1     1     2    1
     2     2     3    1
     3     3     4   ar
     4     4     5   ar
     5     5     6   ar
     6     6     7   ar
     7     7     8    1
     8     7     9   ar
     9     9    10    1
    10    10    11    1
    11    11    12    1
    12    12    13    1
    13    12    14    1
    14    14    15    2
    15    14    16   am
    16    16    17    1
    17    17    18    1
    18    18    19   ar
    19    19    20   ar
    20    20    21   ar
    21    21    22   ar
    22    22    23   ar
    23    23    24   ar
    24    24    25   ar
    25    25    26   ar
    26    26    27   ar
    27    27    28   ar
    28    28    29   ar
    29    29    30   ar
    30     9     3   ar
    31    16    10    1
    32    30    18   ar
    33    29    21   ar
    34    28    23   ar
    35     1    31    1
    36     1    32    1
    37     1    33    1
    38     4    34    1
    39     5    35    1
    40     6    36    1
    41    10    37    1
    42    11    38    1
    43    11    39    1
    44    12    40    1
    45    13    41    1
    46    17    42    1
    47    17    43    1
    48    19    44    1
    49    20    45    1
    50    24    46    1
    51    25    47    1
    52    26    48    1
    53    27    49    1
    54    30    50    1
