
     RDKit          3D

 50 54  0  0  0  0  0  0  0  0999 V2000
   -2.3182    0.0918   -3.9009 C   0  0  0  0  0  0  0  0  0  0  0  0
   -2.1531   -0.0809   -2.5276 O   0  0  0  0  0  0  0  0  0  0  0  0
   -2.9434    0.5379   -1.5699 C   0  0  0  0  0  0  0  0  0  0  0  0
   -3.9681    1.3842   -1.9308 C   0  0  0  0  0  0  0  0  0  0  0  0
   -4.7682    2.0114   -0.9878 C   0  0  0  0  0  0  0  0  0  0  0  0
   -4.5184    1.7713    0.3346 C   0  0  0  0  0  0  0  0  0  0  0  0
   -3.5117    0.9390    0.7240 C   0  0  0  0  0  0  0  0  0  0  0  0
   -3.3076    0.7452    2.0538 F   0  0  0  0  0  0  0  0  0  0  0  0
   -2.7304    0.3266   -0.2091 C   0  0  0  0  0  0  0  0  0  0  0  0
   -1.6236   -0.5774    0.1342 C   0  0  0  0  0  0  0  0  0  0  0  0
   -2.0049   -2.0349    0.0953 C   0  0  0  0  0  0  0  0  0  0  0  0
   -2.6340   -2.2299    1.4523 C   0  0  1  0  0  0  0  0  0  0  0  0
   -2.6509   -3.5829    1.7928 O   0  0  0  0  0  0  0  0  0  0  0  0
   -1.7289   -1.4464    2.3181 C   0  0  0  0  0  0  0  0  0  0  0  0
   -1.5145   -1.6832    3.5263 O   0  0  0  0  0  0  0  0  0  0  0  0
   -1.1758   -0.4099    1.5233 N   0  0  0  0  0  0  0  0  0  0  0  0
   -0.3117    0.6655    1.9253 C   0  0  0  0  0  0  0  0  0  0  0  0
    1.1254    0.3274    1.8316 C   0  0  0  0  0  0  0  0  0  0  0  0
    1.8213   -0.2309    2.8724 C   0  0  0  0  0  0  0  0  0  0  0  0
    3.1584   -0.5336    2.7524 C   0  0  0  0  0  0  0  0  0  0  0  0
    3.8346   -0.2812    1.5761 C   0  0  0  0  0  0  0  0  0  0  0  0
    5.0583   -0.4426    1.1483 O   0  0  0  0  0  0  0  0  0  0  0  0
    5.2042   -0.0319   -0.0859 C   0  0  0  0  0  0  0  0  0  0  0  0
    6.2766    0.0129   -0.9736 C   0  0  0  0  0  0  0  0  0  0  0  0
    6.1246    0.5140   -2.2442 C   0  0  0  0  0  0  0  0  0  0  0  0
    4.9171    0.9914   -2.6977 C   0  0  0  0  0  0  0  0  0  0  0  0
    3.8542    0.9512   -1.8296 C   0  0  0  0  0  0  0  0  0  0  0  0
    3.9975    0.4499   -0.5520 C   0  0  0  0  0  0  0  0  0  0  0  0
    3.1277    0.2802    0.5348 C   0  0  0  0  0  0  0  0  0  0  0  0
    1.8069    0.5753    0.6638 C   0  0  0  0  0  0  0  0  0  0  0  0
   -1.3737   -0.1002   -4.4642 H   0  0  0  0  0  0  0  0  0  0  0  0
   -2.5764    1.1664   -4.1124 H   0  0  0  0  0  0  0  0  0  0  0  0
   -3.1257   -0.5371   -4.3233 H   0  0  0  0  0  0  0  0  0  0  0  0
   -4.2023    1.6037   -2.9635 H   0  0  0  0  0  0  0  0  0  0  0  0
   -5.5775    2.6795   -1.2647 H   0  0  0  0  0  0  0  0  0  0  0  0
   -5.1270    2.2472    1.0926 H   0  0  0  0  0  0  0  0  0  0  0  0
   -0.7644   -0.3813   -0.5638 H   0  0  0  0  0  0  0  0  0  0  0  0
   -1.0661   -2.6351    0.0528 H   0  0  0  0  0  0  0  0  0  0  0  0
   -2.6902   -2.2739   -0.7397 H   0  0  0  0  0  0  0  0  0  0  0  0
   -3.6764   -1.8285    1.4234 H   0  0  0  0  0  0  0  0  0  0  0  0
   -3.5424   -3.9727    1.6184 H   0  0  0  0  0  0  0  0  0  0  0  0
   -0.4999    1.5544    1.2890 H   0  0  0  0  0  0  0  0  0  0  0  0
   -0.5406    1.0138    2.9752 H   0  0  0  0  0  0  0  0  0  0  0  0
    1.3091   -0.4441    3.8241 H   0  0  0  0  0  0  0  0  0  0  0  0
    3.7431   -0.9767    3.5552 H   0  0  0  0  0  0  0  0  0  0  0  0
    7.2248   -0.3601   -0.6225 H   0  0  0  0  0  0  0  0  0  0  0  0
    6.9935    0.5251   -2.8941 H   0  0  0  0  0  0  0  0  0  0  0  0
    4.8563    1.3735   -3.7059 H   0  0  0  0  0  0  0  0  0  0  0  0
    2.8896    1.3138   -2.1401 H   0  0  0  0  0  0  0  0  0  0  0  0
    1.3027    1.0230   -0.2090 H   0  0  0  0  0  0  0  0  0  0  0  0
  1  2  1  0
  2  3  1  0
  3  4  2  0
  4  5  1  0
  5  6  2  0
  6  7  1  0
  7  8  1  0
  7  9  2  0
  9 10  1  0
 10 11  1  0
 11 12  1  0
 12 13  1  0
 12 14  1  0
 14 15  2  0
 14 16  1  0
 16 17  1  0
 17 18  1  0
 18 19  2  0
 19 20  1  0
 20 21  2  0
 21 22  1  0
 22 23  1  0
 23 24  2  0
 24 25  1  0
 25 26  2  0
 26 27  1  0
 27 28  2  0
 28 29  1  0
 29 30  2  0
  9  3  1  0
 16 10  1  0
 30 18  1  0
 29 21  1  0
 28 23  1  0
  1 31  1  0
  1 32  1  0
  1 33  1  0
  4 34  1  0
  5 35  1  0
  6 36  1  0
 10 37  1  0
 11 38  1  0
 11 39  1  0
 12 40  1  6
 13 41  1  0
 17 42  1  0
 17 43  1  0
 19 44  1  0
 20 45  1  0
 24 46  1  0
 25 47  1  0
 26 48  1  0
 27 49  1  0
 30 50  1  0
M  END
$$$$
