
     RDKit          3D

 42 43  0  0  0  0  0  0  0  0999 V2000
   -3.8893    1.5741   -0.4999 C   0  0  0  0  0  0  0  0  0  0  0  0
   -2.7958    0.9697    0.3150 C   0  0  0  0  0  0  0  0  0  0  0  0
   -2.6060    1.5927    1.6619 C   0  0  0  0  0  0  0  0  0  0  0  0
   -3.0294   -0.5266    0.4753 C   0  0  2  0  0  0  0  0  0  0  0  0
   -3.0436   -1.1091   -0.8402 N   0  0  0  0  0  0  0  0  0  0  0  0
   -1.7780   -2.2432   -0.9932 S   0  0  0  0  0  6  0  0  0  0  0  0
   -1.9160   -3.3490    0.0363 O   0  0  0  0  0  0  0  0  0  0  0  0
   -1.8435   -2.8880   -2.3717 O   0  0  0  0  0  0  0  0  0  0  0  0
   -0.1953   -1.5503   -0.7998 C   0  0  0  0  0  0  0  0  0  0  0  0
    0.4468   -1.0007   -1.8867 C   0  0  0  0  0  0  0  0  0  0  0  0
    1.6930   -0.4706   -1.6804 C   0  0  0  0  0  0  0  0  0  0  0  0
    2.3325   -0.4588   -0.4520 C   0  0  0  0  0  0  0  0  0  0  0  0
    3.6621    0.1311   -0.3302 C   0  0  0  0  0  0  0  0  0  0  0  0
    4.5907    0.1128   -1.3494 C   0  0  0  0  0  0  0  0  0  0  0  0
    5.8463    0.6777   -1.2176 C   0  0  0  0  0  0  0  0  0  0  0  0
    6.2214    1.2909   -0.0401 C   0  0  0  0  0  0  0  0  0  0  0  0
    7.8153    2.0134    0.1416 Cl  0  0  0  0  0  0  0  0  0  0  0  0
    5.3045    1.3182    0.9898 C   0  0  0  0  0  0  0  0  0  0  0  0
    4.0410    0.7473    0.8509 C   0  0  0  0  0  0  0  0  0  0  0  0
    1.6707   -1.0148    0.6218 C   0  0  0  0  0  0  0  0  0  0  0  0
    0.3945   -1.5640    0.4382 C   0  0  0  0  0  0  0  0  0  0  0  0
   -4.3395   -0.7872    1.1168 C   0  0  0  0  0  0  0  0  0  0  0  0
   -5.2339   -1.4173    0.5163 O   0  0  0  0  0  0  0  0  0  0  0  0
   -4.6381   -0.3496    2.4044 O   0  0  0  0  0  0  0  0  0  0  0  0
   -4.8466    1.0075   -0.3838 H   0  0  0  0  0  0  0  0  0  0  0  0
   -4.0963    2.6177   -0.1624 H   0  0  0  0  0  0  0  0  0  0  0  0
   -3.5935    1.5741   -1.5652 H   0  0  0  0  0  0  0  0  0  0  0  0
   -1.8312    1.1178   -0.2421 H   0  0  0  0  0  0  0  0  0  0  0  0
   -1.9726    0.8905    2.2648 H   0  0  0  0  0  0  0  0  0  0  0  0
   -2.0982    2.5783    1.5931 H   0  0  0  0  0  0  0  0  0  0  0  0
   -3.5577    1.7084    2.1866 H   0  0  0  0  0  0  0  0  0  0  0  0
   -2.1980   -0.9569    1.0889 H   0  0  0  0  0  0  0  0  0  0  0  0
   -3.0681   -0.3952   -1.5703 H   0  0  0  0  0  0  0  0  0  0  0  0
   -0.0331   -0.9941   -2.8759 H   0  0  0  0  0  0  0  0  0  0  0  0
    2.2298   -0.0308   -2.5034 H   0  0  0  0  0  0  0  0  0  0  0  0
    4.2782   -0.3760   -2.2737 H   0  0  0  0  0  0  0  0  0  0  0  0
    6.5316    0.6314   -2.0544 H   0  0  0  0  0  0  0  0  0  0  0  0
    5.5937    1.7960    1.9100 H   0  0  0  0  0  0  0  0  0  0  0  0
    3.3302    0.7728    1.6608 H   0  0  0  0  0  0  0  0  0  0  0  0
    2.1460   -1.0193    1.5907 H   0  0  0  0  0  0  0  0  0  0  0  0
   -0.0609   -1.9813    1.3130 H   0  0  0  0  0  0  0  0  0  0  0  0
   -5.4634   -0.6397    2.9164 H   0  0  0  0  0  0  0  0  0  0  0  0
  1  2  1  0
  2  3  1  0
  2  4  1  0
  4  5  1  0
  5  6  1  0
  6  7  2  0
  6  8  2  0
  6  9  1  0
  9 10  2  0
 10 11  1  0
 11 12  2  0
 12 13  1  0
 13 14  2  0
 14 15  1  0
 15 16  2  0
 16 17  1  0
 16 18  1  0
 18 19  2  0
 12 20  1  0
 20 21  2  0
  4 22  1  0
 22 23  2  0
 22 24  1  0
 21  9  1  0
 19 13  1  0
  1 25  1  0
  1 26  1  0
  1 27  1  0
  2 28  1  0
  3 29  1  0
  3 30  1  0
  3 31  1  0
  4 32  1  1
  5 33  1  0
 10 34  1  0
 11 35  1  0
 14 36  1  0
 15 37  1  0
 18 38  1  0
 19 39  1  0
 20 40  1  0
 21 41  1  0
 24 42  1  0
M  END
$$$$
