@<TRIPOS>MOLECULE
*****
 42 43 0 0 0
SMALL
GASTEIGER

@<TRIPOS>ATOM
      1 C          -3.8893    1.5741   -0.4999 C.3     1  UNL1       -0.0607
      2 C          -2.7958    0.9697    0.3150 C.3     1  UNL1       -0.0194
      3 C          -2.6060    1.5927    1.6619 C.3     1  UNL1       -0.0607
      4 C          -3.0294   -0.5266    0.4753 C.3     1  UNL1        0.1276
      5 N          -3.0436   -1.1091   -0.8402 N.3     1  UNL1       -0.1759
      6 S          -1.7780   -2.2432   -0.9932 S.O2    1  UNL1        0.0591
      7 O          -1.9160   -3.3490    0.0363 O.2     1  UNL1       -0.1530
      8 O          -1.8435   -2.8880   -2.3717 O.2     1  UNL1       -0.1530
      9 C          -0.1953   -1.5503   -0.7998 C.ar    1  UNL1        0.1053
     10 C           0.4468   -1.0007   -1.8867 C.ar    1  UNL1       -0.0348
     11 C           1.6930   -0.4706   -1.6804 C.ar    1  UNL1       -0.0522
     12 C           2.3325   -0.4588   -0.4520 C.ar    1  UNL1       -0.0178
     13 C           3.6621    0.1311   -0.3302 C.ar    1  UNL1       -0.0178
     14 C           4.5907    0.1128   -1.3494 C.ar    1  UNL1       -0.0527
     15 C           5.8463    0.6777   -1.2176 C.ar    1  UNL1       -0.0428
     16 C           6.2214    1.2909   -0.0401 C.ar    1  UNL1        0.0410
     17 CL          7.8153    2.0134    0.1416 Cl      1  UNL1       -0.0835
     18 C           5.3045    1.3182    0.9898 C.ar    1  UNL1       -0.0428
     19 C           4.0410    0.7473    0.8509 C.ar    1  UNL1       -0.0527
     20 C           1.6707   -1.0148    0.6218 C.ar    1  UNL1       -0.0522
     21 C           0.3945   -1.5640    0.4382 C.ar    1  UNL1       -0.0348
     22 C          -4.3395   -0.7872    1.1168 C.2     1  UNL1        0.3238
     23 O          -5.2339   -1.4173    0.5163 O.2     1  UNL1       -0.2492
     24 O          -4.6381   -0.3496    2.4044 O.3     1  UNL1       -0.4795
     25 H          -4.8466    1.0075   -0.3838 H       1  UNL1        0.0233
     26 H          -4.0963    2.6177   -0.1624 H       1  UNL1        0.0233
     27 H          -3.5935    1.5741   -1.5652 H       1  UNL1        0.0233
     28 H          -1.8312    1.1178   -0.2421 H       1  UNL1        0.0316
     29 H          -1.9726    0.8905    2.2648 H       1  UNL1        0.0233
     30 H          -2.0982    2.5783    1.5931 H       1  UNL1        0.0233
     31 H          -3.5577    1.7084    2.1866 H       1  UNL1        0.0233
     32 H          -2.1980   -0.9569    1.0889 H       1  UNL1        0.0595
     33 H          -3.0681   -0.3952   -1.5703 H       1  UNL1        0.1489
     34 H          -0.0331   -0.9941   -2.8759 H       1  UNL1        0.0637
     35 H           2.2298   -0.0308   -2.5034 H       1  UNL1        0.0624
     36 H           4.2782   -0.3760   -2.2737 H       1  UNL1        0.0624
     37 H           6.5316    0.6314   -2.0544 H       1  UNL1        0.0632
     38 H           5.5937    1.7960    1.9100 H       1  UNL1        0.0632
     39 H           3.3302    0.7728    1.6608 H       1  UNL1        0.0624
     40 H           2.1460   -1.0193    1.5907 H       1  UNL1        0.0624
     41 H          -0.0609   -1.9813    1.3130 H       1  UNL1        0.0637
     42 H          -5.4634   -0.6397    2.9164 H       1  UNL1        0.2951
@<TRIPOS>BOND
     1     1     2    1
     2     2     3    1
     3     2     4    1
     4     4     5    1
     5     5     6    1
     6     6     7    2
     7     6     8    2
     8     6     9    1
     9     9    10   ar
    10    10    11   ar
    11    11    12   ar
    12    12    13    1
    13    13    14   ar
    14    14    15   ar
    15    15    16   ar
    16    16    17    1
    17    16    18   ar
    18    18    19   ar
    19    12    20   ar
    20    20    21   ar
    21     4    22    1
    22    22    23    2
    23    22    24    1
    24    21     9   ar
    25    19    13   ar
    26     1    25    1
    27     1    26    1
    28     1    27    1
    29     2    28    1
    30     3    29    1
    31     3    30    1
    32     3    31    1
    33     4    32    1
    34     5    33    1
    35    10    34    1
    36    11    35    1
    37    14    36    1
    38    15    37    1
    39    18    38    1
    40    19    39    1
    41    20    40    1
    42    21    41    1
    43    24    42    1
