@<TRIPOS>MOLECULE
*****
 38 39 0 0 0
SMALL
GASTEIGER

@<TRIPOS>ATOM
      1 C          -2.6411    0.7959    1.7091 C.3     1  UNL1       -0.0253
      2 C          -3.3039    0.4895    0.3982 C.3     1  UNL1        0.1068
      3 C          -4.2112   -0.7017    0.5005 C.3     1  UNL1       -0.0253
      4 C          -4.1704    1.7128    0.0772 C.3     1  UNL1       -0.0253
      5 O          -2.3473    0.3923   -0.6423 O.3     1  UNL1       -0.4444
      6 C          -1.3065   -0.5259   -0.6560 C.2     1  UNL1        0.4051
      7 O          -1.3888   -1.2248    0.4069 O.2     1  UNL1       -0.2261
      8 N          -0.3552   -0.6071   -1.7119 N.am    1  UNL1       -0.2489
      9 C           0.6461   -1.6207   -1.5459 C.ar    1  UNL1        0.0669
     10 C           1.8540   -1.3858   -0.9024 C.ar    1  UNL1        0.1468
     11 N           2.7774   -2.3609   -0.7616 N.ar    1  UNL1       -0.2485
     12 C           2.5371   -3.6094   -1.2551 C.ar    1  UNL1        0.0286
     13 C           1.3543   -3.8972   -1.9028 C.ar    1  UNL1       -0.0418
     14 C           0.4168   -2.9042   -2.0449 C.ar    1  UNL1       -0.0367
     15 C           2.1028   -0.0324   -0.3729 C.2     1  UNL1        0.2698
     16 O           1.1899    0.8099   -0.5491 O.2     1  UNL1       -0.2681
     17 N           3.3341    0.2299    0.2901 N.am    1  UNL1       -0.2594
     18 C           3.7398    1.4731    0.8603 C.ar    1  UNL1        0.1646
     19 N           4.3225    2.4128    0.4510 N.ar    1  UNL1       -0.2330
     20 C           4.6126    3.5019    1.1492 C.ar    1  UNL1        0.0368
     21 C           4.2095    3.5641    2.4668 C.ar    1  UNL1       -0.0030
     22 S           3.3726    1.9346    2.6481 S.2     1  UNL1       -0.0605
     23 H          -2.3347   -0.1181    2.2367 H       1  UNL1        0.0268
     24 H          -1.7717    1.4516    1.4936 H       1  UNL1        0.0268
     25 H          -3.3642    1.3922    2.3362 H       1  UNL1        0.0268
     26 H          -4.3164   -1.2698   -0.4345 H       1  UNL1        0.0268
     27 H          -5.2200   -0.3520    0.8097 H       1  UNL1        0.0268
     28 H          -3.8737   -1.3563    1.3485 H       1  UNL1        0.0268
     29 H          -5.1661    1.5424    0.5505 H       1  UNL1        0.0268
     30 H          -3.6889    2.6452    0.4500 H       1  UNL1        0.0268
     31 H          -4.2978    1.7243   -1.0070 H       1  UNL1        0.0268
     32 H          -0.4788    0.0767   -2.5014 H       1  UNL1        0.1582
     33 H           3.3500   -4.3080   -1.0825 H       1  UNL1        0.0830
     34 H           1.2748   -4.9135   -2.2496 H       1  UNL1        0.0633
     35 H          -0.4920   -3.1701   -2.5562 H       1  UNL1        0.0637
     36 H           4.0769   -0.4824    0.4253 H       1  UNL1        0.1571
     37 H           5.1645    4.3030    0.6323 H       1  UNL1        0.0835
     38 H           4.3931    4.3878    3.1037 H       1  UNL1        0.0709
@<TRIPOS>BOND
     1     1     2    1
     2     2     3    1
     3     2     4    1
     4     2     5    1
     5     5     6    1
     6     6     7    2
     7     6     8   am
     8     8     9    1
     9     9    10   ar
    10    10    11   ar
    11    11    12   ar
    12    12    13   ar
    13    13    14   ar
    14    10    15    1
    15    15    16    2
    16    15    17   am
    17    17    18    1
    18    18    19   ar
    19    19    20   ar
    20    20    21   ar
    21    21    22   ar
    22    14     9   ar
    23    22    18   ar
    24     1    23    1
    25     1    24    1
    26     1    25    1
    27     3    26    1
    28     3    27    1
    29     3    28    1
    30     4    29    1
    31     4    30    1
    32     4    31    1
    33     8    32    1
    34    12    33    1
    35    13    34    1
    36    14    35    1
    37    17    36    1
    38    20    37    1
    39    21    38    1
