@<TRIPOS>MOLECULE
*****
 48 50 0 0 0
SMALL
GASTEIGER

@<TRIPOS>ATOM
      1 C           0.3324   -3.4452   -3.3966 C.3     1  UNL1        0.0820
      2 O           0.3726   -2.5790   -2.2251 O.3     1  UNL1       -0.4644
      3 C           1.1094   -1.4307   -2.2831 C.2     1  UNL1        0.3422
      4 O           1.6969   -1.1912   -3.3801 O.2     1  UNL1       -0.2448
      5 C           1.3089   -0.4658   -1.2238 C.ar    1  UNL1        0.0979
      6 C           2.3140    0.4411   -1.2996 C.ar    1  UNL1        0.0455
      7 N           2.6165    1.2346   -0.2839 N.ar    1  UNL1       -0.2392
      8 C           2.0165    1.2444    0.8667 C.ar    1  UNL1        0.1257
      9 N           2.4350    2.1546    1.9097 N.pl3   1  UNL1       -0.2831
     10 C           3.6420    2.9046    1.6276 C.ar    1  UNL1        0.1423
     11 C           4.1744    3.7973    2.4878 C.ar    1  UNL1        0.0691
     12 N           5.3399    4.4462    2.2076 N.ar    1  UNL1       -0.2397
     13 C           6.0004    4.1926    1.0194 C.ar    1  UNL1        0.1582
     14 C           7.2498    4.7938    0.6869 C.1     1  UNL1        0.1206
     15 N           8.2776    5.2853    0.4180 N.1     1  UNL1       -0.1892
     16 C           5.4361    3.2804    0.1621 C.ar    1  UNL1        0.0655
     17 N           4.2988    2.6650    0.4661 N.ar    1  UNL1       -0.2358
     18 C           0.9510    0.3328    1.0578 C.ar    1  UNL1        0.0001
     19 C           0.5637   -0.5434    0.0143 C.ar    1  UNL1        0.0460
     20 N          -0.5391   -1.2860   -0.0903 N.pl3   1  UNL1       -0.3428
     21 C          -1.6794   -2.0531   -0.1948 C.3     1  UNL1        0.0120
     22 C          -2.9434   -1.4660    0.4447 C.3     1  UNL1       -0.0232
     23 C          -4.0537   -2.4292    0.1497 C.3     1  UNL1       -0.0361
     24 C          -5.3438   -1.9352    0.7873 C.3     1  UNL1       -0.0038
     25 N          -5.5932   -0.5589    0.6225 N.3     1  UNL1       -0.3160
     26 C          -4.6946    0.2169   -0.1466 C.3     1  UNL1       -0.0038
     27 C          -3.2219   -0.0565    0.1061 C.3     1  UNL1       -0.0361
     28 H           1.4036   -3.7965   -3.5469 H       1  UNL1        0.0661
     29 H          -0.2216   -4.3396   -3.1173 H       1  UNL1        0.0661
     30 H          -0.0160   -2.9163   -4.2864 H       1  UNL1        0.0661
     31 H           2.8710    0.4840   -2.2462 H       1  UNL1        0.0839
     32 H           1.9129    2.2483    2.7609 H       1  UNL1        0.1550
     33 H           3.6607    4.0120    3.4401 H       1  UNL1        0.0865
     34 H           5.9336    3.0368   -0.8073 H       1  UNL1        0.0859
     35 H           0.4560    0.3228    1.9920 H       1  UNL1        0.0671
     36 H          -0.6562   -1.4108    1.2735 H       1  UNL1        0.1461
     37 H          -1.6332   -3.1236    0.1150 H       1  UNL1        0.0464
     38 H          -1.9279   -2.1437   -1.3201 H       1  UNL1        0.0464
     39 H          -2.8070   -1.5102    1.5740 H       1  UNL1        0.0317
     40 H          -3.8743   -3.4464    0.5334 H       1  UNL1        0.0281
     41 H          -4.2319   -2.5230   -0.9520 H       1  UNL1        0.0281
     42 H          -6.1668   -2.5127    0.2593 H       1  UNL1        0.0424
     43 H          -5.3804   -2.2777    1.8372 H       1  UNL1        0.0424
     44 H          -6.0682   -0.1356    1.4128 H       1  UNL1        0.1219
     45 H          -4.8544    0.2227   -1.2525 H       1  UNL1        0.0424
     46 H          -4.8699    1.2967    0.1565 H       1  UNL1        0.0424
     47 H          -2.9384    0.6398    0.9757 H       1  UNL1        0.0281
     48 H          -2.6583    0.3233   -0.7555 H       1  UNL1        0.0281
@<TRIPOS>BOND
     1     1     2    1
     2     2     3    1
     3     3     4    2
     4     3     5    1
     5     5     6   ar
     6     6     7   ar
     7     7     8   ar
     8     8     9    1
     9     9    10    1
    10    10    11   ar
    11    11    12   ar
    12    12    13   ar
    13    13    14    1
    14    14    15    3
    15    13    16   ar
    16    16    17   ar
    17     8    18   ar
    18    18    19   ar
    19    19    20    1
    20    20    21    1
    21    21    22    1
    22    22    23    1
    23    23    24    1
    24    24    25    1
    25    25    26    1
    26    26    27    1
    27    19     5   ar
    28    27    22    1
    29    17    10   ar
    30     1    28    1
    31     1    29    1
    32     1    30    1
    33     6    31    1
    34     9    32    1
    35    11    33    1
    36    16    34    1
    37    18    35    1
    38    20    36    1
    39    21    37    1
    40    21    38    1
    41    22    39    1
    42    23    40    1
    43    23    41    1
    44    24    42    1
    45    24    43    1
    46    25    44    1
    47    26    45    1
    48    26    46    1
    49    27    47    1
    50    27    48    1
