
     RDKit          3D

 48 50  0  0  0  0  0  0  0  0999 V2000
    0.3324   -3.4452   -3.3966 C   0  0  0  0  0  0  0  0  0  0  0  0
    0.3726   -2.5790   -2.2251 O   0  0  0  0  0  0  0  0  0  0  0  0
    1.1094   -1.4307   -2.2831 C   0  0  0  0  0  0  0  0  0  0  0  0
    1.6969   -1.1912   -3.3801 O   0  0  0  0  0  0  0  0  0  0  0  0
    1.3089   -0.4658   -1.2238 C   0  0  0  0  0  0  0  0  0  0  0  0
    2.3140    0.4411   -1.2996 C   0  0  0  0  0  0  0  0  0  0  0  0
    2.6165    1.2346   -0.2839 N   0  0  0  0  0  0  0  0  0  0  0  0
    2.0165    1.2444    0.8667 C   0  0  0  0  0  0  0  0  0  0  0  0
    2.4350    2.1546    1.9097 N   0  0  0  0  0  0  0  0  0  0  0  0
    3.6420    2.9046    1.6276 C   0  0  0  0  0  0  0  0  0  0  0  0
    4.1744    3.7973    2.4878 C   0  0  0  0  0  0  0  0  0  0  0  0
    5.3399    4.4462    2.2076 N   0  0  0  0  0  0  0  0  0  0  0  0
    6.0004    4.1926    1.0194 C   0  0  0  0  0  0  0  0  0  0  0  0
    7.2498    4.7938    0.6869 C   0  0  0  0  0  0  0  0  0  0  0  0
    8.2776    5.2853    0.4180 N   0  0  0  0  0  0  0  0  0  0  0  0
    5.4361    3.2804    0.1621 C   0  0  0  0  0  0  0  0  0  0  0  0
    4.2988    2.6650    0.4661 N   0  0  0  0  0  0  0  0  0  0  0  0
    0.9510    0.3328    1.0578 C   0  0  0  0  0  0  0  0  0  0  0  0
    0.5637   -0.5434    0.0143 C   0  0  0  0  0  0  0  0  0  0  0  0
   -0.5391   -1.2860   -0.0903 N   0  0  0  0  0  0  0  0  0  0  0  0
   -1.6794   -2.0531   -0.1948 C   0  0  0  0  0  0  0  0  0  0  0  0
   -2.9434   -1.4660    0.4447 C   0  0  0  0  0  0  0  0  0  0  0  0
   -4.0537   -2.4292    0.1497 C   0  0  0  0  0  0  0  0  0  0  0  0
   -5.3438   -1.9352    0.7873 C   0  0  0  0  0  0  0  0  0  0  0  0
   -5.5932   -0.5589    0.6225 N   0  0  0  0  0  0  0  0  0  0  0  0
   -4.6946    0.2169   -0.1466 C   0  0  0  0  0  0  0  0  0  0  0  0
   -3.2219   -0.0565    0.1061 C   0  0  0  0  0  0  0  0  0  0  0  0
    1.4036   -3.7965   -3.5469 H   0  0  0  0  0  0  0  0  0  0  0  0
   -0.2216   -4.3396   -3.1173 H   0  0  0  0  0  0  0  0  0  0  0  0
   -0.0160   -2.9163   -4.2864 H   0  0  0  0  0  0  0  0  0  0  0  0
    2.8710    0.4840   -2.2462 H   0  0  0  0  0  0  0  0  0  0  0  0
    1.9129    2.2483    2.7609 H   0  0  0  0  0  0  0  0  0  0  0  0
    3.6607    4.0120    3.4401 H   0  0  0  0  0  0  0  0  0  0  0  0
    5.9336    3.0368   -0.8073 H   0  0  0  0  0  0  0  0  0  0  0  0
    0.4560    0.3228    1.9920 H   0  0  0  0  0  0  0  0  0  0  0  0
   -0.6562   -1.4108    1.2735 H   0  0  0  0  0  0  0  0  0  0  0  0
   -1.6332   -3.1236    0.1150 H   0  0  0  0  0  0  0  0  0  0  0  0
   -1.9279   -2.1437   -1.3201 H   0  0  0  0  0  0  0  0  0  0  0  0
   -2.8070   -1.5102    1.5740 H   0  0  0  0  0  0  0  0  0  0  0  0
   -3.8743   -3.4464    0.5334 H   0  0  0  0  0  0  0  0  0  0  0  0
   -4.2319   -2.5230   -0.9520 H   0  0  0  0  0  0  0  0  0  0  0  0
   -6.1668   -2.5127    0.2593 H   0  0  0  0  0  0  0  0  0  0  0  0
   -5.3804   -2.2777    1.8372 H   0  0  0  0  0  0  0  0  0  0  0  0
   -6.0682   -0.1356    1.4128 H   0  0  0  0  0  0  0  0  0  0  0  0
   -4.8544    0.2227   -1.2525 H   0  0  0  0  0  0  0  0  0  0  0  0
   -4.8699    1.2967    0.1565 H   0  0  0  0  0  0  0  0  0  0  0  0
   -2.9384    0.6398    0.9757 H   0  0  0  0  0  0  0  0  0  0  0  0
   -2.6583    0.3233   -0.7555 H   0  0  0  0  0  0  0  0  0  0  0  0
  1  2  1  0
  2  3  1  0
  3  4  2  0
  3  5  1  0
  5  6  2  0
  6  7  1  0
  7  8  2  0
  8  9  1  0
  9 10  1  0
 10 11  2  0
 11 12  1  0
 12 13  2  0
 13 14  1  0
 14 15  3  0
 13 16  1  0
 16 17  2  0
  8 18  1  0
 18 19  2  0
 19 20  1  0
 20 21  1  0
 21 22  1  0
 22 23  1  0
 23 24  1  0
 24 25  1  0
 25 26  1  0
 26 27  1  0
 19  5  1  0
 27 22  1  0
 17 10  1  0
  1 28  1  0
  1 29  1  0
  1 30  1  0
  6 31  1  0
  9 32  1  0
 11 33  1  0
 16 34  1  0
 18 35  1  0
 20 36  1  0
 21 37  1  0
 21 38  1  0
 22 39  1  0
 23 40  1  0
 23 41  1  0
 24 42  1  0
 24 43  1  0
 25 44  1  0
 26 45  1  0
 26 46  1  0
 27 47  1  0
 27 48  1  0
M  END
$$$$
