@<TRIPOS>MOLECULE
*****
 70 74 0 0 0
SMALL
GASTEIGER

@<TRIPOS>ATOM
      1 C           7.9247    4.0603   -2.7057 C.3     1  UNL1        0.0805
      2 O           7.2049    3.0697   -2.0201 O.3     1  UNL1       -0.4774
      3 C           7.8587    2.1304   -1.2367 C.ar    1  UNL1        0.2552
      4 N           9.1722    2.0042   -1.0093 N.ar    1  UNL1       -0.1317
      5 N           9.3988    0.9847   -0.2071 N.ar    1  UNL1       -0.2692
      6 C          10.6975    0.5222    0.2760 C.3     1  UNL1        0.0304
      7 C           8.2166    0.4130    0.1123 C.ar    1  UNL1        0.0503
      8 C           7.2311    1.1112   -0.5199 C.ar    1  UNL1        0.1152
      9 N           5.8356    0.9095   -0.5042 N.pl3   1  UNL1       -0.2782
     10 C           5.2118   -0.1312    0.2294 C.ar    1  UNL1        0.2203
     11 N           5.8916   -1.0040    0.9618 N.ar    1  UNL1       -0.2198
     12 C           5.3037   -1.9862    1.6546 C.ar    1  UNL1        0.0685
     13 C           3.9115   -2.1338    1.6320 C.ar    1  UNL1        0.1674
     14 F           3.3354   -3.1365    2.3413 F       1  UNL1       -0.2016
     15 C           3.2007   -1.2432    0.8830 C.ar    1  UNL1        0.1132
     16 C           1.7463   -1.3253    0.8046 C.ar    1  UNL1        0.0284
     17 C           0.9027   -2.2207    1.4094 C.ar    1  UNL1        0.0121
     18 N          -0.3945   -1.9601    1.0847 N.ar    1  UNL1       -0.3586
     19 C          -0.3536   -0.9011    0.2771 C.ar    1  UNL1        0.0686
     20 C          -1.3608   -0.2270   -0.3365 C.ar    1  UNL1        0.0576
     21 N          -2.7066   -0.6274   -0.1590 N.am    1  UNL1       -0.2825
     22 C          -3.3598   -1.5631   -0.9930 C.2     1  UNL1        0.2342
     23 O          -2.6733   -2.0598   -1.9424 O.2     1  UNL1       -0.2738
     24 C          -4.7604   -2.0136   -0.8578 C.3     1  UNL1        0.0848
     25 C          -4.8513   -3.4680   -0.4745 C.3     1  UNL1       -0.0409
     26 N          -5.4990   -1.1504    0.0408 N.3     1  UNL1       -0.2890
     27 C          -6.8092   -1.7137    0.3564 C.3     1  UNL1        0.0124
     28 C          -7.7767   -0.5912    0.6457 C.3     1  UNL1        0.0117
     29 N          -7.1211    0.5683    1.2338 N.3     1  UNL1       -0.3002
     30 C          -8.1319    1.5358    1.5828 C.3     1  UNL1       -0.0124
     31 C          -6.2936    1.1597    0.1876 C.3     1  UNL1        0.0201
     32 C          -5.3191    2.1023    0.8105 C.3     1  UNL1       -0.0483
     33 C          -5.6884    0.1110   -0.6842 C.3     1  UNL1        0.0150
     34 C          -1.0980    0.8568   -1.1417 C.ar    1  UNL1       -0.0384
     35 C           0.1900    1.2956   -1.3539 C.ar    1  UNL1       -0.0593
     36 C           1.2325    0.6122   -0.7297 C.ar    1  UNL1       -0.0518
     37 C           0.9509   -0.4702    0.0727 C.ar    1  UNL1        0.0107
     38 N           3.8622   -0.2810    0.2127 N.ar    1  UNL1       -0.2113
     39 H           8.6145    4.5391   -1.9849 H       1  UNL1        0.0660
     40 H           8.4139    3.6759   -3.6019 H       1  UNL1        0.0660
     41 H           7.2284    4.8728   -3.0346 H       1  UNL1        0.0660
     42 H          10.5430    0.0427    1.2658 H       1  UNL1        0.0473
     43 H          11.3347    1.4041    0.4236 H       1  UNL1        0.0473
     44 H          11.1356   -0.2386   -0.3907 H       1  UNL1        0.0473
     45 H           8.1264   -0.4480    0.7618 H       1  UNL1        0.0846
     46 H           5.1800    1.5433   -1.0538 H       1  UNL1        0.1552
     47 H           5.8439   -2.7013    2.2532 H       1  UNL1        0.0861
     48 H           1.1501   -3.0400    2.0612 H       1  UNL1        0.0814
     49 H          -1.2353   -2.4903    1.4099 H       1  UNL1        0.1654
     50 H          -3.2384   -0.2172    0.6369 H       1  UNL1        0.1549
     51 H          -5.2184   -1.9400   -1.8880 H       1  UNL1        0.0556
     52 H          -4.7545   -3.6410    0.6152 H       1  UNL1        0.0249
     53 H          -5.8149   -3.8681   -0.8817 H       1  UNL1        0.0249
     54 H          -4.0518   -3.9969   -1.0579 H       1  UNL1        0.0249
     55 H          -6.7037   -2.3069    1.2880 H       1  UNL1        0.0439
     56 H          -7.2139   -2.3420   -0.4335 H       1  UNL1        0.0439
     57 H          -8.5387   -0.9209    1.4070 H       1  UNL1        0.0439
     58 H          -8.3417   -0.3485   -0.2626 H       1  UNL1        0.0439
     59 H          -8.3287    1.5412    2.6916 H       1  UNL1        0.0391
     60 H          -9.0487    1.3241    0.9991 H       1  UNL1        0.0391
     61 H          -7.7731    2.5788    1.3430 H       1  UNL1        0.0391
     62 H          -7.0096    1.7451   -0.4536 H       1  UNL1        0.0472
     63 H          -5.2964    2.0698    1.9182 H       1  UNL1        0.0245
     64 H          -4.2652    1.9434    0.4624 H       1  UNL1        0.0245
     65 H          -5.5452    3.1644    0.5436 H       1  UNL1        0.0245
     66 H          -6.3121   -0.1429   -1.5674 H       1  UNL1        0.0442
     67 H          -4.7091    0.4393   -1.0435 H       1  UNL1        0.0442
     68 H          -1.8868    1.4121   -1.6431 H       1  UNL1        0.0637
     69 H           0.3870    2.1360   -1.9788 H       1  UNL1        0.0618
     70 H           2.2466    0.9715   -0.9074 H       1  UNL1        0.0624
@<TRIPOS>BOND
     1     1     2    1
     2     2     3    1
     3     3     4   ar
     4     4     5   ar
     5     5     6    1
     6     5     7   ar
     7     7     8   ar
     8     8     9    1
     9     9    10    1
    10    10    11   ar
    11    11    12   ar
    12    12    13   ar
    13    13    14    1
    14    13    15   ar
    15    15    16    1
    16    16    17   ar
    17    17    18   ar
    18    18    19   ar
    19    19    20   ar
    20    20    21    1
    21    21    22   am
    22    22    23    2
    23    22    24    1
    24    24    25    1
    25    24    26    1
    26    26    27    1
    27    27    28    1
    28    28    29    1
    29    29    30    1
    30    29    31    1
    31    31    32    1
    32    31    33    1
    33    20    34   ar
    34    34    35   ar
    35    35    36   ar
    36    36    37   ar
    37    15    38   ar
    38     8     3   ar
    39    38    10   ar
    40    37    16   ar
    41    37    19   ar
    42    33    26    1
    43     1    39    1
    44     1    40    1
    45     1    41    1
    46     6    42    1
    47     6    43    1
    48     6    44    1
    49     7    45    1
    50     9    46    1
    51    12    47    1
    52    17    48    1
    53    18    49    1
    54    21    50    1
    55    24    51    1
    56    25    52    1
    57    25    53    1
    58    25    54    1
    59    27    55    1
    60    27    56    1
    61    28    57    1
    62    28    58    1
    63    30    59    1
    64    30    60    1
    65    30    61    1
    66    31    62    1
    67    32    63    1
    68    32    64    1
    69    32    65    1
    70    33    66    1
    71    33    67    1
    72    34    68    1
    73    35    69    1
    74    36    70    1
