@<TRIPOS>MOLECULE
*****
 89 94 0 0 0
SMALL
GASTEIGER

@<TRIPOS>ATOM
      1 C           8.5570    3.2752    4.8338 C.3     1  UNL1        0.0789
      2 O           7.6591    2.5648    4.0186 O.3     1  UNL1       -0.4933
      3 C           8.1621    1.9164    2.8876 C.ar    1  UNL1        0.1412
      4 C           9.4913    1.9755    2.5933 C.ar    1  UNL1       -0.0174
      5 C           9.9777    1.3196    1.4560 C.ar    1  UNL1       -0.0461
      6 C           9.1176    0.6253    0.6508 C.ar    1  UNL1        0.0387
      7 C           9.5795   -0.0840   -0.5421 C.2     1  UNL1        0.2442
      8 O           8.7051   -0.6720   -1.2588 O.2     1  UNL1       -0.2702
      9 N          10.9298   -0.1444   -0.9254 N.am    1  UNL1       -0.3092
     10 C          11.4578   -0.8071   -2.0766 C.3     1  UNL1        0.0351
     11 C          10.9734   -0.2475   -3.3648 C.3     1  UNL1        0.0597
     12 O           9.6219   -0.2989   -3.5512 O.3     1  UNL1       -0.3935
     13 C           7.7545    0.5816    0.9784 C.ar    1  UNL1       -0.0248
     14 C           7.2536    1.2136    2.0825 C.ar    1  UNL1        0.0765
     15 N           5.8956    1.1865    2.4766 N.pl3   1  UNL1       -0.2806
     16 C           4.8058    0.6672    1.7698 C.ar    1  UNL1        0.2226
     17 N           4.8960    0.2239    0.5118 N.ar    1  UNL1       -0.2225
     18 C           3.8757   -0.2788   -0.2019 C.ar    1  UNL1        0.0362
     19 C           2.6359   -0.3481    0.3984 C.ar    1  UNL1        0.0186
     20 C           2.5013    0.0991    1.6955 C.ar    1  UNL1        0.2249
     21 O           1.2447    0.0145    2.2870 O.3     1  UNL1       -0.4373
     22 C           0.1402   -0.4098    1.5796 C.ar    1  UNL1        0.1381
     23 C          -0.4636   -1.6036    1.8972 C.ar    1  UNL1       -0.0169
     24 C          -1.5644   -2.0817    1.2332 C.ar    1  UNL1       -0.0363
     25 C          -2.0941   -1.3489    0.2100 C.ar    1  UNL1        0.0427
     26 N          -3.2126   -1.7621   -0.5632 N.am    1  UNL1       -0.2686
     27 C          -4.5608   -1.5953   -0.1618 C.2     1  UNL1        0.3092
     28 O          -4.7999   -1.0564    0.9636 O.2     1  UNL1       -0.2521
     29 N          -5.6586   -2.0063   -0.9632 N.am    1  UNL1       -0.2538
     30 C          -7.0263   -1.8989   -0.5648 C.ar    1  UNL1        0.1299
     31 C          -7.7277   -2.9252    0.0481 C.ar    1  UNL1        0.0018
     32 C          -9.0026   -2.4677    0.2939 C.ar    1  UNL1        0.0679
     33 C         -10.1379   -3.2101    0.9308 C.3     1  UNL1       -0.0025
     34 C          -9.7013   -3.8018    2.2509 C.3     1  UNL1       -0.0572
     35 C         -10.5498   -4.3489    0.0179 C.3     1  UNL1       -0.0572
     36 N          -9.0160   -1.2220   -0.1673 N.ar    1  UNL1       -0.1694
     37 N          -7.8481   -0.8547   -0.6863 N.ar    1  UNL1       -0.2181
     38 C          -7.5590    0.4395   -1.2598 C.ar    1  UNL1        0.0674
     39 C          -7.3503    1.5221   -0.4318 C.ar    1  UNL1       -0.0359
     40 C          -7.0838    2.7893   -0.9183 C.ar    1  UNL1       -0.0568
     41 C          -7.0173    3.0138   -2.2769 C.ar    1  UNL1       -0.0503
     42 C          -6.7389    4.3736   -2.8344 C.3     1  UNL1       -0.0397
     43 C          -7.2248    1.9345   -3.1075 C.ar    1  UNL1       -0.0568
     44 C          -7.4943    0.6518   -2.6163 C.ar    1  UNL1       -0.0359
     45 C          -1.5036   -0.1386   -0.1293 C.ar    1  UNL1        0.0069
     46 C          -2.0532    0.5974   -1.1564 C.ar    1  UNL1       -0.0521
     47 C          -1.5328    1.8105   -1.5462 C.ar    1  UNL1       -0.0611
     48 C          -0.4334    2.2566   -0.8580 C.ar    1  UNL1       -0.0611
     49 C           0.1650    1.5717    0.1777 C.ar    1  UNL1       -0.0505
     50 C          -0.3810    0.3486    0.5483 C.ar    1  UNL1        0.0262
     51 N           3.5618    0.5818    2.3296 N.ar    1  UNL1       -0.1789
     52 H           7.9498    3.7705    5.6208 H       1  UNL1        0.0660
     53 H           9.3164    2.5961    5.2430 H       1  UNL1        0.0660
     54 H           9.0256    4.0490    4.1584 H       1  UNL1        0.0660
     55 H          10.2096    2.5116    3.2009 H       1  UNL1        0.0655
     56 H          11.0383    1.3823    1.2448 H       1  UNL1        0.0626
     57 H          11.6238    0.3476   -0.3026 H       1  UNL1        0.1491
     58 H          11.2772   -1.9162   -2.0388 H       1  UNL1        0.0485
     59 H          12.5768   -0.7299   -2.0546 H       1  UNL1        0.0485
     60 H          11.4760   -0.7316   -4.2528 H       1  UNL1        0.0573
     61 H          11.3195    0.8247   -3.4240 H       1  UNL1        0.0573
     62 H           9.2773   -1.0624   -4.0520 H       1  UNL1        0.2095
     63 H           7.0988    0.0149    0.3197 H       1  UNL1        0.0645
     64 H           5.6538    1.6068    3.4303 H       1  UNL1        0.1551
     65 H           3.9648   -0.6293   -1.2097 H       1  UNL1        0.0832
     66 H           1.7951   -0.7584   -0.1612 H       1  UNL1        0.0686
     67 H          -0.0770   -2.2164    2.7050 H       1  UNL1        0.0655
     68 H          -2.0451   -3.0406    1.4866 H       1  UNL1        0.0637
     69 H          -3.0727   -2.2309   -1.5104 H       1  UNL1        0.1564
     70 H          -5.4052   -2.4425   -1.8987 H       1  UNL1        0.1578
     71 H          -7.3424   -3.9272    0.2963 H       1  UNL1        0.0671
     72 H         -10.9626   -2.4900    1.0841 H       1  UNL1        0.0359
     73 H          -9.0666   -4.7020    2.0944 H       1  UNL1        0.0236
     74 H          -9.0553   -3.0892    2.8230 H       1  UNL1        0.0236
     75 H         -10.5834   -4.1183    2.8265 H       1  UNL1        0.0236
     76 H         -11.5758   -4.6539    0.3477 H       1  UNL1        0.0236
     77 H          -9.8336   -5.1651    0.1218 H       1  UNL1        0.0236
     78 H         -10.6259   -3.9621   -1.0215 H       1  UNL1        0.0236
     79 H          -7.4056    1.3350    0.6397 H       1  UNL1        0.0639
     80 H          -6.9210    3.6296   -0.2499 H       1  UNL1        0.0621
     81 H          -6.2080    5.0007   -2.0993 H       1  UNL1        0.0278
     82 H          -6.1953    4.3087   -3.7743 H       1  UNL1        0.0278
     83 H          -7.7380    4.8699   -3.0235 H       1  UNL1        0.0278
     84 H          -7.1757    2.0919   -4.1757 H       1  UNL1        0.0621
     85 H          -7.6576   -0.1978   -3.2509 H       1  UNL1        0.0639
     86 H          -2.9223    0.2533   -1.7019 H       1  UNL1        0.0624
     87 H          -1.9784    2.3707   -2.3563 H       1  UNL1        0.0618
     88 H          -0.0070    3.2073   -1.1417 H       1  UNL1        0.0618
     89 H           1.0256    1.9512    0.7102 H       1  UNL1        0.0625
@<TRIPOS>BOND
     1     1     2    1
     2     2     3    1
     3     3     4   ar
     4     4     5   ar
     5     5     6   ar
     6     6     7    1
     7     7     8    2
     8     7     9   am
     9     9    10    1
    10    10    11    1
    11    11    12    1
    12     6    13   ar
    13    13    14   ar
    14    14    15    1
    15    15    16    1
    16    16    17   ar
    17    17    18   ar
    18    18    19   ar
    19    19    20   ar
    20    20    21    1
    21    21    22    1
    22    22    23   ar
    23    23    24   ar
    24    24    25   ar
    25    25    26    1
    26    26    27   am
    27    27    28    2
    28    27    29   am
    29    29    30    1
    30    30    31   ar
    31    31    32   ar
    32    32    33    1
    33    33    34    1
    34    33    35    1
    35    32    36   ar
    36    36    37   ar
    37    37    38    1
    38    38    39   ar
    39    39    40   ar
    40    40    41   ar
    41    41    42    1
    42    41    43   ar
    43    43    44   ar
    44    25    45   ar
    45    45    46   ar
    46    46    47   ar
    47    47    48   ar
    48    48    49   ar
    49    49    50   ar
    50    20    51   ar
    51    14     3   ar
    52    51    16   ar
    53    50    22   ar
    54    37    30   ar
    55    44    38   ar
    56    50    45   ar
    57     1    52    1
    58     1    53    1
    59     1    54    1
    60     4    55    1
    61     5    56    1
    62     9    57    1
    63    10    58    1
    64    10    59    1
    65    11    60    1
    66    11    61    1
    67    12    62    1
    68    13    63    1
    69    15    64    1
    70    18    65    1
    71    19    66    1
    72    23    67    1
    73    24    68    1
    74    26    69    1
    75    29    70    1
    76    31    71    1
    77    33    72    1
    78    34    73    1
    79    34    74    1
    80    34    75    1
    81    35    76    1
    82    35    77    1
    83    35    78    1
    84    39    79    1
    85    40    80    1
    86    42    81    1
    87    42    82    1
    88    42    83    1
    89    43    84    1
    90    44    85    1
    91    46    86    1
    92    47    87    1
    93    48    88    1
    94    49    89    1
