@<TRIPOS>MOLECULE
*****
 49 51 0 0 0
SMALL
GASTEIGER

@<TRIPOS>ATOM
      1 C           1.1295   -2.5910    0.4617 C.3     1  UNL1        0.0168
      2 N           1.4441   -1.1701    0.4382 N.ar    1  UNL1       -0.2928
      3 C           2.6688   -0.7920    0.8490 C.ar    1  UNL1        0.2951
      4 O           3.5407   -1.6367    1.2423 O.2     1  UNL1       -0.2636
      5 C           3.0036    0.5525    0.8481 C.ar    1  UNL1        0.1934
      6 O           4.2587    0.9265    1.2706 O.3     1  UNL1       -0.4477
      7 C           5.4052    0.4689    0.6276 C.ar    1  UNL1        0.1639
      8 C           6.3329   -0.2723    1.3436 C.ar    1  UNL1       -0.0137
      9 C           7.4533   -0.7073    0.6766 C.ar    1  UNL1       -0.0228
     10 C           7.6576   -0.4258   -0.6469 C.ar    1  UNL1        0.1264
     11 F           8.7874   -0.8772   -1.2757 F       1  UNL1       -0.2054
     12 C           6.7326    0.3101   -1.3500 C.ar    1  UNL1        0.0125
     13 C           5.5963    0.7611   -0.7059 C.ar    1  UNL1        0.1681
     14 F           4.7094    1.4839   -1.4391 F       1  UNL1       -0.2015
     15 C           2.0434    1.4369    0.4180 C.ar    1  UNL1       -0.0018
     16 C           0.7989    1.0306    0.0028 C.ar    1  UNL1        0.0394
     17 C          -0.1602    1.9559   -0.4309 C.ar    1  UNL1        0.0419
     18 N          -1.3359    1.4668   -0.8163 N.ar    1  UNL1       -0.2222
     19 C          -1.6528    0.1679   -0.8147 C.ar    1  UNL1        0.2173
     20 N          -2.9308   -0.2210   -1.2790 N.pl3   1  UNL1       -0.3104
     21 C          -4.2093    0.1950   -0.7809 C.3     1  UNL1        0.0275
     22 C          -4.4207   -0.1823    0.6308 C.3     1  UNL1       -0.0111
     23 C          -3.4690    0.3917    1.6378 C.3     1  UNL1        0.0459
     24 O          -3.9060   -0.1160    2.8926 O.3     1  UNL1       -0.3949
     25 C          -5.2737   -0.3495   -1.7114 C.3     1  UNL1       -0.0111
     26 C          -6.6610    0.0154   -1.2914 C.3     1  UNL1        0.0459
     27 O          -6.9175    1.3636   -1.2296 O.3     1  UNL1       -0.3949
     28 N          -0.7198   -0.7374   -0.3910 N.ar    1  UNL1       -0.1964
     29 C           0.5038   -0.3098    0.0176 C.ar    1  UNL1        0.1484
     30 H           1.2274   -3.0108    1.4860 H       1  UNL1        0.0457
     31 H           0.0702   -2.7508    0.1576 H       1  UNL1        0.0457
     32 H           1.8197   -3.1065   -0.2286 H       1  UNL1        0.0457
     33 H           6.2158   -0.5217    2.3957 H       1  UNL1        0.0656
     34 H           8.1977   -1.2874    1.2067 H       1  UNL1        0.0647
     35 H           6.9083    0.5245   -2.3910 H       1  UNL1        0.0676
     36 H           2.3016    2.4918    0.4149 H       1  UNL1        0.0664
     37 H           0.1274    2.9932   -0.4204 H       1  UNL1        0.0838
     38 H          -2.8882   -0.9074   -2.1025 H       1  UNL1        0.1492
     39 H          -4.2452    1.3300   -0.8306 H       1  UNL1        0.0500
     40 H          -5.4456    0.0409    1.0122 H       1  UNL1        0.0305
     41 H          -4.3461   -1.3092    0.7718 H       1  UNL1        0.0305
     42 H          -3.6185    1.5011    1.7363 H       1  UNL1        0.0558
     43 H          -2.4229    0.1374    1.5225 H       1  UNL1        0.0558
     44 H          -3.1185   -0.0255    3.5190 H       1  UNL1        0.2094
     45 H          -5.0933    0.1335   -2.7075 H       1  UNL1        0.0305
     46 H          -5.2191   -1.4315   -1.8645 H       1  UNL1        0.0305
     47 H          -6.9910   -0.5454   -0.3697 H       1  UNL1        0.0558
     48 H          -7.3418   -0.3963   -2.0946 H       1  UNL1        0.0558
     49 H          -6.5475    1.7886   -0.4078 H       1  UNL1        0.2094
@<TRIPOS>BOND
     1     1     2    1
     2     2     3   ar
     3     3     4    2
     4     3     5   ar
     5     5     6    1
     6     6     7    1
     7     7     8   ar
     8     8     9   ar
     9     9    10   ar
    10    10    11    1
    11    10    12   ar
    12    12    13   ar
    13    13    14    1
    14     5    15   ar
    15    15    16   ar
    16    16    17   ar
    17    17    18   ar
    18    18    19   ar
    19    19    20    1
    20    20    21    1
    21    21    22    1
    22    22    23    1
    23    23    24    1
    24    21    25    1
    25    25    26    1
    26    26    27    1
    27    19    28   ar
    28    28    29   ar
    29    29     2   ar
    30    13     7   ar
    31    29    16   ar
    32     1    30    1
    33     1    31    1
    34     1    32    1
    35     8    33    1
    36     9    34    1
    37    12    35    1
    38    15    36    1
    39    17    37    1
    40    20    38    1
    41    21    39    1
    42    22    40    1
    43    22    41    1
    44    23    42    1
    45    23    43    1
    46    24    44    1
    47    25    45    1
    48    25    46    1
    49    26    47    1
    50    26    48    1
    51    27    49    1
