
     RDKit          3D

 50 51  0  0  0  0  0  0  0  0999 V2000
    6.3212    0.1769    1.5246 C   0  0  0  0  0  0  0  0  0  0  0  0
    5.2710    0.7911    0.6217 C   0  0  0  0  0  0  0  0  0  0  0  0
    4.8028   -0.2941   -0.3261 C   0  0  0  0  0  0  0  0  0  0  0  0
    3.7553    0.3094   -1.2304 C   0  0  0  0  0  0  0  0  0  0  0  0
    3.2196   -0.7033   -2.2233 C   0  0  0  0  0  0  0  0  0  0  0  0
    2.5886   -1.8694   -1.5290 C   0  0  0  0  0  0  0  0  0  0  0  0
    1.4560   -1.4142   -0.6603 C   0  0  0  0  0  0  0  0  0  0  0  0
    0.4116   -0.7422   -1.4897 C   0  0  0  0  0  0  0  0  0  0  0  0
   -0.7490   -0.2765   -0.6838 C   0  0  0  0  0  0  0  0  0  0  0  0
   -1.8865   -1.0142   -0.4084 C   0  0  0  0  0  0  0  0  0  0  0  0
   -2.6942   -0.2740    0.3317 N   0  0  0  0  0  0  0  0  0  0  0  0
   -2.0852    0.9199    0.5285 C   0  0  0  0  0  0  0  0  0  0  0  0
   -0.8952    0.9089   -0.0968 N   0  0  0  0  0  0  0  0  0  0  0  0
   -2.7187    1.9759    1.3145 C   0  0  0  0  0  0  0  0  0  0  0  0
   -2.2284    3.2094    0.8914 O   0  0  0  0  0  0  0  0  0  0  0  0
   -4.2051    1.9993    1.2407 C   0  0  0  0  0  0  0  0  0  0  0  0
   -4.6074    3.0392    0.3896 O   0  0  0  0  0  0  0  0  0  0  0  0
   -4.8599    0.7300    0.8644 C   0  0  0  0  0  0  0  0  0  0  0  0
   -5.9635    0.4483    1.7028 O   0  0  0  0  0  0  0  0  0  0  0  0
   -3.9739   -0.4835    0.9097 C   0  0  0  0  0  0  0  0  0  0  0  0
   -4.6873   -1.5948    0.1744 C   0  0  0  0  0  0  0  0  0  0  0  0
   -4.0454   -2.8042    0.1993 O   0  0  0  0  0  0  0  0  0  0  0  0
    6.4892    0.7981    2.4287 H   0  0  0  0  0  0  0  0  0  0  0  0
    6.0631   -0.8864    1.7936 H   0  0  0  0  0  0  0  0  0  0  0  0
    7.2957    0.1987    0.9616 H   0  0  0  0  0  0  0  0  0  0  0  0
    4.4352    1.1752    1.2418 H   0  0  0  0  0  0  0  0  0  0  0  0
    5.7490    1.5828    0.0243 H   0  0  0  0  0  0  0  0  0  0  0  0
    5.6534   -0.5940   -0.9587 H   0  0  0  0  0  0  0  0  0  0  0  0
    4.3606   -1.1503    0.2321 H   0  0  0  0  0  0  0  0  0  0  0  0
    2.9139    0.7531   -0.6633 H   0  0  0  0  0  0  0  0  0  0  0  0
    4.2206    1.1219   -1.8359 H   0  0  0  0  0  0  0  0  0  0  0  0
    2.5629   -0.1801   -2.9352 H   0  0  0  0  0  0  0  0  0  0  0  0
    4.1027   -1.0491   -2.8259 H   0  0  0  0  0  0  0  0  0  0  0  0
    3.3560   -2.4480   -0.9779 H   0  0  0  0  0  0  0  0  0  0  0  0
    2.1279   -2.5467   -2.3057 H   0  0  0  0  0  0  0  0  0  0  0  0
    1.8414   -0.7729    0.1628 H   0  0  0  0  0  0  0  0  0  0  0  0
    1.0551   -2.3246   -0.1381 H   0  0  0  0  0  0  0  0  0  0  0  0
    0.0463   -1.4786   -2.2343 H   0  0  0  0  0  0  0  0  0  0  0  0
    0.8017    0.1220   -2.0644 H   0  0  0  0  0  0  0  0  0  0  0  0
   -2.0746   -2.0203   -0.7442 H   0  0  0  0  0  0  0  0  0  0  0  0
   -2.3798    1.8764    2.3859 H   0  0  0  0  0  0  0  0  0  0  0  0
   -2.2722    3.3302   -0.0829 H   0  0  0  0  0  0  0  0  0  0  0  0
   -4.5886    2.2977    2.2575 H   0  0  0  0  0  0  0  0  0  0  0  0
   -4.3966    3.8861    0.8253 H   0  0  0  0  0  0  0  0  0  0  0  0
   -5.2841    0.8085   -0.1584 H   0  0  0  0  0  0  0  0  0  0  0  0
   -6.0899    1.2387    2.2883 H   0  0  0  0  0  0  0  0  0  0  0  0
   -3.9340   -0.8075    1.9795 H   0  0  0  0  0  0  0  0  0  0  0  0
   -4.8306   -1.2589   -0.8876 H   0  0  0  0  0  0  0  0  0  0  0  0
   -5.6950   -1.6989    0.6627 H   0  0  0  0  0  0  0  0  0  0  0  0
   -3.7555   -3.0112    1.1125 H   0  0  0  0  0  0  0  0  0  0  0  0
  1  2  1  0
  2  3  1  0
  3  4  1  0
  4  5  1  0
  5  6  1  0
  6  7  1  0
  7  8  1  0
  8  9  1  0
  9 10  2  0
 10 11  1  0
 11 12  1  0
 12 13  2  0
 12 14  1  0
 14 15  1  0
 14 16  1  0
 16 17  1  0
 16 18  1  0
 18 19  1  0
 18 20  1  0
 20 21  1  0
 21 22  1  0
 13  9  1  0
 20 11  1  0
  1 23  1  0
  1 24  1  0
  1 25  1  0
  2 26  1  0
  2 27  1  0
  3 28  1  0
  3 29  1  0
  4 30  1  0
  4 31  1  0
  5 32  1  0
  5 33  1  0
  6 34  1  0
  6 35  1  0
  7 36  1  0
  7 37  1  0
  8 38  1  0
  8 39  1  0
 10 40  1  0
 14 41  1  0
 15 42  1  0
 16 43  1  0
 17 44  1  0
 18 45  1  0
 19 46  1  0
 20 47  1  0
 21 48  1  0
 21 49  1  0
 22 50  1  0
M  END
$$$$
