@<TRIPOS>MOLECULE
*****
 50 51 0 0 0
SMALL
GASTEIGER

@<TRIPOS>ATOM
      1 C           6.3212    0.1769    1.5246 C.3     1  UNL1       -0.0653
      2 C           5.2710    0.7911    0.6217 C.3     1  UNL1       -0.0559
      3 C           4.8028   -0.2941   -0.3261 C.3     1  UNL1       -0.0533
      4 C           3.7553    0.3094   -1.2304 C.3     1  UNL1       -0.0531
      5 C           3.2196   -0.7033   -2.2233 C.3     1  UNL1       -0.0530
      6 C           2.5886   -1.8694   -1.5290 C.3     1  UNL1       -0.0527
      7 C           1.4560   -1.4142   -0.6603 C.3     1  UNL1       -0.0476
      8 C           0.4116   -0.7422   -1.4897 C.3     1  UNL1       -0.0089
      9 C          -0.7490   -0.2765   -0.6838 C.ar    1  UNL1        0.0595
     10 C          -1.8865   -1.0142   -0.4084 C.ar    1  UNL1        0.0280
     11 N          -2.6942   -0.2740    0.3317 N.ar    1  UNL1       -0.3241
     12 C          -2.0852    0.9199    0.5285 C.ar    1  UNL1        0.1417
     13 N          -0.8952    0.9089   -0.0968 N.ar    1  UNL1       -0.2345
     14 C          -2.7187    1.9759    1.3145 C.3     1  UNL1        0.1409
     15 O          -2.2284    3.2094    0.8914 O.3     1  UNL1       -0.3814
     16 C          -4.2051    1.9993    1.2407 C.3     1  UNL1        0.1158
     17 O          -4.6074    3.0392    0.3896 O.3     1  UNL1       -0.3861
     18 C          -4.8599    0.7300    0.8644 C.3     1  UNL1        0.1067
     19 O          -5.9635    0.4483    1.7028 O.3     1  UNL1       -0.3870
     20 C          -3.9739   -0.4835    0.9097 C.3     1  UNL1        0.0871
     21 C          -4.6873   -1.5948    0.1744 C.3     1  UNL1        0.0675
     22 O          -4.0454   -2.8042    0.1993 O.3     1  UNL1       -0.3929
     23 H           6.4892    0.7981    2.4287 H       1  UNL1        0.0230
     24 H           6.0631   -0.8864    1.7936 H       1  UNL1        0.0230
     25 H           7.2957    0.1987    0.9616 H       1  UNL1        0.0230
     26 H           4.4352    1.1752    1.2418 H       1  UNL1        0.0263
     27 H           5.7490    1.5828    0.0243 H       1  UNL1        0.0263
     28 H           5.6534   -0.5940   -0.9587 H       1  UNL1        0.0265
     29 H           4.3606   -1.1503    0.2321 H       1  UNL1        0.0265
     30 H           2.9139    0.7531   -0.6633 H       1  UNL1        0.0265
     31 H           4.2206    1.1219   -1.8359 H       1  UNL1        0.0265
     32 H           2.5629   -0.1801   -2.9352 H       1  UNL1        0.0265
     33 H           4.1027   -1.0491   -2.8259 H       1  UNL1        0.0265
     34 H           3.3560   -2.4480   -0.9779 H       1  UNL1        0.0265
     35 H           2.1279   -2.5467   -2.3057 H       1  UNL1        0.0265
     36 H           1.8414   -0.7729    0.1628 H       1  UNL1        0.0269
     37 H           1.0551   -2.3246   -0.1381 H       1  UNL1        0.0269
     38 H           0.0463   -1.4786   -2.2343 H       1  UNL1        0.0329
     39 H           0.8017    0.1220   -2.0644 H       1  UNL1        0.0329
     40 H          -2.0746   -2.0203   -0.7442 H       1  UNL1        0.0828
     41 H          -2.3798    1.8764    2.3859 H       1  UNL1        0.0702
     42 H          -2.2722    3.3302   -0.0829 H       1  UNL1        0.2105
     43 H          -4.5886    2.2977    2.2575 H       1  UNL1        0.0650
     44 H          -4.3966    3.8861    0.8253 H       1  UNL1        0.2100
     45 H          -5.2841    0.8085   -0.1584 H       1  UNL1        0.0642
     46 H          -6.0899    1.2387    2.2883 H       1  UNL1        0.2100
     47 H          -3.9340   -0.8075    1.9795 H       1  UNL1        0.0577
     48 H          -4.8306   -1.2589   -0.8876 H       1  UNL1        0.0579
     49 H          -5.6950   -1.6989    0.6627 H       1  UNL1        0.0579
     50 H          -3.7555   -3.0112    1.1125 H       1  UNL1        0.2095
@<TRIPOS>BOND
     1     1     2    1
     2     2     3    1
     3     3     4    1
     4     4     5    1
     5     5     6    1
     6     6     7    1
     7     7     8    1
     8     8     9    1
     9     9    10   ar
    10    10    11   ar
    11    11    12   ar
    12    12    13   ar
    13    12    14    1
    14    14    15    1
    15    14    16    1
    16    16    17    1
    17    16    18    1
    18    18    19    1
    19    18    20    1
    20    20    21    1
    21    21    22    1
    22    13     9   ar
    23    20    11    1
    24     1    23    1
    25     1    24    1
    26     1    25    1
    27     2    26    1
    28     2    27    1
    29     3    28    1
    30     3    29    1
    31     4    30    1
    32     4    31    1
    33     5    32    1
    34     5    33    1
    35     6    34    1
    36     6    35    1
    37     7    36    1
    38     7    37    1
    39     8    38    1
    40     8    39    1
    41    10    40    1
    42    14    41    1
    43    15    42    1
    44    16    43    1
    45    17    44    1
    46    18    45    1
    47    19    46    1
    48    20    47    1
    49    21    48    1
    50    21    49    1
    51    22    50    1
