@<TRIPOS>MOLECULE
*****
 44 47 0 0 0
SMALL
GASTEIGER

@<TRIPOS>ATOM
      1 C           1.2762    2.9328    0.6861 C.3     1  UNL1       -0.0389
      2 C           0.1231    2.0453    0.3485 C.ar    1  UNL1       -0.0362
      3 C           0.2705    0.6890    0.0367 C.ar    1  UNL1        0.0499
      4 C           1.6443    0.2341    0.0736 C.ar    1  UNL1       -0.0117
      5 C           2.3431   -0.2888    1.1487 C.ar    1  UNL1       -0.0432
      6 C           3.6599   -0.6776    1.0132 C.ar    1  UNL1        0.0192
      7 C           4.2673   -0.5349   -0.2160 C.ar    1  UNL1        0.0761
      8 C           3.6093   -0.0160   -1.3244 C.ar    1  UNL1       -0.0350
      9 C           2.2771    0.3662   -1.1467 C.ar    1  UNL1       -0.0518
     10 N           5.5423   -0.9167   -0.3281 N.ar    1  UNL1       -0.2147
     11 C           6.2174   -1.4248    0.7210 C.ar    1  UNL1        0.2131
     12 N           7.5658   -1.7828    0.4370 N.pl3   1  UNL1       -0.3275
     13 N           5.6251   -1.5683    1.9354 N.ar    1  UNL1       -0.2225
     14 C           4.3256   -1.1928    2.0989 C.ar    1  UNL1        0.0404
     15 C          -0.8580   -0.0462   -0.2615 C.ar    1  UNL1        0.2637
     16 O          -0.6626   -1.2393   -0.5287 O.2     1  UNL1       -0.2667
     17 N          -2.0660    0.5302   -0.2513 N.ar    1  UNL1       -0.2837
     18 C          -2.2655    1.8299    0.0412 C.ar    1  UNL1        0.0135
     19 C          -1.1523    2.5867    0.3430 C.ar    1  UNL1       -0.0414
     20 C          -3.2230   -0.2394   -0.5609 C.ar    1  UNL1        0.0500
     21 C          -4.2780   -0.5543    0.2713 C.ar    1  UNL1       -0.0261
     22 C          -5.3277   -1.3185   -0.2000 C.ar    1  UNL1        0.0568
     23 C          -5.3480   -1.7878   -1.5189 C.ar    1  UNL1       -0.0500
     24 C          -4.2825   -1.4668   -2.3507 C.ar    1  UNL1       -0.0593
     25 C          -3.2364   -0.7022   -1.8726 C.ar    1  UNL1       -0.0377
     26 C          -6.4462   -1.6294    0.7485 C.3     1  UNL1        0.4175
     27 F          -7.5953   -1.8761    0.0346 F       1  UNL1       -0.1659
     28 F          -6.1266   -2.6073    1.6410 F       1  UNL1       -0.1659
     29 F          -6.6693   -0.4587    1.4820 F       1  UNL1       -0.1659
     30 H           2.1836    2.6503    0.1157 H       1  UNL1        0.0278
     31 H           1.4358    3.0281    1.7760 H       1  UNL1        0.0278
     32 H           1.0066    3.9463    0.3095 H       1  UNL1        0.0278
     33 H           1.7779   -0.3555    2.0529 H       1  UNL1        0.0631
     34 H           4.1282    0.0762   -2.2669 H       1  UNL1        0.0639
     35 H           1.8270    0.7655   -2.0657 H       1  UNL1        0.0624
     36 H           8.1534   -1.2100   -0.2091 H       1  UNL1        0.1452
     37 H           8.2352   -2.5359    0.7083 H       1  UNL1        0.1452
     38 H           3.8240   -1.2884    3.0334 H       1  UNL1        0.0837
     39 H          -3.2622    2.2548    0.0373 H       1  UNL1        0.0814
     40 H          -1.2866    3.6331    0.5813 H       1  UNL1        0.0635
     41 H          -4.1959   -0.1603    1.2710 H       1  UNL1        0.0644
     42 H          -6.2000   -2.3942   -1.8612 H       1  UNL1        0.0623
     43 H          -4.3493   -1.8572   -3.3658 H       1  UNL1        0.0618
     44 H          -2.4872   -0.5320   -2.6176 H       1  UNL1        0.0638
@<TRIPOS>BOND
     1     1     2    1
     2     2     3   ar
     3     3     4    1
     4     4     5   ar
     5     5     6   ar
     6     6     7   ar
     7     7     8   ar
     8     8     9   ar
     9     7    10   ar
    10    10    11   ar
    11    11    12    1
    12    11    13   ar
    13    13    14   ar
    14     3    15   ar
    15    15    16    2
    16    15    17   ar
    17    17    18   ar
    18    18    19   ar
    19    17    20    1
    20    20    21   ar
    21    21    22   ar
    22    22    23   ar
    23    23    24   ar
    24    24    25   ar
    25    22    26    1
    26    26    27    1
    27    26    28    1
    28    26    29    1
    29    19     2   ar
    30    25    20   ar
    31     9     4   ar
    32    14     6   ar
    33     1    30    1
    34     1    31    1
    35     1    32    1
    36     5    33    1
    37     8    34    1
    38     9    35    1
    39    12    36    1
    40    12    37    1
    41    14    38    1
    42    18    39    1
    43    19    40    1
    44    21    41    1
    45    23    42    1
    46    24    43    1
    47    25    44    1
