
     RDKit          3D

 44 47  0  0  0  0  0  0  0  0999 V2000
    1.2762    2.9328    0.6861 C   0  0  0  0  0  0  0  0  0  0  0  0
    0.1231    2.0453    0.3485 C   0  0  0  0  0  0  0  0  0  0  0  0
    0.2705    0.6890    0.0367 C   0  0  0  0  0  0  0  0  0  0  0  0
    1.6443    0.2341    0.0736 C   0  0  0  0  0  0  0  0  0  0  0  0
    2.3431   -0.2888    1.1487 C   0  0  0  0  0  0  0  0  0  0  0  0
    3.6599   -0.6776    1.0132 C   0  0  0  0  0  0  0  0  0  0  0  0
    4.2673   -0.5349   -0.2160 C   0  0  0  0  0  0  0  0  0  0  0  0
    3.6093   -0.0160   -1.3244 C   0  0  0  0  0  0  0  0  0  0  0  0
    2.2771    0.3662   -1.1467 C   0  0  0  0  0  0  0  0  0  0  0  0
    5.5423   -0.9167   -0.3281 N   0  0  0  0  0  0  0  0  0  0  0  0
    6.2174   -1.4248    0.7210 C   0  0  0  0  0  0  0  0  0  0  0  0
    7.5658   -1.7828    0.4370 N   0  0  0  0  0  0  0  0  0  0  0  0
    5.6251   -1.5683    1.9354 N   0  0  0  0  0  0  0  0  0  0  0  0
    4.3256   -1.1928    2.0989 C   0  0  0  0  0  0  0  0  0  0  0  0
   -0.8580   -0.0462   -0.2615 C   0  0  0  0  0  0  0  0  0  0  0  0
   -0.6626   -1.2393   -0.5287 O   0  0  0  0  0  0  0  0  0  0  0  0
   -2.0660    0.5302   -0.2513 N   0  0  0  0  0  0  0  0  0  0  0  0
   -2.2655    1.8299    0.0412 C   0  0  0  0  0  0  0  0  0  0  0  0
   -1.1523    2.5867    0.3430 C   0  0  0  0  0  0  0  0  0  0  0  0
   -3.2230   -0.2394   -0.5609 C   0  0  0  0  0  0  0  0  0  0  0  0
   -4.2780   -0.5543    0.2713 C   0  0  0  0  0  0  0  0  0  0  0  0
   -5.3277   -1.3185   -0.2000 C   0  0  0  0  0  0  0  0  0  0  0  0
   -5.3480   -1.7878   -1.5189 C   0  0  0  0  0  0  0  0  0  0  0  0
   -4.2825   -1.4668   -2.3507 C   0  0  0  0  0  0  0  0  0  0  0  0
   -3.2364   -0.7022   -1.8726 C   0  0  0  0  0  0  0  0  0  0  0  0
   -6.4462   -1.6294    0.7485 C   0  0  0  0  0  0  0  0  0  0  0  0
   -7.5953   -1.8761    0.0346 F   0  0  0  0  0  0  0  0  0  0  0  0
   -6.1266   -2.6073    1.6410 F   0  0  0  0  0  0  0  0  0  0  0  0
   -6.6693   -0.4587    1.4820 F   0  0  0  0  0  0  0  0  0  0  0  0
    2.1836    2.6503    0.1157 H   0  0  0  0  0  0  0  0  0  0  0  0
    1.4358    3.0281    1.7760 H   0  0  0  0  0  0  0  0  0  0  0  0
    1.0066    3.9463    0.3095 H   0  0  0  0  0  0  0  0  0  0  0  0
    1.7779   -0.3555    2.0529 H   0  0  0  0  0  0  0  0  0  0  0  0
    4.1282    0.0762   -2.2669 H   0  0  0  0  0  0  0  0  0  0  0  0
    1.8270    0.7655   -2.0657 H   0  0  0  0  0  0  0  0  0  0  0  0
    8.1534   -1.2100   -0.2091 H   0  0  0  0  0  0  0  0  0  0  0  0
    8.2352   -2.5359    0.7083 H   0  0  0  0  0  0  0  0  0  0  0  0
    3.8240   -1.2884    3.0334 H   0  0  0  0  0  0  0  0  0  0  0  0
   -3.2622    2.2548    0.0373 H   0  0  0  0  0  0  0  0  0  0  0  0
   -1.2866    3.6331    0.5813 H   0  0  0  0  0  0  0  0  0  0  0  0
   -4.1959   -0.1603    1.2710 H   0  0  0  0  0  0  0  0  0  0  0  0
   -6.2000   -2.3942   -1.8612 H   0  0  0  0  0  0  0  0  0  0  0  0
   -4.3493   -1.8572   -3.3658 H   0  0  0  0  0  0  0  0  0  0  0  0
   -2.4872   -0.5320   -2.6176 H   0  0  0  0  0  0  0  0  0  0  0  0
  1  2  1  0
  2  3  2  0
  3  4  1  0
  4  5  2  0
  5  6  1  0
  6  7  2  0
  7  8  1  0
  8  9  2  0
  7 10  1  0
 10 11  2  0
 11 12  1  0
 11 13  1  0
 13 14  2  0
  3 15  1  0
 15 16  2  0
 15 17  1  0
 17 18  1  0
 18 19  2  0
 17 20  1  0
 20 21  2  0
 21 22  1  0
 22 23  2  0
 23 24  1  0
 24 25  2  0
 22 26  1  0
 26 27  1  0
 26 28  1  0
 26 29  1  0
 19  2  1  0
 25 20  1  0
  9  4  1  0
 14  6  1  0
  1 30  1  0
  1 31  1  0
  1 32  1  0
  5 33  1  0
  8 34  1  0
  9 35  1  0
 12 36  1  0
 12 37  1  0
 14 38  1  0
 18 39  1  0
 19 40  1  0
 21 41  1  0
 23 42  1  0
 24 43  1  0
 25 44  1  0
M  END
$$$$
