
     RDKit          3D

 39 41  0  0  0  0  0  0  0  0999 V2000
    5.2412    0.2996    2.0419 C   0  0  0  0  0  0  0  0  0  0  0  0
    5.6302    1.0786    0.7945 C   0  0  0  0  0  0  0  0  0  0  0  0
    5.0162    0.3493   -0.3817 C   0  0  0  0  0  0  0  0  0  0  0  0
    3.5881    0.2712   -0.2947 N   0  0  0  0  0  0  0  0  0  0  0  0
    2.7552    1.4164   -0.2435 C   0  0  0  0  0  0  0  0  0  0  0  0
    3.2368    2.5627   -0.2724 O   0  0  0  0  0  0  0  0  0  0  0  0
    1.3121    1.2405   -0.1557 C   0  0  0  0  0  0  0  0  0  0  0  0
    0.3151    2.1720   -0.0946 C   0  0  0  0  0  0  0  0  0  0  0  0
   -0.9567    1.7167   -0.0172 C   0  0  0  0  0  0  0  0  0  0  0  0
   -1.2106    0.4312   -0.0022 C   0  0  0  0  0  0  0  0  0  0  0  0
   -2.4042   -0.3489    0.0702 N   0  0  0  0  0  0  0  0  0  0  0  0
   -2.9552   -0.8047    1.2206 C   0  0  0  0  0  0  0  0  0  0  0  0
   -2.4348   -0.5829    2.5693 C   0  0  0  0  0  0  0  0  0  0  0  0
   -4.0926   -1.5157    0.9115 C   0  0  0  0  0  0  0  0  0  0  0  0
   -4.2007   -1.4677   -0.4660 C   0  0  0  0  0  0  0  0  0  0  0  0
   -5.1358   -1.9983   -1.3483 C   0  0  0  0  0  0  0  0  0  0  0  0
   -4.9699   -1.7749   -2.6998 C   0  0  0  0  0  0  0  0  0  0  0  0
   -3.9085   -1.0440   -3.1990 C   0  0  0  0  0  0  0  0  0  0  0  0
   -2.9814   -0.5174   -2.3298 C   0  0  0  0  0  0  0  0  0  0  0  0
   -3.1264   -0.7276   -0.9743 C   0  0  0  0  0  0  0  0  0  0  0  0
    0.4194   -0.2677   -0.1018 S   0  0  0  0  0  0  0  0  0  0  0  0
    4.2027   -0.0482    1.9725 H   0  0  0  0  0  0  0  0  0  0  0  0
    5.3611    0.9162    2.9600 H   0  0  0  0  0  0  0  0  0  0  0  0
    5.8952   -0.5841    2.0943 H   0  0  0  0  0  0  0  0  0  0  0  0
    6.7292    1.0468    0.7241 H   0  0  0  0  0  0  0  0  0  0  0  0
    5.2997    2.1162    0.8650 H   0  0  0  0  0  0  0  0  0  0  0  0
    5.4559   -0.6446   -0.4772 H   0  0  0  0  0  0  0  0  0  0  0  0
    5.2707    0.9343   -1.2930 H   0  0  0  0  0  0  0  0  0  0  0  0
    3.1190   -0.6785   -0.2665 H   0  0  0  0  0  0  0  0  0  0  0  0
    0.6244    3.2535   -0.1130 H   0  0  0  0  0  0  0  0  0  0  0  0
   -1.7921    2.4592    0.0340 H   0  0  0  0  0  0  0  0  0  0  0  0
   -1.7048    0.2412    2.6419 H   0  0  0  0  0  0  0  0  0  0  0  0
   -1.9154   -1.4877    2.9754 H   0  0  0  0  0  0  0  0  0  0  0  0
   -3.2853   -0.3956    3.2813 H   0  0  0  0  0  0  0  0  0  0  0  0
   -4.7717   -2.0141    1.5895 H   0  0  0  0  0  0  0  0  0  0  0  0
   -5.9545   -2.5651   -0.9281 H   0  0  0  0  0  0  0  0  0  0  0  0
   -5.7204   -2.2046   -3.3644 H   0  0  0  0  0  0  0  0  0  0  0  0
   -3.8217   -0.8963   -4.2654 H   0  0  0  0  0  0  0  0  0  0  0  0
   -2.1294    0.0630   -2.6567 H   0  0  0  0  0  0  0  0  0  0  0  0
  1  2  1  0
  2  3  1  0
  3  4  1  0
  4  5  1  0
  5  6  2  0
  5  7  1  0
  7  8  2  0
  8  9  1  0
  9 10  2  0
 10 11  1  0
 11 12  1  0
 12 13  1  0
 12 14  2  0
 14 15  1  0
 15 16  2  0
 16 17  1  0
 17 18  2  0
 18 19  1  0
 19 20  2  0
 10 21  1  0
 21  7  1  0
 20 11  1  0
 20 15  1  0
  1 22  1  0
  1 23  1  0
  1 24  1  0
  2 25  1  0
  2 26  1  0
  3 27  1  0
  3 28  1  0
  4 29  1  0
  8 30  1  0
  9 31  1  0
 13 32  1  0
 13 33  1  0
 13 34  1  0
 14 35  1  0
 16 36  1  0
 17 37  1  0
 18 38  1  0
 19 39  1  0
M  END
$$$$
