@<TRIPOS>MOLECULE
*****
 39 41 0 0 0
SMALL
GASTEIGER

@<TRIPOS>ATOM
      1 C           5.2412    0.2996    2.0419 C.3     1  UNL1       -0.0639
      2 C           5.6302    1.0786    0.7945 C.3     1  UNL1       -0.0402
      3 C           5.0162    0.3493   -0.3817 C.3     1  UNL1        0.0117
      4 N           3.5881    0.2712   -0.2947 N.am    1  UNL1       -0.3109
      5 C           2.7552    1.4164   -0.2435 C.2     1  UNL1        0.2508
      6 O           3.2368    2.5627   -0.2724 O.2     1  UNL1       -0.2696
      7 C           1.3121    1.2405   -0.1557 C.ar    1  UNL1        0.0758
      8 C           0.3151    2.1720   -0.0946 C.ar    1  UNL1       -0.0405
      9 C          -0.9567    1.7167   -0.0172 C.ar    1  UNL1       -0.0297
     10 C          -1.2106    0.4312   -0.0022 C.ar    1  UNL1        0.0855
     11 N          -2.4042   -0.3489    0.0702 N.ar    1  UNL1       -0.3075
     12 C          -2.9552   -0.8047    1.2206 C.ar    1  UNL1        0.0223
     13 C          -2.4348   -0.5829    2.5693 C.3     1  UNL1       -0.0239
     14 C          -4.0926   -1.5157    0.9115 C.ar    1  UNL1       -0.0331
     15 C          -4.2007   -1.4677   -0.4660 C.ar    1  UNL1        0.0005
     16 C          -5.1358   -1.9983   -1.3483 C.ar    1  UNL1       -0.0526
     17 C          -4.9699   -1.7749   -2.6998 C.ar    1  UNL1       -0.0611
     18 C          -3.9085   -1.0440   -3.1990 C.ar    1  UNL1       -0.0598
     19 C          -2.9814   -0.5174   -2.3298 C.ar    1  UNL1       -0.0372
     20 C          -3.1264   -0.7276   -0.9743 C.ar    1  UNL1        0.0545
     21 S           0.4194   -0.2677   -0.1018 S.2     1  UNL1       -0.0661
     22 H           4.2027   -0.0482    1.9725 H       1  UNL1        0.0230
     23 H           5.3611    0.9162    2.9600 H       1  UNL1        0.0230
     24 H           5.8952   -0.5841    2.0943 H       1  UNL1        0.0230
     25 H           6.7292    1.0468    0.7241 H       1  UNL1        0.0278
     26 H           5.2997    2.1162    0.8650 H       1  UNL1        0.0278
     27 H           5.4559   -0.6446   -0.4772 H       1  UNL1        0.0462
     28 H           5.2707    0.9343   -1.2930 H       1  UNL1        0.0462
     29 H           3.1190   -0.6785   -0.2665 H       1  UNL1        0.1490
     30 H           0.6244    3.2535   -0.1130 H       1  UNL1        0.0631
     31 H          -1.7921    2.4592    0.0340 H       1  UNL1        0.0644
     32 H          -1.7048    0.2412    2.6419 H       1  UNL1        0.0292
     33 H          -1.9154   -1.4877    2.9754 H       1  UNL1        0.0292
     34 H          -3.2853   -0.3956    3.2813 H       1  UNL1        0.0292
     35 H          -4.7717   -2.0141    1.5895 H       1  UNL1        0.0641
     36 H          -5.9545   -2.5651   -0.9281 H       1  UNL1        0.0624
     37 H          -5.7204   -2.2046   -3.3644 H       1  UNL1        0.0618
     38 H          -3.8217   -0.8963   -4.2654 H       1  UNL1        0.0618
     39 H          -2.1294    0.0630   -2.6567 H       1  UNL1        0.0638
@<TRIPOS>BOND
     1     1     2    1
     2     2     3    1
     3     3     4    1
     4     4     5   am
     5     5     6    2
     6     5     7    1
     7     7     8   ar
     8     8     9   ar
     9     9    10   ar
    10    10    11    1
    11    11    12   ar
    12    12    13    1
    13    12    14   ar
    14    14    15   ar
    15    15    16   ar
    16    16    17   ar
    17    17    18   ar
    18    18    19   ar
    19    19    20   ar
    20    10    21   ar
    21    21     7   ar
    22    20    11   ar
    23    20    15   ar
    24     1    22    1
    25     1    23    1
    26     1    24    1
    27     2    25    1
    28     2    26    1
    29     3    27    1
    30     3    28    1
    31     4    29    1
    32     8    30    1
    33     9    31    1
    34    13    32    1
    35    13    33    1
    36    13    34    1
    37    14    35    1
    38    16    36    1
    39    17    37    1
    40    18    38    1
    41    19    39    1
