@<TRIPOS>MOLECULE
*****
 57 60 0 0 0
SMALL
GASTEIGER

@<TRIPOS>ATOM
      1 C           0.5761   -0.8515   -0.0511 C.3     1  UNL1       -0.0262
      2 C           1.3567   -2.0298    0.4063 C.3     1  UNL1       -0.0436
      3 C           2.7888   -1.5308    0.4159 C.3     1  UNL1       -0.0071
      4 C           3.6838   -2.3490   -0.4772 C.3     1  UNL1       -0.0594
      5 C           2.7179   -0.0719   -0.0574 C.3     1  UNL1        0.1340
      6 O           2.5925   -0.0746   -1.4589 O.3     1  UNL1       -0.3802
      7 C           3.8621    0.7097    0.4270 C.2     1  UNL1        0.1904
      8 O           4.5416    1.1333    1.3740 O.2     1  UNL1       -0.2919
      9 C           4.7187    1.3815   -0.6193 C.3     1  UNL1        0.1052
     10 O           5.7607    2.0862   -0.0603 O.3     1  UNL1       -0.3874
     11 C           1.3819    0.3144    0.4989 C.3     1  UNL1        0.0096
     12 C           1.3295    0.3046    1.9893 C.3     1  UNL1       -0.0562
     13 C           0.7962    1.5363   -0.1331 C.3     1  UNL1       -0.0151
     14 C          -0.6776    1.6598   -0.0898 C.3     1  UNL1        0.0910
     15 O          -1.0315    2.3385    1.0518 O.3     1  UNL1       -0.3886
     16 C          -1.4243    0.3945   -0.3524 C.3     1  UNL1        0.1528
     17 F          -1.1540    0.0281   -1.6590 F       1  UNL1       -0.2377
     18 C          -0.8035   -0.7076    0.5115 C.3     1  UNL1        0.0029
     19 C          -1.6213   -1.9514    0.4383 C.3     1  UNL1       -0.0117
     20 C          -3.0052   -1.5797    0.9318 C.3     1  UNL1        0.1237
     21 F          -3.6733   -2.7662    1.1468 F       1  UNL1       -0.2407
     22 C          -3.6140   -0.7675   -0.1410 C.2     1  UNL1       -0.0198
     23 C          -4.6150   -1.1869   -0.8997 C.2     1  UNL1       -0.0121
     24 C          -5.0751   -0.2340   -1.9058 C.2     1  UNL1        0.1788
     25 O          -6.0083   -0.5515   -2.6553 O.2     1  UNL1       -0.2879
     26 C          -4.4610    1.0817   -2.0478 C.2     1  UNL1       -0.0179
     27 C          -3.4770    1.3587   -1.2236 C.2     1  UNL1       -0.0674
     28 C          -2.8958    0.5079   -0.1536 C.3     1  UNL1        0.0469
     29 C          -3.2524    1.2136    1.1509 C.3     1  UNL1       -0.0492
     30 H           0.5621   -0.7638   -1.1490 H       1  UNL1        0.0311
     31 H           1.3079   -2.8054   -0.3918 H       1  UNL1        0.0272
     32 H           1.0454   -2.4342    1.3813 H       1  UNL1        0.0272
     33 H           3.1886   -1.5034    1.4388 H       1  UNL1        0.0330
     34 H           3.9293   -3.2855    0.0321 H       1  UNL1        0.0233
     35 H           4.6041   -1.7918   -0.7000 H       1  UNL1        0.0233
     36 H           3.1709   -2.5866   -1.4311 H       1  UNL1        0.0233
     37 H           3.4312   -0.3477   -1.9024 H       1  UNL1        0.2108
     38 H           5.1112    0.6802   -1.3619 H       1  UNL1        0.0637
     39 H           4.1058    2.1280   -1.1976 H       1  UNL1        0.0637
     40 H           5.4691    2.9248    0.3409 H       1  UNL1        0.2100
     41 H           2.2776    0.6666    2.4625 H       1  UNL1        0.0236
     42 H           1.1200   -0.6636    2.4584 H       1  UNL1        0.0236
     43 H           0.5547    1.0181    2.3830 H       1  UNL1        0.0236
     44 H           1.2374    2.4252    0.3688 H       1  UNL1        0.0297
     45 H           1.1950    1.5740   -1.1824 H       1  UNL1        0.0297
     46 H          -0.9486    2.3500   -0.9443 H       1  UNL1        0.0626
     47 H          -0.9689    3.3061    1.0084 H       1  UNL1        0.2099
     48 H          -0.8279   -0.3381    1.5551 H       1  UNL1        0.0336
     49 H          -1.1731   -2.7547    1.0191 H       1  UNL1        0.0300
     50 H          -1.6928   -2.2257   -0.6479 H       1  UNL1        0.0300
     51 H          -2.9196   -1.0880    1.9024 H       1  UNL1        0.0699
     52 H          -5.0254   -2.1728   -0.7438 H       1  UNL1        0.0656
     53 H          -4.7807    1.8069   -2.7836 H       1  UNL1        0.0653
     54 H          -3.0006    2.3393   -1.3112 H       1  UNL1        0.0583
     55 H          -4.2959    0.9010    1.4524 H       1  UNL1        0.0242
     56 H          -2.6274    0.9241    1.9968 H       1  UNL1        0.0242
     57 H          -3.3671    2.3211    1.0109 H       1  UNL1        0.0242
@<TRIPOS>BOND
     1     1     2    1
     2     2     3    1
     3     3     4    1
     4     3     5    1
     5     5     6    1
     6     5     7    1
     7     7     8    2
     8     7     9    1
     9     9    10    1
    10     5    11    1
    11    11    12    1
    12    11    13    1
    13    13    14    1
    14    14    15    1
    15    14    16    1
    16    16    17    1
    17    16    18    1
    18    18    19    1
    19    19    20    1
    20    20    21    1
    21    20    22    1
    22    22    23    2
    23    23    24    1
    24    24    25    2
    25    24    26    1
    26    26    27    2
    27    27    28    1
    28    28    29    1
    29    11     1    1
    30    28    16    1
    31    18     1    1
    32    28    22    1
    33     1    30    1
    34     2    31    1
    35     2    32    1
    36     3    33    1
    37     4    34    1
    38     4    35    1
    39     4    36    1
    40     6    37    1
    41     9    38    1
    42     9    39    1
    43    10    40    1
    44    12    41    1
    45    12    42    1
    46    12    43    1
    47    13    44    1
    48    13    45    1
    49    14    46    1
    50    15    47    1
    51    18    48    1
    52    19    49    1
    53    19    50    1
    54    20    51    1
    55    23    52    1
    56    26    53    1
    57    27    54    1
    58    29    55    1
    59    29    56    1
    60    29    57    1
