
     RDKit          3D

 57 60  0  0  0  0  0  0  0  0999 V2000
    0.5761   -0.8515   -0.0511 C   0  0  2  0  0  0  0  0  0  0  0  0
    1.3567   -2.0298    0.4063 C   0  0  0  0  0  0  0  0  0  0  0  0
    2.7888   -1.5308    0.4159 C   0  0  1  0  0  0  0  0  0  0  0  0
    3.6838   -2.3490   -0.4772 C   0  0  0  0  0  0  0  0  0  0  0  0
    2.7179   -0.0719   -0.0574 C   0  0  2  0  0  0  0  0  0  0  0  0
    2.5925   -0.0746   -1.4589 O   0  0  0  0  0  0  0  0  0  0  0  0
    3.8621    0.7097    0.4270 C   0  0  0  0  0  0  0  0  0  0  0  0
    4.5416    1.1333    1.3740 O   0  0  0  0  0  0  0  0  0  0  0  0
    4.7187    1.3815   -0.6193 C   0  0  0  0  0  0  0  0  0  0  0  0
    5.7607    2.0862   -0.0603 O   0  0  0  0  0  0  0  0  0  0  0  0
    1.3819    0.3144    0.4989 C   0  0  2  0  0  0  0  0  0  0  0  0
    1.3295    0.3046    1.9893 C   0  0  0  0  0  0  0  0  0  0  0  0
    0.7962    1.5363   -0.1331 C   0  0  0  0  0  0  0  0  0  0  0  0
   -0.6776    1.6598   -0.0898 C   0  0  2  0  0  0  0  0  0  0  0  0
   -1.0315    2.3385    1.0518 O   0  0  0  0  0  0  0  0  0  0  0  0
   -1.4243    0.3945   -0.3524 C   0  0  1  0  0  0  0  0  0  0  0  0
   -1.1540    0.0281   -1.6590 F   0  0  0  0  0  0  0  0  0  0  0  0
   -0.8035   -0.7076    0.5115 C   0  0  1  0  0  0  0  0  0  0  0  0
   -1.6213   -1.9514    0.4383 C   0  0  0  0  0  0  0  0  0  0  0  0
   -3.0052   -1.5797    0.9318 C   0  0  2  0  0  0  0  0  0  0  0  0
   -3.6733   -2.7662    1.1468 F   0  0  0  0  0  0  0  0  0  0  0  0
   -3.6140   -0.7675   -0.1410 C   0  0  0  0  0  0  0  0  0  0  0  0
   -4.6150   -1.1869   -0.8997 C   0  0  0  0  0  0  0  0  0  0  0  0
   -5.0751   -0.2340   -1.9058 C   0  0  0  0  0  0  0  0  0  0  0  0
   -6.0083   -0.5515   -2.6553 O   0  0  0  0  0  0  0  0  0  0  0  0
   -4.4610    1.0817   -2.0478 C   0  0  0  0  0  0  0  0  0  0  0  0
   -3.4770    1.3587   -1.2236 C   0  0  0  0  0  0  0  0  0  0  0  0
   -2.8958    0.5079   -0.1536 C   0  0  2  0  0  0  0  0  0  0  0  0
   -3.2524    1.2136    1.1509 C   0  0  0  0  0  0  0  0  0  0  0  0
    0.5621   -0.7638   -1.1490 H   0  0  0  0  0  0  0  0  0  0  0  0
    1.3079   -2.8054   -0.3918 H   0  0  0  0  0  0  0  0  0  0  0  0
    1.0454   -2.4342    1.3813 H   0  0  0  0  0  0  0  0  0  0  0  0
    3.1886   -1.5034    1.4388 H   0  0  0  0  0  0  0  0  0  0  0  0
    3.9293   -3.2855    0.0321 H   0  0  0  0  0  0  0  0  0  0  0  0
    4.6041   -1.7918   -0.7000 H   0  0  0  0  0  0  0  0  0  0  0  0
    3.1709   -2.5866   -1.4311 H   0  0  0  0  0  0  0  0  0  0  0  0
    3.4312   -0.3477   -1.9024 H   0  0  0  0  0  0  0  0  0  0  0  0
    5.1112    0.6802   -1.3619 H   0  0  0  0  0  0  0  0  0  0  0  0
    4.1058    2.1280   -1.1976 H   0  0  0  0  0  0  0  0  0  0  0  0
    5.4691    2.9248    0.3409 H   0  0  0  0  0  0  0  0  0  0  0  0
    2.2776    0.6666    2.4625 H   0  0  0  0  0  0  0  0  0  0  0  0
    1.1200   -0.6636    2.4584 H   0  0  0  0  0  0  0  0  0  0  0  0
    0.5547    1.0181    2.3830 H   0  0  0  0  0  0  0  0  0  0  0  0
    1.2374    2.4252    0.3688 H   0  0  0  0  0  0  0  0  0  0  0  0
    1.1950    1.5740   -1.1824 H   0  0  0  0  0  0  0  0  0  0  0  0
   -0.9486    2.3500   -0.9443 H   0  0  0  0  0  0  0  0  0  0  0  0
   -0.9689    3.3061    1.0084 H   0  0  0  0  0  0  0  0  0  0  0  0
   -0.8279   -0.3381    1.5551 H   0  0  0  0  0  0  0  0  0  0  0  0
   -1.1731   -2.7547    1.0191 H   0  0  0  0  0  0  0  0  0  0  0  0
   -1.6928   -2.2257   -0.6479 H   0  0  0  0  0  0  0  0  0  0  0  0
   -2.9196   -1.0880    1.9024 H   0  0  0  0  0  0  0  0  0  0  0  0
   -5.0254   -2.1728   -0.7438 H   0  0  0  0  0  0  0  0  0  0  0  0
   -4.7807    1.8069   -2.7836 H   0  0  0  0  0  0  0  0  0  0  0  0
   -3.0006    2.3393   -1.3112 H   0  0  0  0  0  0  0  0  0  0  0  0
   -4.2959    0.9010    1.4524 H   0  0  0  0  0  0  0  0  0  0  0  0
   -2.6274    0.9241    1.9968 H   0  0  0  0  0  0  0  0  0  0  0  0
   -3.3671    2.3211    1.0109 H   0  0  0  0  0  0  0  0  0  0  0  0
  1  2  1  0
  2  3  1  0
  3  4  1  0
  3  5  1  0
  5  6  1  6
  5  7  1  0
  7  8  2  0
  7  9  1  0
  9 10  1  0
  5 11  1  0
 11 12  1  1
 11 13  1  0
 13 14  1  0
 14 15  1  0
 14 16  1  0
 16 17  1  6
 16 18  1  0
 18 19  1  0
 19 20  1  0
 20 21  1  0
 20 22  1  0
 22 23  2  0
 23 24  1  0
 24 25  2  0
 24 26  1  0
 26 27  2  0
 27 28  1  0
 28 29  1  1
 11  1  1  0
 28 16  1  0
 18  1  1  0
 28 22  1  0
  1 30  1  6
  2 31  1  0
  2 32  1  0
  3 33  1  1
  4 34  1  0
  4 35  1  0
  4 36  1  0
  6 37  1  0
  9 38  1  0
  9 39  1  0
 10 40  1  0
 12 41  1  0
 12 42  1  0
 12 43  1  0
 13 44  1  0
 13 45  1  0
 14 46  1  6
 15 47  1  0
 18 48  1  1
 19 49  1  0
 19 50  1  0
 20 51  1  1
 23 52  1  0
 26 53  1  0
 27 54  1  0
 29 55  1  0
 29 56  1  0
 29 57  1  0
M  END
$$$$
