@<TRIPOS>MOLECULE
*****
 53 57 0 0 0
SMALL
GASTEIGER

@<TRIPOS>ATOM
      1 C           3.5109   -2.6632    0.7672 C.3     1  UNL1       -0.0389
      2 C           2.1427   -2.0800    0.6730 C.ar    1  UNL1       -0.0362
      3 C           1.8707   -0.7434    0.3875 C.ar    1  UNL1        0.0499
      4 C           0.5699   -0.2885    0.3197 C.ar    1  UNL1        0.2637
      5 O           0.4138    0.9316    0.0569 O.2     1  UNL1       -0.2667
      6 N          -0.4636   -1.1230    0.5272 N.ar    1  UNL1       -0.2836
      7 C          -0.1709   -2.4072    0.8007 C.ar    1  UNL1        0.0135
      8 C           1.0801   -2.9621    0.8915 C.ar    1  UNL1       -0.0414
      9 C          -1.8015   -0.6457    0.4554 C.ar    1  UNL1        0.0512
     10 C          -2.5756   -1.0353    1.5451 C.ar    1  UNL1       -0.0374
     11 C          -3.9129   -0.6245    1.5860 C.ar    1  UNL1       -0.0543
     12 C          -4.4926    0.1534    0.5846 C.ar    1  UNL1       -0.0193
     13 C          -3.6806    0.5145   -0.4776 C.ar    1  UNL1        0.0329
     14 N          -4.4839    1.2931   -1.3567 N.pl3   1  UNL1       -0.3427
     15 C          -5.6341    1.7836   -0.6204 C.3     1  UNL1        0.0183
     16 C          -5.8543    0.7057    0.3986 C.3     1  UNL1        0.0073
     17 C          -6.4300    1.2417    1.6913 C.3     1  UNL1       -0.0543
     18 C          -6.7440   -0.3574   -0.1815 C.3     1  UNL1       -0.0543
     19 C          -2.3593    0.1235   -0.5434 C.ar    1  UNL1       -0.0166
     20 C           3.0707    0.0502    0.1849 C.ar    1  UNL1       -0.0117
     21 C           3.5401    0.1145   -1.1151 C.ar    1  UNL1       -0.0432
     22 C           4.6908    0.8566   -1.4032 C.ar    1  UNL1        0.0192
     23 C           5.1832    0.9354   -2.7107 C.ar    1  UNL1        0.0404
     24 N           6.3061    1.6642   -2.9689 N.ar    1  UNL1       -0.2225
     25 C           6.9321    2.3022   -1.9635 C.ar    1  UNL1        0.2131
     26 N           8.0868    3.0215   -2.3786 N.pl3   1  UNL1       -0.3275
     27 N           6.4800    2.2448   -0.6885 N.ar    1  UNL1       -0.2147
     28 C           5.3584    1.5245   -0.3927 C.ar    1  UNL1        0.0761
     29 C           4.8980    1.4658    0.9044 C.ar    1  UNL1       -0.0350
     30 C           3.7481    0.7266    1.2040 C.ar    1  UNL1       -0.0518
     31 H           3.6373   -3.2446    1.7041 H       1  UNL1        0.0278
     32 H           3.5930   -3.4294   -0.0488 H       1  UNL1        0.0278
     33 H           4.2993   -1.9051    0.7492 H       1  UNL1        0.0278
     34 H          -1.0537   -3.0430    0.9611 H       1  UNL1        0.0814
     35 H           1.1851   -3.9972    1.1152 H       1  UNL1        0.0635
     36 H          -2.2631   -1.6373    2.3952 H       1  UNL1        0.0638
     37 H          -4.5595   -0.8985    2.4088 H       1  UNL1        0.0622
     38 H          -4.2210    1.4451   -2.3692 H       1  UNL1        0.1461
     39 H          -5.3287    2.7310   -0.0872 H       1  UNL1        0.0470
     40 H          -6.5170    1.9564   -1.2654 H       1  UNL1        0.0470
     41 H          -7.5279    1.1848    1.5916 H       1  UNL1        0.0239
     42 H          -6.1421    0.5555    2.4929 H       1  UNL1        0.0239
     43 H          -6.1042    2.2887    1.8250 H       1  UNL1        0.0239
     44 H          -7.7407    0.0826   -0.3811 H       1  UNL1        0.0239
     45 H          -6.8462   -1.2406    0.4580 H       1  UNL1        0.0239
     46 H          -6.3208   -0.6911   -1.1492 H       1  UNL1        0.0239
     47 H          -1.6940    0.3848   -1.3551 H       1  UNL1        0.0657
     48 H           3.0438   -0.3936   -1.9240 H       1  UNL1        0.0631
     49 H           4.6030    0.3851   -3.4391 H       1  UNL1        0.0837
     50 H           8.9265    2.6668   -1.8377 H       1  UNL1        0.1452
     51 H           8.9889    2.7675   -1.9195 H       1  UNL1        0.1452
     52 H           5.4172    1.9857    1.6923 H       1  UNL1        0.0639
     53 H           3.3459    0.6488    2.2054 H       1  UNL1        0.0624
@<TRIPOS>BOND
     1     1     2    1
     2     2     3   ar
     3     3     4   ar
     4     4     5    2
     5     4     6   ar
     6     6     7   ar
     7     7     8   ar
     8     6     9    1
     9     9    10   ar
    10    10    11   ar
    11    11    12   ar
    12    12    13   ar
    13    13    14    1
    14    14    15    1
    15    15    16    1
    16    16    17    1
    17    16    18    1
    18    13    19   ar
    19     3    20    1
    20    20    21   ar
    21    21    22   ar
    22    22    23   ar
    23    23    24   ar
    24    24    25   ar
    25    25    26    1
    26    25    27   ar
    27    27    28   ar
    28    28    29   ar
    29    29    30   ar
    30     8     2   ar
    31    19     9   ar
    32    30    20   ar
    33    16    12    1
    34    28    22   ar
    35     1    31    1
    36     1    32    1
    37     1    33    1
    38     7    34    1
    39     8    35    1
    40    10    36    1
    41    11    37    1
    42    14    38    1
    43    15    39    1
    44    15    40    1
    45    17    41    1
    46    17    42    1
    47    17    43    1
    48    18    44    1
    49    18    45    1
    50    18    46    1
    51    19    47    1
    52    21    48    1
    53    23    49    1
    54    26    50    1
    55    26    51    1
    56    29    52    1
    57    30    53    1
