
     RDKit          3D

 64 68  0  0  0  0  0  0  0  0999 V2000
    8.5482   -1.1431    0.2877 C   0  0  0  0  0  0  0  0  0  0  0  0
    7.7805   -2.0726   -0.5841 C   0  0  0  0  0  0  0  0  0  0  0  0
    8.1769   -2.2117   -1.7754 O   0  0  0  0  0  0  0  0  0  0  0  0
    6.6542   -2.7870   -0.1392 N   0  0  0  0  0  0  0  0  0  0  0  0
    6.1428   -2.6837    1.2050 C   0  0  0  0  0  0  0  0  0  0  0  0
    4.7274   -2.2135    1.1255 C   0  0  0  0  0  0  0  0  0  0  0  0
    4.1210   -2.2722   -0.1668 N   0  0  0  0  0  0  0  0  0  0  0  0
    2.9148   -1.4988   -0.3606 C   0  0  0  0  0  0  0  0  0  0  0  0
    2.3374   -1.3731   -1.5940 C   0  0  0  0  0  0  0  0  0  0  0  0
    1.1800   -0.6469   -1.8252 C   0  0  0  0  0  0  0  0  0  0  0  0
    0.5706   -0.0139   -0.7617 C   0  0  0  0  0  0  0  0  0  0  0  0
   -0.5717    0.7271   -0.8764 O   0  0  0  0  0  0  0  0  0  0  0  0
   -1.2831    0.9667   -2.0321 C   0  0  0  0  0  0  0  0  0  0  0  0
   -2.5186    1.8167   -1.9021 C   0  0  2  0  0  0  0  0  0  0  0  0
   -2.0961    3.0491   -1.0897 C   0  0  0  0  0  0  0  0  0  0  0  0
   -3.3435    3.4433   -0.6158 O   0  0  0  0  0  0  0  0  0  0  0  0
   -3.8420    2.2158   -0.0997 C   0  0  1  0  0  0  0  0  0  0  0  0
   -3.2691    1.7199    1.1429 C   0  0  0  0  0  0  0  0  0  0  0  0
   -3.6839    0.4134    1.6055 N   0  0  0  0  0  0  0  0  0  0  0  0
   -4.6318    0.0648    2.4545 C   0  0  0  0  0  0  0  0  0  0  0  0
   -4.6891   -1.3227    2.5793 C   0  0  0  0  0  0  0  0  0  0  0  0
   -3.7168   -1.7799    1.7532 N   0  0  0  0  0  0  0  0  0  0  0  0
   -3.1058   -0.7679    1.1641 C   0  0  0  0  0  0  0  0  0  0  0  0
   -5.3163    2.4866    0.0198 C   0  0  0  0  0  0  0  0  0  0  0  0
   -5.8850    2.7273    1.2589 C   0  0  0  0  0  0  0  0  0  0  0  0
   -7.1934    3.1296    1.4663 C   0  0  0  0  0  0  0  0  0  0  0  0
   -7.9536    3.2938    0.3274 C   0  0  0  0  0  0  0  0  0  0  0  0
   -9.6354    3.8077    0.5291 Cl  0  0  0  0  0  0  0  0  0  0  0  0
   -7.4419    3.0727   -0.9106 C   0  0  0  0  0  0  0  0  0  0  0  0
   -6.1286    2.6702   -1.0658 C   0  0  0  0  0  0  0  0  0  0  0  0
   -5.5649    2.3779   -2.7322 Cl  0  0  0  0  0  0  0  0  0  0  0  0
   -3.5232    1.3069   -1.1146 O   0  0  0  0  0  0  0  0  0  0  0  0
    1.1530   -0.1410    0.4837 C   0  0  0  0  0  0  0  0  0  0  0  0
    2.3033   -0.8675    0.6891 C   0  0  0  0  0  0  0  0  0  0  0  0
    4.6008   -3.0417   -1.2924 C   0  0  0  0  0  0  0  0  0  0  0  0
    5.9440   -3.6724   -1.0307 C   0  0  0  0  0  0  0  0  0  0  0  0
    7.8446   -0.3431    0.6500 H   0  0  0  0  0  0  0  0  0  0  0  0
    9.0167   -1.6283    1.1519 H   0  0  0  0  0  0  0  0  0  0  0  0
    9.3564   -0.6662   -0.2942 H   0  0  0  0  0  0  0  0  0  0  0  0
    6.7465   -2.0300    1.8477 H   0  0  0  0  0  0  0  0  0  0  0  0
    6.2039   -3.7128    1.6329 H   0  0  0  0  0  0  0  0  0  0  0  0
    4.1418   -2.8442    1.8578 H   0  0  0  0  0  0  0  0  0  0  0  0
    4.7100   -1.1774    1.5590 H   0  0  0  0  0  0  0  0  0  0  0  0
    2.8242   -1.8774   -2.4330 H   0  0  0  0  0  0  0  0  0  0  0  0
    0.7576   -0.5748   -2.8180 H   0  0  0  0  0  0  0  0  0  0  0  0
   -1.6615   -0.0403   -2.3897 H   0  0  0  0  0  0  0  0  0  0  0  0
   -0.6355    1.3023   -2.8729 H   0  0  0  0  0  0  0  0  0  0  0  0
   -2.8426    2.1511   -2.9249 H   0  0  0  0  0  0  0  0  0  0  0  0
   -1.7154    3.7659   -1.8674 H   0  0  0  0  0  0  0  0  0  0  0  0
   -1.3488    2.8327   -0.3345 H   0  0  0  0  0  0  0  0  0  0  0  0
   -2.1426    1.6279    1.0353 H   0  0  0  0  0  0  0  0  0  0  0  0
   -3.4103    2.4234    2.0281 H   0  0  0  0  0  0  0  0  0  0  0  0
   -5.3350    0.6601    3.0608 H   0  0  0  0  0  0  0  0  0  0  0  0
   -5.3653   -1.8755    3.1996 H   0  0  0  0  0  0  0  0  0  0  0  0
   -2.3109   -0.7895    0.4708 H   0  0  0  0  0  0  0  0  0  0  0  0
   -5.3097    2.6786    2.1765 H   0  0  0  0  0  0  0  0  0  0  0  0
   -7.5998    3.3049    2.4559 H   0  0  0  0  0  0  0  0  0  0  0  0
   -8.0531    3.2050   -1.7977 H   0  0  0  0  0  0  0  0  0  0  0  0
    0.6912    0.3459    1.3254 H   0  0  0  0  0  0  0  0  0  0  0  0
    2.7149   -0.9303    1.7110 H   0  0  0  0  0  0  0  0  0  0  0  0
    3.8359   -3.8089   -1.5436 H   0  0  0  0  0  0  0  0  0  0  0  0
    4.7683   -2.3362   -2.1593 H   0  0  0  0  0  0  0  0  0  0  0  0
    5.8748   -4.6575   -0.5222 H   0  0  0  0  0  0  0  0  0  0  0  0
    6.4829   -3.7854   -1.9945 H   0  0  0  0  0  0  0  0  0  0  0  0
  1  2  1  0
  2  3  2  0
  2  4  1  0
  4  5  1  0
  5  6  1  0
  6  7  1  0
  7  8  1  0
  8  9  2  0
  9 10  1  0
 10 11  2  0
 11 12  1  0
 12 13  1  0
 13 14  1  0
 14 15  1  0
 15 16  1  0
 16 17  1  0
 17 18  1  1
 18 19  1  0
 19 20  1  0
 20 21  2  0
 21 22  1  0
 22 23  2  0
 17 24  1  0
 24 25  2  0
 25 26  1  0
 26 27  2  0
 27 28  1  0
 27 29  1  0
 29 30  2  0
 30 31  1  0
 17 32  1  0
 11 33  1  0
 33 34  2  0
  7 35  1  0
 35 36  1  0
 36  4  1  0
 34  8  1  0
 32 14  1  0
 23 19  1  0
 30 24  1  0
  1 37  1  0
  1 38  1  0
  1 39  1  0
  5 40  1  0
  5 41  1  0
  6 42  1  0
  6 43  1  0
  9 44  1  0
 10 45  1  0
 13 46  1  0
 13 47  1  0
 14 48  1  6
 15 49  1  0
 15 50  1  0
 18 51  1  0
 18 52  1  0
 20 53  1  0
 21 54  1  0
 23 55  1  0
 25 56  1  0
 26 57  1  0
 29 58  1  0
 33 59  1  0
 34 60  1  0
 35 61  1  0
 35 62  1  0
 36 63  1  0
 36 64  1  0
M  END
$$$$
