@<TRIPOS>MOLECULE
*****
 64 68 0 0 0
SMALL
GASTEIGER

@<TRIPOS>ATOM
      1 C           8.5482   -1.1431    0.2877 C.3     1  UNL1        0.0124
      2 C           7.7805   -2.0726   -0.5841 C.2     1  UNL1        0.2126
      3 O           8.1769   -2.2117   -1.7754 O.2     1  UNL1       -0.2759
      4 N           6.6542   -2.7870   -0.1392 N.am    1  UNL1       -0.2987
      5 C           6.1428   -2.6837    1.2050 C.3     1  UNL1        0.0304
      6 C           4.7274   -2.2135    1.1255 C.3     1  UNL1        0.0280
      7 N           4.1210   -2.2722   -0.1668 N.pl3   1  UNL1       -0.3269
      8 C           2.9148   -1.4988   -0.3606 C.ar    1  UNL1        0.0300
      9 C           2.3374   -1.3731   -1.5940 C.ar    1  UNL1       -0.0372
     10 C           1.1800   -0.6469   -1.8252 C.ar    1  UNL1       -0.0182
     11 C           0.5706   -0.0139   -0.7617 C.ar    1  UNL1        0.1207
     12 O          -0.5717    0.7271   -0.8764 O.3     1  UNL1       -0.4893
     13 C          -1.2831    0.9667   -2.0321 C.3     1  UNL1        0.1179
     14 C          -2.5186    1.8167   -1.9021 C.3     1  UNL1        0.1195
     15 C          -2.0961    3.0491   -1.0897 C.3     1  UNL1        0.0808
     16 O          -3.3435    3.4433   -0.6158 O.3     1  UNL1       -0.3406
     17 C          -3.8420    2.2158   -0.0997 C.3     1  UNL1        0.2169
     18 C          -3.2691    1.7199    1.1429 C.3     1  UNL1        0.0828
     19 N          -3.6839    0.4134    1.6055 N.ar    1  UNL1       -0.3313
     20 C          -4.6318    0.0648    2.4545 C.ar    1  UNL1        0.0242
     21 C          -4.6891   -1.3227    2.5793 C.ar    1  UNL1        0.0454
     22 N          -3.7168   -1.7799    1.7532 N.ar    1  UNL1       -0.2441
     23 C          -3.1058   -0.7679    1.1641 C.ar    1  UNL1        0.0961
     24 C          -5.3163    2.4866    0.0198 C.ar    1  UNL1        0.0313
     25 C          -5.8850    2.7273    1.2589 C.ar    1  UNL1       -0.0507
     26 C          -7.1934    3.1296    1.4663 C.ar    1  UNL1       -0.0429
     27 C          -7.9536    3.2938    0.3274 C.ar    1  UNL1        0.0424
     28 CL         -9.6354    3.8077    0.5291 Cl      1  UNL1       -0.0835
     29 C          -7.4419    3.0727   -0.9106 C.ar    1  UNL1       -0.0246
     30 C          -6.1286    2.6702   -1.0658 C.ar    1  UNL1        0.0507
     31 CL         -5.5649    2.3779   -2.7322 Cl      1  UNL1       -0.0830
     32 O          -3.5232    1.3069   -1.1146 O.3     1  UNL1       -0.3343
     33 C           1.1530   -0.1410    0.4837 C.ar    1  UNL1       -0.0182
     34 C           2.3033   -0.8675    0.6891 C.ar    1  UNL1       -0.0372
     35 C           4.6008   -3.0417   -1.2924 C.3     1  UNL1        0.0280
     36 C           5.9440   -3.6724   -1.0307 C.3     1  UNL1        0.0304
     37 H           7.8446   -0.3431    0.6500 H       1  UNL1        0.0323
     38 H           9.0167   -1.6283    1.1519 H       1  UNL1        0.0323
     39 H           9.3564   -0.6662   -0.2942 H       1  UNL1        0.0323
     40 H           6.7465   -2.0300    1.8477 H       1  UNL1        0.0480
     41 H           6.2039   -3.7128    1.6329 H       1  UNL1        0.0480
     42 H           4.1418   -2.8442    1.8578 H       1  UNL1        0.0479
     43 H           4.7100   -1.1774    1.5590 H       1  UNL1        0.0479
     44 H           2.8242   -1.8774   -2.4330 H       1  UNL1        0.0637
     45 H           0.7576   -0.5748   -2.8180 H       1  UNL1        0.0655
     46 H          -1.6615   -0.0403   -2.3897 H       1  UNL1        0.0723
     47 H          -0.6355    1.3023   -2.8729 H       1  UNL1        0.0723
     48 H          -2.8426    2.1511   -2.9249 H       1  UNL1        0.0654
     49 H          -1.7154    3.7659   -1.8674 H       1  UNL1        0.0588
     50 H          -1.3488    2.8327   -0.3345 H       1  UNL1        0.0588
     51 H          -2.1426    1.6279    1.0353 H       1  UNL1        0.0549
     52 H          -3.4103    2.4234    2.0281 H       1  UNL1        0.0549
     53 H          -5.3350    0.6601    3.0608 H       1  UNL1        0.0825
     54 H          -5.3653   -1.8755    3.1996 H       1  UNL1        0.0845
     55 H          -2.3109   -0.7895    0.4708 H       1  UNL1        0.1029
     56 H          -5.3097    2.6786    2.1765 H       1  UNL1        0.0623
     57 H          -7.5998    3.3049    2.4559 H       1  UNL1        0.0632
     58 H          -8.0531    3.2050   -1.7977 H       1  UNL1        0.0647
     59 H           0.6912    0.3459    1.3254 H       1  UNL1        0.0655
     60 H           2.7149   -0.9303    1.7110 H       1  UNL1        0.0637
     61 H           3.8359   -3.8089   -1.5436 H       1  UNL1        0.0479
     62 H           4.7683   -2.3362   -2.1593 H       1  UNL1        0.0479
     63 H           5.8748   -4.6575   -0.5222 H       1  UNL1        0.0480
     64 H           6.4829   -3.7854   -1.9945 H       1  UNL1        0.0480
@<TRIPOS>BOND
     1     1     2    1
     2     2     3    2
     3     2     4   am
     4     4     5    1
     5     5     6    1
     6     6     7    1
     7     7     8    1
     8     8     9   ar
     9     9    10   ar
    10    10    11   ar
    11    11    12    1
    12    12    13    1
    13    13    14    1
    14    14    15    1
    15    15    16    1
    16    16    17    1
    17    17    18    1
    18    18    19    1
    19    19    20   ar
    20    20    21   ar
    21    21    22   ar
    22    22    23   ar
    23    17    24    1
    24    24    25   ar
    25    25    26   ar
    26    26    27   ar
    27    27    28    1
    28    27    29   ar
    29    29    30   ar
    30    30    31    1
    31    17    32    1
    32    11    33   ar
    33    33    34   ar
    34     7    35    1
    35    35    36    1
    36    36     4    1
    37    34     8   ar
    38    32    14    1
    39    23    19   ar
    40    30    24   ar
    41     1    37    1
    42     1    38    1
    43     1    39    1
    44     5    40    1
    45     5    41    1
    46     6    42    1
    47     6    43    1
    48     9    44    1
    49    10    45    1
    50    13    46    1
    51    13    47    1
    52    14    48    1
    53    15    49    1
    54    15    50    1
    55    18    51    1
    56    18    52    1
    57    20    53    1
    58    21    54    1
    59    23    55    1
    60    25    56    1
    61    26    57    1
    62    29    58    1
    63    33    59    1
    64    34    60    1
    65    35    61    1
    66    35    62    1
    67    36    63    1
    68    36    64    1
