@<TRIPOS>MOLECULE
*****
 50 52 0 0 0
SMALL
GASTEIGER

@<TRIPOS>ATOM
      1 N          10.1476    2.3922    1.0421 N.1     1  UNL1       -0.1909
      2 C           9.0001    2.0772    0.9988 C.1     1  UNL1        0.0992
      3 C           7.6423    1.7176    0.9443 C.ar    1  UNL1        0.0518
      4 C           6.6692    2.5420    1.5987 C.ar    1  UNL1       -0.0438
      5 C           5.3626    2.0375    1.4801 C.ar    1  UNL1       -0.0528
      6 C           5.0031    0.9925    0.8922 C.ar    1  UNL1       -0.0178
      7 C           3.6320    0.4520    0.7877 C.ar    1  UNL1       -0.0179
      8 C           3.3924   -0.9429    0.7292 C.ar    1  UNL1       -0.0538
      9 C           2.1177   -1.4773    0.5766 C.ar    1  UNL1       -0.0579
     10 C           1.0675   -0.5711    0.4786 C.ar    1  UNL1       -0.0446
     11 C          -0.3512   -0.9814    0.2581 C.3     1  UNL1        0.0041
     12 C          -0.4973   -1.2568   -1.3071 C.3     1  UNL1        0.1142
     13 C           0.3279   -2.3076   -1.5818 C.1     1  UNL1        0.0852
     14 N           1.0951   -3.2526   -1.8418 N.1     1  UNL1       -0.1946
     15 N          -1.8596   -1.1261   -1.6055 N.am    1  UNL1       -0.2983
     16 C          -2.9851   -1.3490   -0.7832 C.2     1  UNL1        0.2311
     17 O          -2.7463   -1.8297    0.3885 O.2     1  UNL1       -0.2741
     18 C          -4.3757   -1.0401   -1.1986 C.3     1  UNL1        0.0871
     19 C          -4.4088    0.4958   -0.9021 C.3     1  UNL1       -0.0029
     20 C          -5.1932    0.7301    0.3649 C.3     1  UNL1        0.0583
     21 O          -5.0702    2.0223    0.8012 O.3     1  UNL1       -0.3917
     22 C          -6.6303    0.3631   -0.0469 C.3     1  UNL1       -0.0142
     23 C          -6.6064   -1.1276   -0.2301 C.3     1  UNL1       -0.0011
     24 N          -5.3056   -1.7069   -0.3778 N.3     1  UNL1       -0.3055
     25 C           1.2940    0.7487    0.5457 C.ar    1  UNL1       -0.0579
     26 C           2.5546    1.2697    0.6980 C.ar    1  UNL1       -0.0538
     27 C           5.9548    0.1099    0.1951 C.ar    1  UNL1       -0.0528
     28 C           7.2315    0.6018    0.3106 C.ar    1  UNL1       -0.0438
     29 H           6.9222    3.4107    2.0918 H       1  UNL1        0.0631
     30 H           4.6070    2.7122    2.0083 H       1  UNL1        0.0624
     31 H           4.2011   -1.6206    0.8059 H       1  UNL1        0.0624
     32 H           1.9971   -2.5191    0.5503 H       1  UNL1        0.0620
     33 H          -1.0572   -0.1975    0.5104 H       1  UNL1        0.0341
     34 H          -0.5474   -1.9194    0.7375 H       1  UNL1        0.0341
     35 H           0.0259   -0.2431   -1.6709 H       1  UNL1        0.0660
     36 H          -2.1445   -0.8144   -2.6128 H       1  UNL1        0.1500
     37 H          -4.5402   -1.2165   -2.2598 H       1  UNL1        0.0557
     38 H          -3.3869    0.8994   -0.7930 H       1  UNL1        0.0310
     39 H          -4.9093    0.9666   -1.7382 H       1  UNL1        0.0310
     40 H          -4.8783   -0.0327    1.0980 H       1  UNL1        0.0594
     41 H          -5.7528    2.1956    1.4842 H       1  UNL1        0.2098
     42 H          -7.3462    0.6444    0.7211 H       1  UNL1        0.0302
     43 H          -6.8039    0.8065   -1.0345 H       1  UNL1        0.0302
     44 H          -7.3276   -1.4635   -1.0025 H       1  UNL1        0.0425
     45 H          -7.0241   -1.5410    0.7397 H       1  UNL1        0.0425
     46 H          -5.3059   -2.7310   -0.3897 H       1  UNL1        0.1226
     47 H           0.4746    1.4947    0.4981 H       1  UNL1        0.0620
     48 H           2.6915    2.3537    0.7571 H       1  UNL1        0.0624
     49 H           5.6341   -0.7558   -0.2869 H       1  UNL1        0.0624
     50 H           8.0080   -0.0128   -0.2069 H       1  UNL1        0.0631
@<TRIPOS>BOND
     1     1     2    3
     2     2     3    1
     3     3     4   ar
     4     4     5   ar
     5     5     6   ar
     6     6     7    1
     7     7     8   ar
     8     8     9   ar
     9     9    10   ar
    10    10    11    1
    11    11    12    1
    12    12    13    1
    13    13    14    3
    14    12    15    1
    15    15    16   am
    16    16    17    2
    17    16    18    1
    18    18    19    1
    19    19    20    1
    20    20    21    1
    21    20    22    1
    22    22    23    1
    23    23    24    1
    24    10    25   ar
    25    25    26   ar
    26     6    27   ar
    27    27    28   ar
    28    28     3   ar
    29    26     7   ar
    30    24    18    1
    31     4    29    1
    32     5    30    1
    33     8    31    1
    34     9    32    1
    35    11    33    1
    36    11    34    1
    37    12    35    1
    38    15    36    1
    39    18    37    1
    40    19    38    1
    41    19    39    1
    42    20    40    1
    43    21    41    1
    44    22    42    1
    45    22    43    1
    46    23    44    1
    47    23    45    1
    48    24    46    1
    49    25    47    1
    50    26    48    1
    51    27    49    1
    52    28    50    1
