@<TRIPOS>MOLECULE
*****
 68 72 0 0 0
SMALL
GASTEIGER

@<TRIPOS>ATOM
      1 C           1.2601    4.8568   -0.8243 C.3     1  UNL1       -0.0653
      2 C          -0.0776    4.2762   -1.2224 C.3     1  UNL1       -0.0556
      3 C          -0.3786    3.0012   -0.4174 C.3     1  UNL1       -0.0478
      4 C          -1.7071    2.5213   -0.8891 C.3     1  UNL1       -0.0084
      5 C          -2.2148    1.2955   -0.2770 C.ar    1  UNL1        0.0677
      6 N          -3.0364    1.2901    0.8271 N.ar    1  UNL1       -0.1702
      7 N          -3.2882    0.0697    1.1629 N.ar    1  UNL1       -0.2224
      8 C          -4.1043   -0.3309    2.2677 C.ar    1  UNL1        0.1029
      9 C          -3.5035   -0.6393    3.4814 C.ar    1  UNL1        0.0691
     10 CL         -1.7665   -0.5352    3.6379 Cl      1  UNL1       -0.0813
     11 C          -4.3135   -1.0198    4.5232 C.ar    1  UNL1       -0.0229
     12 C          -5.6954   -1.1003    4.3897 C.ar    1  UNL1        0.0439
     13 CL         -6.6684   -1.5925    5.7668 Cl      1  UNL1       -0.0834
     14 C          -6.2389   -0.7860    3.1727 C.ar    1  UNL1       -0.0229
     15 C          -5.4608   -0.3927    2.0778 C.ar    1  UNL1        0.0691
     16 CL         -6.2365   -0.0117    0.5713 Cl      1  UNL1       -0.0813
     17 C          -2.6783   -0.8152    0.3398 C.ar    1  UNL1        0.1550
     18 C          -2.7270   -2.2601    0.3937 C.2     1  UNL1        0.3581
     19 O          -3.4220   -2.7626    1.3294 O.2     1  UNL1       -0.2432
     20 O          -2.1170   -3.1360   -0.4393 O.3     1  UNL1       -0.4604
     21 C          -2.1855   -4.5402   -0.3595 C.3     1  UNL1        0.0900
     22 C          -3.5951   -5.0620   -0.4850 C.3     1  UNL1       -0.0306
     23 C          -1.9891   -0.0204   -0.5857 C.ar    1  UNL1        0.0123
     24 C          -1.2023   -0.5523   -1.7097 C.3     1  UNL1        0.0016
     25 C           0.2646   -0.5164   -1.5398 C.ar    1  UNL1       -0.0429
     26 C           1.0875    0.2935   -2.2951 C.ar    1  UNL1       -0.0577
     27 C           2.4534    0.3096   -2.1181 C.ar    1  UNL1       -0.0537
     28 C           3.0587   -0.5014   -1.1590 C.ar    1  UNL1       -0.0172
     29 C           4.5050   -0.4837   -1.0307 C.ar    1  UNL1       -0.0072
     30 C           5.2261   -1.5585   -1.5997 C.ar    1  UNL1       -0.0534
     31 C           6.5917   -1.5991   -1.5655 C.ar    1  UNL1       -0.0611
     32 C           7.3060   -0.5857   -0.9712 C.ar    1  UNL1       -0.0611
     33 C           6.6120    0.4397   -0.4277 C.ar    1  UNL1       -0.0504
     34 C           5.1998    0.5273   -0.4365 C.ar    1  UNL1        0.0282
     35 C           4.5634    1.6474    0.2284 C.ar    1  UNL1        0.1799
     36 N           5.2846    2.7480    0.6256 N.ar    1  UNL1       -0.1084
     37 N           4.4913    3.6414    1.1752 N.ar    1  UNL1       -0.0229
     38 N           3.2733    3.1447    1.1428 N.ar    1  UNL1       -0.0464
     39 N           3.3169    1.9171    0.5608 N.ar    1  UNL1       -0.2388
     40 C           2.2440   -1.3101   -0.4036 C.ar    1  UNL1       -0.0537
     41 C           0.8569   -1.3216   -0.5884 C.ar    1  UNL1       -0.0577
     42 H           1.3526    5.0016    0.2646 H       1  UNL1        0.0230
     43 H           2.0939    4.2621   -1.2568 H       1  UNL1        0.0230
     44 H           1.3196    5.8544   -1.3316 H       1  UNL1        0.0230
     45 H          -0.0161    4.0231   -2.2977 H       1  UNL1        0.0263
     46 H          -0.8823    5.0133   -1.0601 H       1  UNL1        0.0263
     47 H          -0.4418    3.3153    0.6634 H       1  UNL1        0.0269
     48 H           0.4733    2.3330   -0.5574 H       1  UNL1        0.0269
     49 H          -2.4362    3.3627   -0.6899 H       1  UNL1        0.0329
     50 H          -1.6984    2.4541   -2.0077 H       1  UNL1        0.0329
     51 H          -3.8250   -1.2593    5.4686 H       1  UNL1        0.0647
     52 H          -7.3024   -0.8344    3.0231 H       1  UNL1        0.0647
     53 H          -1.7942   -4.8597    0.6255 H       1  UNL1        0.0695
     54 H          -1.5863   -5.0380   -1.1391 H       1  UNL1        0.0695
     55 H          -3.5238   -6.1368   -0.7471 H       1  UNL1        0.0262
     56 H          -4.1298   -4.5658   -1.3132 H       1  UNL1        0.0262
     57 H          -4.1452   -5.0245    0.4830 H       1  UNL1        0.0262
     58 H          -1.4673   -0.0131   -2.6710 H       1  UNL1        0.0363
     59 H          -1.4667   -1.6063   -1.9288 H       1  UNL1        0.0363
     60 H           0.5855    0.9153   -3.0355 H       1  UNL1        0.0621
     61 H           3.0905    0.9512   -2.7176 H       1  UNL1        0.0624
     62 H           4.6476   -2.3527   -2.0657 H       1  UNL1        0.0624
     63 H           7.1429   -2.4297   -2.0053 H       1  UNL1        0.0618
     64 H           8.3860   -0.5611   -0.9135 H       1  UNL1        0.0618
     65 H           7.1330    1.2728    0.0596 H       1  UNL1        0.0625
     66 H           2.4958    1.3043    0.4264 H       1  UNL1        0.1923
     67 H           2.7141   -1.9354    0.3366 H       1  UNL1        0.0624
     68 H           0.2924   -1.9920    0.0577 H       1  UNL1        0.0621
@<TRIPOS>BOND
     1     1     2    1
     2     2     3    1
     3     3     4    1
     4     4     5    1
     5     5     6   ar
     6     6     7   ar
     7     7     8    1
     8     8     9   ar
     9     9    10    1
    10     9    11   ar
    11    11    12   ar
    12    12    13    1
    13    12    14   ar
    14    14    15   ar
    15    15    16    1
    16     7    17   ar
    17    17    18    1
    18    18    19    2
    19    18    20    1
    20    20    21    1
    21    21    22    1
    22    17    23   ar
    23    23    24    1
    24    24    25    1
    25    25    26   ar
    26    26    27   ar
    27    27    28   ar
    28    28    29    1
    29    29    30   ar
    30    30    31   ar
    31    31    32   ar
    32    32    33   ar
    33    33    34   ar
    34    34    35    1
    35    35    36   ar
    36    36    37   ar
    37    37    38   ar
    38    38    39   ar
    39    28    40   ar
    40    40    41   ar
    41    23     5   ar
    42    41    25   ar
    43    15     8   ar
    44    34    29   ar
    45    39    35   ar
    46     1    42    1
    47     1    43    1
    48     1    44    1
    49     2    45    1
    50     2    46    1
    51     3    47    1
    52     3    48    1
    53     4    49    1
    54     4    50    1
    55    11    51    1
    56    14    52    1
    57    21    53    1
    58    21    54    1
    59    22    55    1
    60    22    56    1
    61    22    57    1
    62    24    58    1
    63    24    59    1
    64    26    60    1
    65    27    61    1
    66    30    62    1
    67    31    63    1
    68    32    64    1
    69    33    65    1
    70    39    66    1
    71    40    67    1
    72    41    68    1
