
     RDKit          3D

 68 72  0  0  0  0  0  0  0  0999 V2000
    1.2601    4.8568   -0.8243 C   0  0  0  0  0  0  0  0  0  0  0  0
   -0.0776    4.2762   -1.2224 C   0  0  0  0  0  0  0  0  0  0  0  0
   -0.3786    3.0012   -0.4174 C   0  0  0  0  0  0  0  0  0  0  0  0
   -1.7071    2.5213   -0.8891 C   0  0  0  0  0  0  0  0  0  0  0  0
   -2.2148    1.2955   -0.2770 C   0  0  0  0  0  0  0  0  0  0  0  0
   -3.0364    1.2901    0.8271 N   0  0  0  0  0  0  0  0  0  0  0  0
   -3.2882    0.0697    1.1629 N   0  0  0  0  0  0  0  0  0  0  0  0
   -4.1043   -0.3309    2.2677 C   0  0  0  0  0  0  0  0  0  0  0  0
   -3.5035   -0.6393    3.4814 C   0  0  0  0  0  0  0  0  0  0  0  0
   -1.7665   -0.5352    3.6379 Cl  0  0  0  0  0  0  0  0  0  0  0  0
   -4.3135   -1.0198    4.5232 C   0  0  0  0  0  0  0  0  0  0  0  0
   -5.6954   -1.1003    4.3897 C   0  0  0  0  0  0  0  0  0  0  0  0
   -6.6684   -1.5925    5.7668 Cl  0  0  0  0  0  0  0  0  0  0  0  0
   -6.2389   -0.7860    3.1727 C   0  0  0  0  0  0  0  0  0  0  0  0
   -5.4608   -0.3927    2.0778 C   0  0  0  0  0  0  0  0  0  0  0  0
   -6.2365   -0.0117    0.5713 Cl  0  0  0  0  0  0  0  0  0  0  0  0
   -2.6783   -0.8152    0.3398 C   0  0  0  0  0  0  0  0  0  0  0  0
   -2.7270   -2.2601    0.3937 C   0  0  0  0  0  0  0  0  0  0  0  0
   -3.4220   -2.7626    1.3294 O   0  0  0  0  0  0  0  0  0  0  0  0
   -2.1170   -3.1360   -0.4393 O   0  0  0  0  0  0  0  0  0  0  0  0
   -2.1855   -4.5402   -0.3595 C   0  0  0  0  0  0  0  0  0  0  0  0
   -3.5951   -5.0620   -0.4850 C   0  0  0  0  0  0  0  0  0  0  0  0
   -1.9891   -0.0204   -0.5857 C   0  0  0  0  0  0  0  0  0  0  0  0
   -1.2023   -0.5523   -1.7097 C   0  0  0  0  0  0  0  0  0  0  0  0
    0.2646   -0.5164   -1.5398 C   0  0  0  0  0  0  0  0  0  0  0  0
    1.0875    0.2935   -2.2951 C   0  0  0  0  0  0  0  0  0  0  0  0
    2.4534    0.3096   -2.1181 C   0  0  0  0  0  0  0  0  0  0  0  0
    3.0587   -0.5014   -1.1590 C   0  0  0  0  0  0  0  0  0  0  0  0
    4.5050   -0.4837   -1.0307 C   0  0  0  0  0  0  0  0  0  0  0  0
    5.2261   -1.5585   -1.5997 C   0  0  0  0  0  0  0  0  0  0  0  0
    6.5917   -1.5991   -1.5655 C   0  0  0  0  0  0  0  0  0  0  0  0
    7.3060   -0.5857   -0.9712 C   0  0  0  0  0  0  0  0  0  0  0  0
    6.6120    0.4397   -0.4277 C   0  0  0  0  0  0  0  0  0  0  0  0
    5.1998    0.5273   -0.4365 C   0  0  0  0  0  0  0  0  0  0  0  0
    4.5634    1.6474    0.2284 C   0  0  0  0  0  0  0  0  0  0  0  0
    5.2846    2.7480    0.6256 N   0  0  0  0  0  0  0  0  0  0  0  0
    4.4913    3.6414    1.1752 N   0  0  0  0  0  0  0  0  0  0  0  0
    3.2733    3.1447    1.1428 N   0  0  0  0  0  0  0  0  0  0  0  0
    3.3169    1.9171    0.5608 N   0  0  0  0  0  0  0  0  0  0  0  0
    2.2440   -1.3101   -0.4036 C   0  0  0  0  0  0  0  0  0  0  0  0
    0.8569   -1.3216   -0.5884 C   0  0  0  0  0  0  0  0  0  0  0  0
    1.3526    5.0016    0.2646 H   0  0  0  0  0  0  0  0  0  0  0  0
    2.0939    4.2621   -1.2568 H   0  0  0  0  0  0  0  0  0  0  0  0
    1.3196    5.8544   -1.3316 H   0  0  0  0  0  0  0  0  0  0  0  0
   -0.0161    4.0231   -2.2977 H   0  0  0  0  0  0  0  0  0  0  0  0
   -0.8823    5.0133   -1.0601 H   0  0  0  0  0  0  0  0  0  0  0  0
   -0.4418    3.3153    0.6634 H   0  0  0  0  0  0  0  0  0  0  0  0
    0.4733    2.3330   -0.5574 H   0  0  0  0  0  0  0  0  0  0  0  0
   -2.4362    3.3627   -0.6899 H   0  0  0  0  0  0  0  0  0  0  0  0
   -1.6984    2.4541   -2.0077 H   0  0  0  0  0  0  0  0  0  0  0  0
   -3.8250   -1.2593    5.4686 H   0  0  0  0  0  0  0  0  0  0  0  0
   -7.3024   -0.8344    3.0231 H   0  0  0  0  0  0  0  0  0  0  0  0
   -1.7942   -4.8597    0.6255 H   0  0  0  0  0  0  0  0  0  0  0  0
   -1.5863   -5.0380   -1.1391 H   0  0  0  0  0  0  0  0  0  0  0  0
   -3.5238   -6.1368   -0.7471 H   0  0  0  0  0  0  0  0  0  0  0  0
   -4.1298   -4.5658   -1.3132 H   0  0  0  0  0  0  0  0  0  0  0  0
   -4.1452   -5.0245    0.4830 H   0  0  0  0  0  0  0  0  0  0  0  0
   -1.4673   -0.0131   -2.6710 H   0  0  0  0  0  0  0  0  0  0  0  0
   -1.4667   -1.6063   -1.9288 H   0  0  0  0  0  0  0  0  0  0  0  0
    0.5855    0.9153   -3.0355 H   0  0  0  0  0  0  0  0  0  0  0  0
    3.0905    0.9512   -2.7176 H   0  0  0  0  0  0  0  0  0  0  0  0
    4.6476   -2.3527   -2.0657 H   0  0  0  0  0  0  0  0  0  0  0  0
    7.1429   -2.4297   -2.0053 H   0  0  0  0  0  0  0  0  0  0  0  0
    8.3860   -0.5611   -0.9135 H   0  0  0  0  0  0  0  0  0  0  0  0
    7.1330    1.2728    0.0596 H   0  0  0  0  0  0  0  0  0  0  0  0
    2.4958    1.3043    0.4264 H   0  0  0  0  0  0  0  0  0  0  0  0
    2.7141   -1.9354    0.3366 H   0  0  0  0  0  0  0  0  0  0  0  0
    0.2924   -1.9920    0.0577 H   0  0  0  0  0  0  0  0  0  0  0  0
  1  2  1  0
  2  3  1  0
  3  4  1  0
  4  5  1  0
  5  6  2  0
  6  7  1  0
  7  8  1  0
  8  9  2  0
  9 10  1  0
  9 11  1  0
 11 12  2  0
 12 13  1  0
 12 14  1  0
 14 15  2  0
 15 16  1  0
  7 17  1  0
 17 18  1  0
 18 19  2  0
 18 20  1  0
 20 21  1  0
 21 22  1  0
 17 23  2  0
 23 24  1  0
 24 25  1  0
 25 26  2  0
 26 27  1  0
 27 28  2  0
 28 29  1  0
 29 30  2  0
 30 31  1  0
 31 32  2  0
 32 33  1  0
 33 34  2  0
 34 35  1  0
 35 36  2  0
 36 37  1  0
 37 38  2  0
 38 39  1  0
 28 40  1  0
 40 41  2  0
 23  5  1  0
 41 25  1  0
 15  8  1  0
 34 29  1  0
 39 35  1  0
  1 42  1  0
  1 43  1  0
  1 44  1  0
  2 45  1  0
  2 46  1  0
  3 47  1  0
  3 48  1  0
  4 49  1  0
  4 50  1  0
 11 51  1  0
 14 52  1  0
 21 53  1  0
 21 54  1  0
 22 55  1  0
 22 56  1  0
 22 57  1  0
 24 58  1  0
 24 59  1  0
 26 60  1  0
 27 61  1  0
 30 62  1  0
 31 63  1  0
 32 64  1  0
 33 65  1  0
 39 66  1  0
 40 67  1  0
 41 68  1  0
M  END
$$$$
