@<TRIPOS>MOLECULE
*****
 54 57 0 0 0
SMALL
GASTEIGER

@<TRIPOS>ATOM
      1 C          -0.5568   -0.7266    2.7961 C.3     1  UNL1        0.0790
      2 O           0.2290   -0.3269    1.7518 O.3     1  UNL1       -0.4914
      3 C          -0.2332    0.0547    0.5208 C.ar    1  UNL1        0.1623
      4 C           0.6216    0.4656   -0.5501 C.ar    1  UNL1        0.1640
      5 O           1.7469    0.2997    0.0614 O.3     1  UNL1       -0.4880
      6 C           2.8829    0.1341    0.6724 C.3     1  UNL1        0.0926
      7 C           3.6978   -0.9425   -0.0500 C.3     1  UNL1       -0.0045
      8 C           4.0469   -0.4655   -1.4057 C.3     1  UNL1       -0.0342
      9 C           5.4431    0.1376   -1.4409 C.3     1  UNL1       -0.0010
     10 N           5.9323    0.6279   -0.2182 N.3     1  UNL1       -0.3053
     11 C           7.3880    0.7740   -0.3327 C.3     1  UNL1       -0.0128
     12 C           5.7247   -0.1884    0.9510 C.3     1  UNL1       -0.0010
     13 C           4.8862   -1.3909    0.7010 C.3     1  UNL1       -0.0342
     14 C           0.0111    0.8306   -1.7097 C.ar    1  UNL1        0.0098
     15 C          -1.3573    0.7758   -1.7652 C.ar    1  UNL1        0.0797
     16 N          -1.8949    1.1809   -2.9575 N.ar    1  UNL1       -0.2352
     17 C          -3.2339    1.1955   -3.1287 C.ar    1  UNL1        0.1187
     18 N          -4.0742    0.8068   -2.1262 N.ar    1  UNL1       -0.2200
     19 C          -3.5452    0.4020   -0.9547 C.ar    1  UNL1        0.1340
     20 N          -4.3688   -0.0928    0.1233 N.pl3   1  UNL1       -0.2966
     21 C          -5.7528   -0.0612    0.3002 C.ar    1  UNL1        0.0681
     22 C          -6.5537    1.0231    0.6302 C.ar    1  UNL1        0.1455
     23 F          -5.9184    2.2223    0.7443 F       1  UNL1       -0.2035
     24 C          -7.8963    0.8477    0.8270 C.ar    1  UNL1       -0.0106
     25 C          -8.4374   -0.4059    0.6949 C.ar    1  UNL1        0.0207
     26 BR        -10.2876   -0.7526    0.9553 Br      1  UNL1       -0.0502
     27 C          -7.7278   -1.5386    0.3700 C.ar    1  UNL1       -0.0458
     28 C          -6.3672   -1.3420    0.1765 C.ar    1  UNL1       -0.0367
     29 C          -2.2013    0.3833   -0.7563 C.ar    1  UNL1        0.0441
     30 C          -1.6475   -0.0004    0.4559 C.ar    1  UNL1       -0.0038
     31 H          -1.2812    0.0784    3.0544 H       1  UNL1        0.0660
     32 H           0.0459   -0.9055    3.7223 H       1  UNL1        0.0660
     33 H          -1.1048   -1.6490    2.5831 H       1  UNL1        0.0660
     34 H           2.8524   -0.0769    1.7805 H       1  UNL1        0.0699
     35 H           3.5412    1.0504    0.6225 H       1  UNL1        0.0699
     36 H           3.0040   -1.8482   -0.1758 H       1  UNL1        0.0334
     37 H           3.3000    0.2671   -1.7582 H       1  UNL1        0.0281
     38 H           4.0293   -1.2930   -2.1326 H       1  UNL1        0.0281
     39 H           5.3695    0.9927   -2.1763 H       1  UNL1        0.0426
     40 H           6.1771   -0.5742   -1.8793 H       1  UNL1        0.0426
     41 H           7.8160   -0.2242   -0.3828 H       1  UNL1        0.0391
     42 H           7.6507    1.3629   -1.2237 H       1  UNL1        0.0391
     43 H           7.8264    1.2474    0.5750 H       1  UNL1        0.0391
     44 H           6.7137   -0.5016    1.3884 H       1  UNL1        0.0426
     45 H           5.1935    0.4076    1.7217 H       1  UNL1        0.0426
     46 H           4.5276   -1.7676    1.7036 H       1  UNL1        0.0281
     47 H           5.4184   -2.2078    0.1758 H       1  UNL1        0.0281
     48 H           0.7407    1.1115   -2.4413 H       1  UNL1        0.0677
     49 H          -3.7256    1.5123   -4.0414 H       1  UNL1        0.1048
     50 H          -4.0216   -0.5413    0.9878 H       1  UNL1        0.1537
     51 H          -8.5071    1.6838    1.0836 H       1  UNL1        0.0658
     52 H          -8.1129   -2.5431    0.2408 H       1  UNL1        0.0629
     53 H          -5.7651   -2.2165   -0.0816 H       1  UNL1        0.0637
     54 H          -2.2444   -0.3167    1.3175 H       1  UNL1        0.0663
@<TRIPOS>BOND
     1     1     2    1
     2     2     3    1
     3     3     4   ar
     4     4     5    1
     5     5     6    1
     6     6     7    1
     7     7     8    1
     8     8     9    1
     9     9    10    1
    10    10    11    1
    11    10    12    1
    12    12    13    1
    13     4    14   ar
    14    14    15   ar
    15    15    16   ar
    16    16    17   ar
    17    17    18   ar
    18    18    19   ar
    19    19    20    1
    20    20    21    1
    21    21    22   ar
    22    22    23    1
    23    22    24   ar
    24    24    25   ar
    25    25    26    1
    26    25    27   ar
    27    27    28   ar
    28    19    29   ar
    29    29    30   ar
    30    30     3   ar
    31    13     7    1
    32    29    15   ar
    33    28    21   ar
    34     1    31    1
    35     1    32    1
    36     1    33    1
    37     6    34    1
    38     6    35    1
    39     7    36    1
    40     8    37    1
    41     8    38    1
    42     9    39    1
    43     9    40    1
    44    11    41    1
    45    11    42    1
    46    11    43    1
    47    12    44    1
    48    12    45    1
    49    13    46    1
    50    13    47    1
    51    14    48    1
    52    17    49    1
    53    20    50    1
    54    24    51    1
    55    27    52    1
    56    28    53    1
    57    30    54    1
