
     RDKit          3D

 29 30  0  0  0  0  0  0  0  0999 V2000
    4.6700    0.5365    2.2733 O   0  0  0  0  0  0  0  0  0  0  0  0
    4.6537   -0.2233    1.2713 C   0  0  0  0  0  0  0  0  0  0  0  0
    5.8059   -0.9181    0.9727 O   0  0  0  0  0  0  0  0  0  0  0  0
    3.4607   -0.3697    0.4485 C   0  0  0  0  0  0  0  0  0  0  0  0
    3.4604   -1.1965   -0.6327 C   0  0  0  0  0  0  0  0  0  0  0  0
    2.3081   -1.3023   -1.3814 C   0  0  0  0  0  0  0  0  0  0  0  0
    1.1508   -0.5815   -1.0522 C   0  0  0  0  0  0  0  0  0  0  0  0
    1.1399    0.2549    0.0367 C   0  0  0  0  0  0  0  0  0  0  0  0
    0.0214    1.0034    0.4547 N   0  0  0  0  0  0  0  0  0  0  0  0
   -1.3347    0.7022    0.2112 C   0  0  0  0  0  0  0  0  0  0  0  0
   -2.2497    1.7451    0.2104 C   0  0  0  0  0  0  0  0  0  0  0  0
   -3.5986    1.5903    0.0056 C   0  0  0  0  0  0  0  0  0  0  0  0
   -4.0780    0.2996   -0.2158 C   0  0  0  0  0  0  0  0  0  0  0  0
   -5.4680    0.0921   -0.4329 N   0  0  0  0  0  4  0  0  0  0  0  0
   -5.8647   -1.0738   -0.6280 O   0  0  0  0  0  0  0  0  0  0  0  0
   -6.3149    1.1629   -0.4212 O   0  0  0  0  0  1  0  0  0  0  0  0
   -3.1919   -0.7718   -0.2221 C   0  0  0  0  0  0  0  0  0  0  0  0
   -1.8440   -0.5592   -0.0102 C   0  0  0  0  0  0  0  0  0  0  0  0
    2.3214    0.3339    0.7653 C   0  0  0  0  0  0  0  0  0  0  0  0
    6.4573   -1.2428    1.6901 H   0  0  0  0  0  0  0  0  0  0  0  0
    4.3510   -1.7742   -0.9161 H   0  0  0  0  0  0  0  0  0  0  0  0
    2.2992   -1.9620   -2.2486 H   0  0  0  0  0  0  0  0  0  0  0  0
    0.2709   -0.6708   -1.6572 H   0  0  0  0  0  0  0  0  0  0  0  0
    0.2361    1.8923    1.0154 H   0  0  0  0  0  0  0  0  0  0  0  0
   -1.9000    2.7747    0.3825 H   0  0  0  0  0  0  0  0  0  0  0  0
   -4.2863    2.4280    0.0115 H   0  0  0  0  0  0  0  0  0  0  0  0
   -3.5990   -1.7677   -0.3981 H   0  0  0  0  0  0  0  0  0  0  0  0
   -1.1956   -1.4028   -0.0091 H   0  0  0  0  0  0  0  0  0  0  0  0
    2.3187    1.0005    1.6354 H   0  0  0  0  0  0  0  0  0  0  0  0
  1  2  2  0
  2  3  1  0
  2  4  1  0
  4  5  2  0
  5  6  1  0
  6  7  2  0
  7  8  1  0
  8  9  1  0
  9 10  1  0
 10 11  2  0
 11 12  1  0
 12 13  2  0
 13 14  1  0
 14 15  2  0
 14 16  1  0
 13 17  1  0
 17 18  2  0
  8 19  2  0
 19  4  1  0
 18 10  1  0
  3 20  1  0
  5 21  1  0
  6 22  1  0
  7 23  1  0
  9 24  1  0
 11 25  1  0
 12 26  1  0
 17 27  1  0
 18 28  1  0
 19 29  1  0
M  CHG  2  14   1  16  -1
M  END
$$$$
