@<TRIPOS>MOLECULE
*****
 29 30 0 0 0
SMALL
GASTEIGER

@<TRIPOS>ATOM
      1 O           4.6700    0.5365    2.2733 O.2     1  UNL1       -0.2451
      2 C           4.6537   -0.2233    1.2713 C.2     1  UNL1        0.3369
      3 O           5.8059   -0.9181    0.9727 O.3     1  UNL1       -0.4771
      4 C           3.4607   -0.3697    0.4485 C.ar    1  UNL1        0.0606
      5 C           3.4604   -1.1965   -0.6327 C.ar    1  UNL1       -0.0477
      6 C           2.3081   -1.3023   -1.3814 C.ar    1  UNL1       -0.0592
      7 C           1.1508   -0.5815   -1.0522 C.ar    1  UNL1       -0.0405
      8 C           1.1399    0.2549    0.0367 C.ar    1  UNL1        0.0321
      9 N           0.0214    1.0034    0.4547 N.pl3   1  UNL1       -0.3145
     10 C          -1.3347    0.7022    0.2112 C.ar    1  UNL1        0.0317
     11 C          -2.2497    1.7451    0.2104 C.ar    1  UNL1       -0.0341
     12 C          -3.5986    1.5903    0.0056 C.ar    1  UNL1        0.0173
     13 C          -4.0780    0.2996   -0.2158 C.ar    1  UNL1        0.2733
     14 N          -5.4680    0.0921   -0.4329 N.pl3   1  UNL1        0.0796
     15 O          -5.8647   -1.0738   -0.6280 O.2     1  UNL1        0.0414
     16 O          -6.3149    1.1629   -0.4212 O.co2   1  UNL1       -0.5760
     17 C          -3.1919   -0.7718   -0.2221 C.ar    1  UNL1        0.0173
     18 C          -1.8440   -0.5592   -0.0102 C.ar    1  UNL1       -0.0341
     19 C           2.3214    0.3339    0.7653 C.ar    1  UNL1       -0.0266
     20 H           6.4573   -1.2428    1.6901 H       1  UNL1        0.2954
     21 H           4.3510   -1.7742   -0.9161 H       1  UNL1        0.0626
     22 H           2.2992   -1.9620   -2.2486 H       1  UNL1        0.0618
     23 H           0.2709   -0.6708   -1.6572 H       1  UNL1        0.0636
     24 H           0.2361    1.8923    1.0154 H       1  UNL1        0.1522
     25 H          -1.9000    2.7747    0.3825 H       1  UNL1        0.0638
     26 H          -4.2863    2.4280    0.0115 H       1  UNL1        0.0686
     27 H          -3.5990   -1.7677   -0.3981 H       1  UNL1        0.0686
     28 H          -1.1956   -1.4028   -0.0091 H       1  UNL1        0.0638
     29 H           2.3187    1.0005    1.6354 H       1  UNL1        0.0644
@<TRIPOS>UNITY_ATOM_ATTR
14 1
charge 1
16 1
charge -1
@<TRIPOS>BOND
     1     1     2    2
     2     2     3    1
     3     2     4    1
     4     4     5   ar
     5     5     6   ar
     6     6     7   ar
     7     7     8   ar
     8     8     9    1
     9     9    10    1
    10    10    11   ar
    11    11    12   ar
    12    12    13   ar
    13    13    14    1
    14    14    15    2
    15    14    16    1
    16    13    17   ar
    17    17    18   ar
    18     8    19   ar
    19    19     4   ar
    20    18    10   ar
    21     3    20    1
    22     5    21    1
    23     6    22    1
    24     7    23    1
    25     9    24    1
    26    11    25    1
    27    12    26    1
    28    17    27    1
    29    18    28    1
    30    19    29    1
