
     RDKit          3D

 30 32  0  0  0  0  0  0  0  0999 V2000
   -5.9718   -3.5241    1.0755 N   0  0  0  0  0  0  0  0  0  0  0  0
   -5.0971   -2.8883    0.5726 C   0  0  0  0  0  0  0  0  0  0  0  0
   -4.0796   -2.1286   -0.0225 C   0  0  0  0  0  0  0  0  0  0  0  0
   -4.0684   -2.0091   -1.4326 C   0  0  0  0  0  0  0  0  0  0  0  0
   -3.0559   -1.3227   -2.0185 C   0  0  0  0  0  0  0  0  0  0  0  0
   -3.1034   -1.2415   -3.7852 Cl  0  0  0  0  0  0  0  0  0  0  0  0
   -2.0436   -0.7412   -1.3305 C   0  0  0  0  0  0  0  0  0  0  0  0
   -2.0108   -0.8333    0.0855 C   0  0  0  0  0  0  0  0  0  0  0  0
   -0.8938   -0.2903    0.8124 C   0  0  0  0  0  0  0  0  0  0  0  0
    0.2160    0.2417    0.1997 C   0  0  0  0  0  0  0  0  0  0  0  0
    1.3099    0.6889    0.9613 C   0  0  0  0  0  0  0  0  0  0  0  0
    2.4805    1.2402    0.2804 C   0  0  0  0  0  0  0  0  0  0  0  0
    3.5489    1.6474    1.0302 C   0  0  0  0  0  0  0  0  0  0  0  0
    4.6954    2.1711    0.3571 C   0  0  0  0  0  0  0  0  0  0  0  0
    4.6715    2.2384   -1.0111 C   0  0  0  0  0  0  0  0  0  0  0  0
    5.7735    2.7410   -1.6573 F   0  0  0  0  0  0  0  0  0  0  0  0
    3.5711    1.8150   -1.7202 C   0  0  0  0  0  0  0  0  0  0  0  0
    2.4858    1.3185   -1.0549 N   0  0  0  0  0  0  0  0  0  0  0  0
    1.2437    0.5886    2.2796 N   0  0  0  0  0  0  0  0  0  0  0  0
    0.1554    0.0692    2.9243 C   0  0  0  0  0  0  0  0  0  0  0  0
   -0.8485   -0.3391    2.1716 N   0  0  0  0  0  0  0  0  0  0  0  0
   -3.0384   -1.5244    0.6215 C   0  0  0  0  0  0  0  0  0  0  0  0
   -4.8833   -2.4840   -1.9573 H   0  0  0  0  0  0  0  0  0  0  0  0
   -1.2679   -0.1997   -1.8241 H   0  0  0  0  0  0  0  0  0  0  0  0
    0.3046    0.3402   -0.8833 H   0  0  0  0  0  0  0  0  0  0  0  0
    3.6032    1.6070    2.1036 H   0  0  0  0  0  0  0  0  0  0  0  0
    5.5622    2.5005    0.9012 H   0  0  0  0  0  0  0  0  0  0  0  0
    3.5952    1.8899   -2.7821 H   0  0  0  0  0  0  0  0  0  0  0  0
    0.1884    0.0325    4.0051 H   0  0  0  0  0  0  0  0  0  0  0  0
   -3.0428   -1.6039    1.7376 H   0  0  0  0  0  0  0  0  0  0  0  0
  1  2  3  0
  2  3  1  0
  3  4  2  0
  4  5  1  0
  5  6  1  0
  5  7  2  0
  7  8  1  0
  8  9  1  0
  9 10  2  0
 10 11  1  0
 11 12  1  0
 12 13  2  0
 13 14  1  0
 14 15  2  0
 15 16  1  0
 15 17  1  0
 17 18  2  0
 11 19  2  0
 19 20  1  0
 20 21  2  0
  8 22  2  0
 22  3  1  0
 21  9  1  0
 18 12  1  0
  4 23  1  0
  7 24  1  0
 10 25  1  0
 13 26  1  0
 14 27  1  0
 17 28  1  0
 20 29  1  0
 22 30  1  0
M  END
$$$$
