@<TRIPOS>MOLECULE
*****
 30 32 0 0 0
SMALL
GASTEIGER

@<TRIPOS>ATOM
      1 N          -5.9718   -3.5241    1.0755 N.1     1  UNL1       -0.1909
      2 C          -5.0971   -2.8883    0.5726 C.1     1  UNL1        0.0992
      3 C          -4.0796   -2.1286   -0.0225 C.ar    1  UNL1        0.0538
      4 C          -4.0684   -2.0091   -1.4326 C.ar    1  UNL1       -0.0260
      5 C          -3.0559   -1.3227   -2.0185 C.ar    1  UNL1        0.0428
      6 CL         -3.1034   -1.2415   -3.7852 Cl      1  UNL1       -0.0835
      7 C          -2.0436   -0.7412   -1.3305 C.ar    1  UNL1       -0.0341
      8 C          -2.0108   -0.8333    0.0855 C.ar    1  UNL1        0.0031
      9 C          -0.8938   -0.2903    0.8124 C.ar    1  UNL1        0.0749
     10 C           0.2160    0.2417    0.1997 C.ar    1  UNL1       -0.0081
     11 C           1.3099    0.6889    0.9613 C.ar    1  UNL1        0.0929
     12 C           2.4805    1.2402    0.2804 C.ar    1  UNL1        0.0894
     13 C           3.5489    1.6474    1.0302 C.ar    1  UNL1       -0.0315
     14 C           4.6954    2.1711    0.3571 C.ar    1  UNL1       -0.0229
     15 C           4.6715    2.2384   -1.0111 C.ar    1  UNL1        0.1414
     16 F           5.7735    2.7410   -1.6573 F       1  UNL1       -0.2039
     17 C           3.5711    1.8150   -1.7202 C.ar    1  UNL1        0.0635
     18 N           2.4858    1.3185   -1.0549 N.ar    1  UNL1       -0.2506
     19 N           1.2437    0.5886    2.2796 N.ar    1  UNL1       -0.2338
     20 C           0.1554    0.0692    2.9243 C.ar    1  UNL1        0.1173
     21 N          -0.8485   -0.3391    2.1716 N.ar    1  UNL1       -0.2354
     22 C          -3.0384   -1.5244    0.6215 C.ar    1  UNL1       -0.0351
     23 H          -4.8833   -2.4840   -1.9573 H       1  UNL1        0.0645
     24 H          -1.2679   -0.1997   -1.8241 H       1  UNL1        0.0639
     25 H           0.3046    0.3402   -0.8833 H       1  UNL1        0.0661
     26 H           3.6032    1.6070    2.1036 H       1  UNL1        0.0640
     27 H           5.5622    2.5005    0.9012 H       1  UNL1        0.0647
     28 H           3.5952    1.8899   -2.7821 H       1  UNL1        0.0859
     29 H           0.1884    0.0325    4.0051 H       1  UNL1        0.1047
     30 H          -3.0428   -1.6039    1.7376 H       1  UNL1        0.0637
@<TRIPOS>BOND
     1     1     2    3
     2     2     3    1
     3     3     4   ar
     4     4     5   ar
     5     5     6    1
     6     5     7   ar
     7     7     8   ar
     8     8     9    1
     9     9    10   ar
    10    10    11   ar
    11    11    12    1
    12    12    13   ar
    13    13    14   ar
    14    14    15   ar
    15    15    16    1
    16    15    17   ar
    17    17    18   ar
    18    11    19   ar
    19    19    20   ar
    20    20    21   ar
    21     8    22   ar
    22    22     3   ar
    23    21     9   ar
    24    18    12   ar
    25     4    23    1
    26     7    24    1
    27    10    25    1
    28    13    26    1
    29    14    27    1
    30    17    28    1
    31    20    29    1
    32    22    30    1
