
     RDKit          3D

 55 57  0  0  0  0  0  0  0  0999 V2000
   -2.1291   -2.0666    0.2157 C   0  0  0  0  0  0  0  0  0  0  0  0
   -1.7779   -0.8655    0.9809 N   0  0  0  0  0  0  0  0  0  0  0  0
   -2.8144   -0.3015    1.7909 C   0  0  0  0  0  0  0  0  0  0  0  0
   -3.9831    0.1479    0.9500 C   0  0  0  0  0  0  0  0  0  0  0  0
   -4.0356    1.4290    0.4412 C   0  0  0  0  0  0  0  0  0  0  0  0
   -5.0779    1.8428   -0.3117 N   0  0  0  0  0  0  0  0  0  0  0  0
   -6.1051    1.0246   -0.5954 C   0  0  0  0  0  0  0  0  0  0  0  0
   -7.1563    1.4242   -1.3482 N   0  0  0  0  0  0  0  0  0  0  0  0
   -8.1894    0.6133   -1.6383 C   0  0  0  0  0  0  0  0  0  0  0  0
   -9.2822    1.0686   -2.4363 N   0  0  0  0  0  0  0  0  0  0  0  0
   -8.1457   -0.6377   -1.1457 N   0  0  0  0  0  0  0  0  0  0  0  0
   -7.1235   -1.0839   -0.3922 C   0  0  0  0  0  0  0  0  0  0  0  0
   -7.0764   -2.4115    0.1306 N   0  0  0  0  0  0  0  0  0  0  0  0
   -6.0605   -0.2574   -0.0909 C   0  0  0  0  0  0  0  0  0  0  0  0
   -5.0136   -0.6666    0.6630 N   0  0  0  0  0  0  0  0  0  0  0  0
   -0.4957   -0.3032    0.9197 C   0  0  0  0  0  0  0  0  0  0  0  0
   -0.1286    0.8088    1.5976 C   0  0  0  0  0  0  0  0  0  0  0  0
    1.1702    1.3286    1.5033 C   0  0  0  0  0  0  0  0  0  0  0  0
    2.0918    0.6948    0.7044 C   0  0  0  0  0  0  0  0  0  0  0  0
    3.4590    1.2654    0.6207 C   0  0  0  0  0  0  0  0  0  0  0  0
    3.7534    2.3099    1.2611 O   0  0  0  0  0  0  0  0  0  0  0  0
    4.4918    0.6928   -0.1593 N   0  0  0  0  0  0  0  0  0  0  0  0
    5.8235    1.2609   -0.2325 C   0  0  1  0  0  0  0  0  0  0  0  0
    6.7838    0.3114    0.4160 C   0  0  0  0  0  0  0  0  0  0  0  0
    6.8545   -1.0575   -0.1871 C   0  0  0  0  0  0  0  0  0  0  0  0
    7.2700   -1.0918   -1.5996 C   0  0  0  0  0  0  0  0  0  0  0  0
    6.4368   -1.1323   -2.5349 O   0  0  0  0  0  0  0  0  0  0  0  0
    8.6157   -1.0801   -1.9385 O   0  0  0  0  0  0  0  0  0  0  0  0
    6.2077    1.7210   -1.5795 C   0  0  0  0  0  0  0  0  0  0  0  0
    7.3709    2.1623   -1.7431 O   0  0  0  0  0  0  0  0  0  0  0  0
    5.3669    1.7009   -2.6804 O   0  0  0  0  0  0  0  0  0  0  0  0
    1.7345   -0.4212    0.0199 C   0  0  0  0  0  0  0  0  0  0  0  0
    0.4430   -0.9243    0.1238 C   0  0  0  0  0  0  0  0  0  0  0  0
   -2.1279   -1.7837   -0.8554 H   0  0  0  0  0  0  0  0  0  0  0  0
   -3.1125   -2.4615    0.5304 H   0  0  0  0  0  0  0  0  0  0  0  0
   -1.3902   -2.8577    0.4415 H   0  0  0  0  0  0  0  0  0  0  0  0
   -3.1621   -1.1574    2.4565 H   0  0  0  0  0  0  0  0  0  0  0  0
   -2.5560    0.4919    2.4736 H   0  0  0  0  0  0  0  0  0  0  0  0
   -3.2114    2.1079    0.6606 H   0  0  0  0  0  0  0  0  0  0  0  0
   -9.9908    1.6837   -1.9816 H   0  0  0  0  0  0  0  0  0  0  0  0
   -9.4049    0.8209   -3.4341 H   0  0  0  0  0  0  0  0  0  0  0  0
   -6.8010   -2.5108    1.1378 H   0  0  0  0  0  0  0  0  0  0  0  0
   -7.2978   -3.2603   -0.4306 H   0  0  0  0  0  0  0  0  0  0  0  0
   -0.8489    1.3398    2.2449 H   0  0  0  0  0  0  0  0  0  0  0  0
    1.4481    2.2175    2.0509 H   0  0  0  0  0  0  0  0  0  0  0  0
    4.3129   -0.1688   -0.7100 H   0  0  0  0  0  0  0  0  0  0  0  0
    5.8729    2.1957    0.4085 H   0  0  0  0  0  0  0  0  0  0  0  0
    7.7990    0.7589    0.5402 H   0  0  0  0  0  0  0  0  0  0  0  0
    6.3851    0.1632    1.4681 H   0  0  0  0  0  0  0  0  0  0  0  0
    7.6457   -1.6111    0.3922 H   0  0  0  0  0  0  0  0  0  0  0  0
    5.9303   -1.6514   -0.0017 H   0  0  0  0  0  0  0  0  0  0  0  0
    8.8640   -0.8386   -2.8891 H   0  0  0  0  0  0  0  0  0  0  0  0
    5.7233    1.7782   -3.6450 H   0  0  0  0  0  0  0  0  0  0  0  0
    2.4562   -0.9308   -0.6160 H   0  0  0  0  0  0  0  0  0  0  0  0
    0.1870   -1.8317   -0.4447 H   0  0  0  0  0  0  0  0  0  0  0  0
  1  2  1  0
  2  3  1  0
  3  4  1  0
  4  5  2  0
  5  6  1  0
  6  7  2  0
  7  8  1  0
  8  9  2  0
  9 10  1  0
  9 11  1  0
 11 12  2  0
 12 13  1  0
 12 14  1  0
 14 15  2  0
  2 16  1  0
 16 17  2  0
 17 18  1  0
 18 19  2  0
 19 20  1  0
 20 21  2  0
 20 22  1  0
 22 23  1  0
 23 24  1  0
 24 25  1  0
 25 26  1  0
 26 27  2  0
 26 28  1  0
 23 29  1  0
 29 30  2  0
 29 31  1  0
 19 32  1  0
 32 33  2  0
 15  4  1  0
 33 16  1  0
 14  7  1  0
  1 34  1  0
  1 35  1  0
  1 36  1  0
  3 37  1  0
  3 38  1  0
  5 39  1  0
 10 40  1  0
 10 41  1  0
 13 42  1  0
 13 43  1  0
 17 44  1  0
 18 45  1  0
 22 46  1  0
 23 47  1  1
 24 48  1  0
 24 49  1  0
 25 50  1  0
 25 51  1  0
 28 52  1  0
 31 53  1  0
 32 54  1  0
 33 55  1  0
M  END
$$$$
