@<TRIPOS>MOLECULE
*****
 55 57 0 0 0
SMALL
GASTEIGER

@<TRIPOS>ATOM
      1 C          -2.1291   -2.0666    0.2157 C.3     0  UNK0        0.0011
      2 N          -1.7779   -0.8655    0.9809 N.pl3   0  UNK0       -0.3271
      3 C          -2.8144   -0.3015    1.7909 C.3     0  UNK0        0.0555
      4 C          -3.9831    0.1479    0.9500 C.ar    0  UNK0        0.0774
      5 C          -4.0356    1.4290    0.4412 C.ar    0  UNK0        0.0528
      6 N          -5.0779    1.8428   -0.3117 N.ar    0  UNK0       -0.2324
      7 C          -6.1051    1.0246   -0.5954 C.ar    0  UNK0        0.1851
      8 N          -7.1563    1.4242   -1.3482 N.ar    0  UNK0       -0.1932
      9 C          -8.1894    0.6133   -1.6383 C.ar    0  UNK0        0.2163
     10 N          -9.2822    1.0686   -2.4363 N.pl3   0  UNK0       -0.3274
     11 N          -8.1457   -0.6377   -1.1457 N.ar    0  UNK0       -0.1978
     12 C          -7.1235   -1.0839   -0.3922 C.ar    0  UNK0        0.1491
     13 N          -7.0764   -2.4115    0.1306 N.pl3   0  UNK0       -0.3413
     14 C          -6.0605   -0.2574   -0.0909 C.ar    0  UNK0        0.1477
     15 N          -5.0136   -0.6666    0.6630 N.ar    0  UNK0       -0.2419
     16 C          -0.4957   -0.3032    0.9197 C.ar    0  UNK0        0.0298
     17 C          -0.1286    0.8088    1.5976 C.ar    0  UNK0       -0.0399
     18 C           1.1702    1.3286    1.5033 C.ar    0  UNK0       -0.0479
     19 C           2.0918    0.6948    0.7044 C.ar    0  UNK0        0.0368
     20 C           3.4590    1.2654    0.6207 C.2     0  UNK0        0.2447
     21 O           3.7534    2.3099    1.2611 O.2     0  UNK0       -0.2702
     22 N           4.4918    0.6928   -0.1593 N.am    1  GLU1       -0.2983
     23 CA          5.8235    1.2609   -0.2325 C.3     1  GLU1        0.1209
     24 CB          6.7838    0.3114    0.4160 C.3     1  GLU1       -0.0140
     25 CG          6.8545   -1.0575   -0.1871 C.3     1  GLU1        0.0470
     26 CD          7.2700   -1.0918   -1.5996 C.2     1  GLU1        0.3048
     27 OE1         6.4368   -1.1323   -2.5349 O.2     1  GLU1       -0.2510
     28 OE2         8.6157   -1.0801   -1.9385 O.3     1  GLU1       -0.4806
     29 C           6.2077    1.7210   -1.5795 C.2     1  GLU1        0.3253
     30 O           7.3709    2.1623   -1.7431 O.2     1  GLU1       -0.2489
     31 OXT         5.3669    1.7009   -2.6804 O.3     1  GLU1       -0.4793
     32 C           1.7345   -0.4212    0.0199 C.ar    0  UNK0       -0.0479
     33 C           0.4430   -0.9243    0.1238 C.ar    0  UNK0       -0.0399
     34 H          -2.1279   -1.7837   -0.8554 H       0  UNK0        0.0428
     35 H          -3.1125   -2.4615    0.5304 H       0  UNK0        0.0428
     36 H          -1.3902   -2.8577    0.4415 H       0  UNK0        0.0428
     37 H          -3.1621   -1.1574    2.4565 H       0  UNK0        0.0529
     38 H          -2.5560    0.4919    2.4736 H       0  UNK0        0.0529
     39 H          -3.2114    2.1079    0.6606 H       0  UNK0        0.0849
     40 H          -9.9908    1.6837   -1.9816 H       0  UNK0        0.1452
     41 H          -9.4049    0.8209   -3.4341 H       0  UNK0        0.1452
     42 H          -6.8010   -2.5108    1.1378 H       0  UNK0        0.1438
     43 H          -7.2978   -3.2603   -0.4306 H       0  UNK0        0.1438
     44 H          -0.8489    1.3398    2.2449 H       0  UNK0        0.0636
     45 H           1.4481    2.2175    2.0509 H       0  UNK0        0.0626
     46 H           4.3129   -0.1688   -0.7100 H       1  GLU1        0.1498
     47 HA          5.8729    2.1957    0.4085 H       1  GLU1        0.0614
     48 HB1         7.7990    0.7589    0.5402 H       1  GLU1        0.0294
     49 HB2         6.3851    0.1632    1.4681 H       1  GLU1        0.0294
     50 HG1         7.6457   -1.6111    0.3922 H       1  GLU1        0.0378
     51 HG2         5.9303   -1.6514   -0.0017 H       1  GLU1        0.0378
     52 HE2         8.8640   -0.8386   -2.8891 H       1  GLU1        0.2951
     53 HXT         5.7233    1.7782   -3.6450 H       1  GLU1        0.2951
     54 H           2.4562   -0.9308   -0.6160 H       0  UNK0        0.0626
     55 H           0.1870   -1.8317   -0.4447 H       0  UNK0        0.0636
@<TRIPOS>BOND
     1     1     2    1
     2     2     3    1
     3     3     4    1
     4     4     5   ar
     5     5     6   ar
     6     6     7   ar
     7     7     8   ar
     8     8     9   ar
     9     9    10    1
    10     9    11   ar
    11    11    12   ar
    12    12    13    1
    13    12    14   ar
    14    14    15   ar
    15     2    16    1
    16    16    17   ar
    17    17    18   ar
    18    18    19   ar
    19    19    20    1
    20    20    21    2
    21    20    22   am
    22    22    23    1
    23    23    24    1
    24    24    25    1
    25    25    26    1
    26    26    27    2
    27    26    28    1
    28    23    29    1
    29    29    30    2
    30    29    31    1
    31    19    32   ar
    32    32    33   ar
    33    15     4   ar
    34    33    16   ar
    35    14     7   ar
    36     1    34    1
    37     1    35    1
    38     1    36    1
    39     3    37    1
    40     3    38    1
    41     5    39    1
    42    10    40    1
    43    10    41    1
    44    13    42    1
    45    13    43    1
    46    17    44    1
    47    18    45    1
    48    22    46    1
    49    23    47    1
    50    24    48    1
    51    24    49    1
    52    25    50    1
    53    25    51    1
    54    28    52    1
    55    31    53    1
    56    32    54    1
    57    33    55    1
