
     RDKit          3D

 41 44  0  0  0  0  0  0  0  0999 V2000
    4.7977   -1.3008    3.2576 N   0  0  0  0  0  0  0  0  0  0  0  0
    4.1744   -1.7126    2.3795 C   0  0  0  0  0  0  0  0  0  0  0  0
    3.4213   -2.2194    1.2757 C   0  0  0  0  0  0  0  0  0  0  0  0
    3.6422   -3.4687    0.7271 C   0  0  0  0  0  0  0  0  0  0  0  0
    2.7590   -3.6199   -0.2826 N   0  0  0  0  0  0  0  0  0  0  0  0
    2.0005   -2.5161   -0.3819 C   0  0  0  0  0  0  0  0  0  0  0  0
    0.9745   -2.2049   -1.2499 C   0  0  0  0  0  0  0  0  0  0  0  0
    0.3907   -0.9639   -1.0793 C   0  0  0  0  0  0  0  0  0  0  0  0
    0.8167   -0.0899   -0.0934 C   0  0  0  0  0  0  0  0  0  0  0  0
    0.1500    1.1950    0.0240 C   0  0  0  0  0  0  0  0  0  0  0  0
   -1.1911    1.3575    0.3913 C   0  0  0  0  0  0  0  0  0  0  0  0
   -2.1440    0.2743    0.7285 C   0  0  0  0  0  0  0  0  0  0  0  0
   -1.9204   -0.5535    1.7989 C   0  0  0  0  0  0  0  0  0  0  0  0
   -2.7927   -1.5626    2.1290 C   0  0  0  0  0  0  0  0  0  0  0  0
   -3.9139   -1.7244    1.3470 C   0  0  0  0  0  0  0  0  0  0  0  0
   -4.7934   -2.7077    1.6437 F   0  0  0  0  0  0  0  0  0  0  0  0
   -4.1547   -0.9027    0.2683 C   0  0  0  0  0  0  0  0  0  0  0  0
   -3.2703    0.1053   -0.0504 C   0  0  0  0  0  0  0  0  0  0  0  0
   -3.5078    1.0140   -1.2140 C   0  0  0  0  0  0  0  0  0  0  0  0
   -2.4906    0.9452   -2.1421 F   0  0  0  0  0  0  0  0  0  0  0  0
   -3.7214    2.3272   -0.7936 F   0  0  0  0  0  0  0  0  0  0  0  0
   -4.7257    0.6228   -1.7760 F   0  0  0  0  0  0  0  0  0  0  0  0
   -1.3878    2.6841    0.3671 N   0  0  0  0  0  0  0  0  0  0  0  0
   -0.2758    3.3238    0.0169 C   0  0  0  0  0  0  0  0  0  0  0  0
    0.6823    2.4066   -0.1975 N   0  0  0  0  0  0  0  0  0  0  0  0
    2.0466    2.6200   -0.5894 C   0  0  0  0  0  0  0  0  0  0  0  0
    2.2693    2.6211   -2.0731 C   0  0  0  0  0  0  0  0  0  0  0  0
    1.8904    1.4157   -2.6095 F   0  0  0  0  0  0  0  0  0  0  0  0
    1.7024    3.6878   -2.7174 F   0  0  0  0  0  0  0  0  0  0  0  0
    1.8236   -0.4901    0.6987 N   0  0  0  0  0  0  0  0  0  0  0  0
    2.4230   -1.6629    0.5871 N   0  0  0  0  0  0  0  0  0  0  0  0
    4.3668   -4.2204    1.0118 H   0  0  0  0  0  0  0  0  0  0  0  0
    0.6300   -2.8745   -2.0246 H   0  0  0  0  0  0  0  0  0  0  0  0
   -0.4170   -0.7256   -1.7657 H   0  0  0  0  0  0  0  0  0  0  0  0
   -1.0248   -0.3948    2.3921 H   0  0  0  0  0  0  0  0  0  0  0  0
   -2.6017   -2.2080    2.9767 H   0  0  0  0  0  0  0  0  0  0  0  0
   -5.0405   -1.0187   -0.3627 H   0  0  0  0  0  0  0  0  0  0  0  0
   -0.1116    4.3851   -0.0924 H   0  0  0  0  0  0  0  0  0  0  0  0
    2.7330    1.8548   -0.1508 H   0  0  0  0  0  0  0  0  0  0  0  0
    2.4117    3.5934   -0.1497 H   0  0  0  0  0  0  0  0  0  0  0  0
    3.3789    2.7086   -2.2250 H   0  0  0  0  0  0  0  0  0  0  0  0
  1  2  3  0
  2  3  1  0
  3  4  2  0
  4  5  1  0
  5  6  2  0
  6  7  1  0
  7  8  2  0
  8  9  1  0
  9 10  1  0
 10 11  2  0
 11 12  1  0
 12 13  2  0
 13 14  1  0
 14 15  2  0
 15 16  1  0
 15 17  1  0
 17 18  2  0
 18 19  1  0
 19 20  1  0
 19 21  1  0
 19 22  1  0
 11 23  1  0
 23 24  2  0
 24 25  1  0
 25 26  1  0
 26 27  1  0
 27 28  1  0
 27 29  1  0
  9 30  2  0
 30 31  1  0
 31  3  1  0
 31  6  1  0
 25 10  1  0
 18 12  1  0
  4 32  1  0
  7 33  1  0
  8 34  1  0
 13 35  1  0
 14 36  1  0
 17 37  1  0
 24 38  1  0
 26 39  1  0
 26 40  1  0
 27 41  1  0
M  END
$$$$
