@<TRIPOS>MOLECULE
*****
 41 44 0 0 0
SMALL
GASTEIGER

@<TRIPOS>ATOM
      1 N           4.7977   -1.3008    3.2576 N.1     1  UNL1       -0.1892
      2 C           4.1744   -1.7126    2.3795 C.1     1  UNL1        0.1208
      3 C           3.4213   -2.2194    1.2757 C.ar    1  UNL1        0.1618
      4 C           3.6422   -3.4687    0.7271 C.ar    1  UNL1        0.0659
      5 N           2.7590   -3.6199   -0.2826 N.ar    1  UNL1       -0.2333
      6 C           2.0005   -2.5161   -0.3819 C.ar    1  UNL1        0.1555
      7 C           0.9745   -2.2049   -1.2499 C.ar    1  UNL1       -0.0153
      8 C           0.3907   -0.9639   -1.0793 C.ar    1  UNL1       -0.0290
      9 C           0.8167   -0.0899   -0.0934 C.ar    1  UNL1        0.1103
     10 C           0.1500    1.1950    0.0240 C.ar    1  UNL1        0.0968
     11 C          -1.1911    1.3575    0.3913 C.ar    1  UNL1        0.0988
     12 C          -2.1440    0.2743    0.7285 C.ar    1  UNL1        0.0143
     13 C          -1.9204   -0.5535    1.7989 C.ar    1  UNL1       -0.0492
     14 C          -2.7927   -1.5626    2.1290 C.ar    1  UNL1       -0.0258
     15 C          -3.9139   -1.7244    1.3470 C.ar    1  UNL1        0.1240
     16 F          -4.7934   -2.7077    1.6437 F       1  UNL1       -0.2055
     17 C          -4.1547   -0.9027    0.2683 C.ar    1  UNL1       -0.0142
     18 C          -3.2703    0.1053   -0.0504 C.ar    1  UNL1        0.0667
     19 C          -3.5078    1.0140   -1.2140 C.3     1  UNL1        0.4181
     20 F          -2.4906    0.9452   -2.1421 F       1  UNL1       -0.1659
     21 F          -3.7214    2.3272   -0.7936 F       1  UNL1       -0.1659
     22 F          -4.7257    0.6228   -1.7760 F       1  UNL1       -0.1659
     23 N          -1.3878    2.6841    0.3671 N.ar    1  UNL1       -0.2351
     24 C          -0.2758    3.3238    0.0169 C.ar    1  UNL1        0.0973
     25 N           0.6823    2.4066   -0.1975 N.ar    1  UNL1       -0.3229
     26 C           2.0466    2.6200   -0.5894 C.3     1  UNL1        0.0852
     27 C           2.2693    2.6211   -2.0731 C.3     1  UNL1        0.2569
     28 F           1.8904    1.4157   -2.6095 F       1  UNL1       -0.2073
     29 F           1.7024    3.6878   -2.7174 F       1  UNL1       -0.2073
     30 N           1.8236   -0.4901    0.6987 N.ar    1  UNL1       -0.1623
     31 N           2.4230   -1.6629    0.5871 N.ar    1  UNL1       -0.2023
     32 H           4.3668   -4.2204    1.0118 H       1  UNL1        0.0859
     33 H           0.6300   -2.8745   -2.0246 H       1  UNL1        0.0655
     34 H          -0.4170   -0.7256   -1.7657 H       1  UNL1        0.0641
     35 H          -1.0248   -0.3948    2.3921 H       1  UNL1        0.0625
     36 H          -2.6017   -2.2080    2.9767 H       1  UNL1        0.0646
     37 H          -5.0405   -1.0187   -0.3627 H       1  UNL1        0.0652
     38 H          -0.1116    4.3851   -0.0924 H       1  UNL1        0.1029
     39 H           2.7330    1.8548   -0.1508 H       1  UNL1        0.0548
     40 H           2.4117    3.5934   -0.1497 H       1  UNL1        0.0548
     41 H           3.3789    2.7086   -2.2250 H       1  UNL1        0.1037
@<TRIPOS>BOND
     1     1     2    3
     2     2     3    1
     3     3     4   ar
     4     4     5   ar
     5     5     6   ar
     6     6     7   ar
     7     7     8   ar
     8     8     9   ar
     9     9    10    1
    10    10    11   ar
    11    11    12    1
    12    12    13   ar
    13    13    14   ar
    14    14    15   ar
    15    15    16    1
    16    15    17   ar
    17    17    18   ar
    18    18    19    1
    19    19    20    1
    20    19    21    1
    21    19    22    1
    22    11    23   ar
    23    23    24   ar
    24    24    25   ar
    25    25    26    1
    26    26    27    1
    27    27    28    1
    28    27    29    1
    29     9    30   ar
    30    30    31   ar
    31    31     3   ar
    32    31     6   ar
    33    25    10   ar
    34    18    12   ar
    35     4    32    1
    36     7    33    1
    37     8    34    1
    38    13    35    1
    39    14    36    1
    40    17    37    1
    41    24    38    1
    42    26    39    1
    43    26    40    1
    44    27    41    1
