@<TRIPOS>MOLECULE
*****
 80 85 0 0 0
SMALL
GASTEIGER

@<TRIPOS>ATOM
      1 C          -7.1366    4.0040   -0.0361 C.3     1  UNL1        0.0790
      2 O          -6.6331    2.7481   -0.4277 O.3     1  UNL1       -0.4914
      3 C          -5.3277    2.3968   -0.1543 C.ar    1  UNL1        0.1618
      4 C          -4.5056    3.2780    0.5074 C.ar    1  UNL1       -0.0160
      5 C          -3.1934    2.8993    0.7710 C.ar    1  UNL1       -0.0534
      6 C          -2.7310    1.6639    0.3746 C.ar    1  UNL1       -0.0255
      7 C          -3.5989    0.8231   -0.2845 C.ar    1  UNL1        0.0158
      8 C          -4.9049    1.1455   -0.5708 C.ar    1  UNL1        0.1667
      9 O          -5.4676    0.0665   -1.2347 O.3     1  UNL1       -0.4836
     10 C          -4.7511   -1.0877   -0.8484 C.3     1  UNL1        0.1161
     11 C          -4.9375   -2.2433   -1.7551 C.3     1  UNL1        0.0151
     12 C          -3.9234   -2.4283   -2.8203 C.3     1  UNL1        0.0768
     13 O          -4.4999   -2.8450   -4.0402 O.3     1  UNL1       -0.3876
     14 C          -3.0140   -1.3155   -3.0759 C.2     1  UNL1       -0.0588
     15 C          -2.7348   -0.4364   -2.1348 C.2     1  UNL1       -0.0715
     16 C          -3.3397   -0.5657   -0.8073 C.3     1  UNL1        0.0558
     17 C          -2.4679   -1.2852    0.1673 C.3     1  UNL1       -0.0235
     18 C          -2.5005   -0.5358    1.4923 C.3     1  UNL1        0.0004
     19 N          -1.2263    0.1889    1.5967 N.3     1  UNL1       -0.2981
     20 C          -1.0086    0.6566    2.9352 C.3     1  UNL1       -0.0007
     21 C          -0.7884   -0.3766    3.9506 C.3     1  UNL1       -0.0371
     22 C           0.3661   -1.2852    3.8971 C.3     1  UNL1       -0.0175
     23 C           0.5225   -2.1428    2.7122 C.3     1  UNL1        0.0896
     24 O           0.7625   -1.5328    1.5214 O.3     1  UNL1       -0.4920
     25 C           1.7910   -0.7979    1.0393 C.ar    1  UNL1        0.1205
     26 C           2.9167   -0.5225    1.7613 C.ar    1  UNL1       -0.0196
     27 C           3.9743    0.2444    1.2444 C.ar    1  UNL1       -0.0539
     28 C           3.9050    0.7493   -0.0298 C.ar    1  UNL1       -0.0331
     29 C           4.9855    1.5649   -0.6276 C.3     1  UNL1        0.0240
     30 N           5.9832    0.7991   -1.3332 N.3     1  UNL1       -0.2982
     31 C           6.6087   -0.1061   -0.4245 C.3     1  UNL1       -0.0008
     32 C           7.7036   -0.9255   -1.0744 C.3     1  UNL1       -0.0402
     33 C           7.2998   -1.4133   -2.4444 C.3     1  UNL1       -0.0507
     34 C           6.6605   -0.3652   -3.2966 C.3     1  UNL1       -0.0402
     35 C           5.4608    0.1841   -2.5115 C.3     1  UNL1       -0.0008
     36 C           2.7700    0.4718   -0.7605 C.ar    1  UNL1       -0.0539
     37 C           1.7305   -0.2752   -0.2675 C.ar    1  UNL1       -0.0196
     38 C          -1.3140    1.3977    0.7305 C.3     1  UNL1        0.0244
     39 H          -6.6611    4.8477   -0.5898 H       1  UNL1        0.0660
     40 H          -8.2393    4.0503   -0.2519 H       1  UNL1        0.0660
     41 H          -6.9811    4.1961    1.0510 H       1  UNL1        0.0660
     42 H          -4.8794    4.2615    0.8215 H       1  UNL1        0.0655
     43 H          -2.5115    3.5584    1.2877 H       1  UNL1        0.0622
     44 H          -5.0591   -1.3429    0.1817 H       1  UNL1        0.0746
     45 H          -5.0389   -3.1719   -1.1261 H       1  UNL1        0.0329
     46 H          -5.9566   -2.1409   -2.2313 H       1  UNL1        0.0329
     47 H          -3.2776   -3.3075   -2.5214 H       1  UNL1        0.0639
     48 H          -5.4841   -2.6339   -3.9635 H       1  UNL1        0.2102
     49 H          -2.5591   -1.2208   -4.0813 H       1  UNL1        0.0595
     50 H          -2.0500    0.4047   -2.3199 H       1  UNL1        0.0580
     51 H          -1.4369   -1.3739   -0.2287 H       1  UNL1        0.0290
     52 H          -2.8619   -2.3184    0.2849 H       1  UNL1        0.0290
     53 H          -3.3655    0.1357    1.5957 H       1  UNL1        0.0427
     54 H          -2.5637   -1.2832    2.2961 H       1  UNL1        0.0427
     55 H          -1.9098    1.2981    3.1978 H       1  UNL1        0.0427
     56 H          -0.1775    1.4038    2.8682 H       1  UNL1        0.0427
     57 H          -0.7195    0.1713    4.9641 H       1  UNL1        0.0279
     58 H          -1.7201   -1.0037    4.1020 H       1  UNL1        0.0279
     59 H           0.2349   -1.9930    4.7971 H       1  UNL1        0.0298
     60 H           1.3119   -0.7293    4.1693 H       1  UNL1        0.0298
     61 H          -0.3894   -2.8347    2.6540 H       1  UNL1        0.0696
     62 H           1.3527   -2.9094    2.8753 H       1  UNL1        0.0696
     63 H           3.0473   -0.9056    2.7641 H       1  UNL1        0.0654
     64 H           4.8484    0.4317    1.8705 H       1  UNL1        0.0622
     65 H           4.5069    2.2343   -1.3855 H       1  UNL1        0.0476
     66 H           5.4416    2.2547    0.1143 H       1  UNL1        0.0476
     67 H           7.0754    0.4745    0.3956 H       1  UNL1        0.0427
     68 H           5.8575   -0.7847    0.0671 H       1  UNL1        0.0427
     69 H           7.8711   -1.8153   -0.4352 H       1  UNL1        0.0278
     70 H           8.6597   -0.3628   -1.0960 H       1  UNL1        0.0278
     71 H           6.6712   -2.3010   -2.4216 H       1  UNL1        0.0266
     72 H           8.2539   -1.7140   -2.9576 H       1  UNL1        0.0266
     73 H           7.3129    0.4874   -3.5177 H       1  UNL1        0.0278
     74 H           6.3056   -0.8472   -4.2204 H       1  UNL1        0.0278
     75 H           4.8955    0.9103   -3.0964 H       1  UNL1        0.0427
     76 H           4.8315   -0.6885   -2.1710 H       1  UNL1        0.0427
     77 H           2.7172    0.8708   -1.7662 H       1  UNL1        0.0622
     78 H           0.8401   -0.5026   -0.8279 H       1  UNL1        0.0654
     79 H          -0.7615    1.1393   -0.1895 H       1  UNL1        0.0476
     80 H          -0.8680    2.2588    1.2406 H       1  UNL1        0.0476
@<TRIPOS>BOND
     1     1     2    1
     2     2     3    1
     3     3     4   ar
     4     4     5   ar
     5     5     6   ar
     6     6     7   ar
     7     7     8   ar
     8     8     9    1
     9     9    10    1
    10    10    11    1
    11    11    12    1
    12    12    13    1
    13    12    14    1
    14    14    15    2
    15    15    16    1
    16    16    17    1
    17    17    18    1
    18    18    19    1
    19    19    20    1
    20    20    21    1
    21    21    22    1
    22    22    23    1
    23    23    24    1
    24    24    25    1
    25    25    26   ar
    26    26    27   ar
    27    27    28   ar
    28    28    29    1
    29    29    30    1
    30    30    31    1
    31    31    32    1
    32    32    33    1
    33    33    34    1
    34    34    35    1
    35    28    36   ar
    36    36    37   ar
    37    19    38    1
    38     8     3   ar
    39    16    10    1
    40    37    25   ar
    41    38     6    1
    42    16     7    1
    43    35    30    1
    44     1    39    1
    45     1    40    1
    46     1    41    1
    47     4    42    1
    48     5    43    1
    49    10    44    1
    50    11    45    1
    51    11    46    1
    52    12    47    1
    53    13    48    1
    54    14    49    1
    55    15    50    1
    56    17    51    1
    57    17    52    1
    58    18    53    1
    59    18    54    1
    60    20    55    1
    61    20    56    1
    62    21    57    1
    63    21    58    1
    64    22    59    1
    65    22    60    1
    66    23    61    1
    67    23    62    1
    68    26    63    1
    69    27    64    1
    70    29    65    1
    71    29    66    1
    72    31    67    1
    73    31    68    1
    74    32    69    1
    75    32    70    1
    76    33    71    1
    77    33    72    1
    78    34    73    1
    79    34    74    1
    80    35    75    1
    81    35    76    1
    82    36    77    1
    83    37    78    1
    84    38    79    1
    85    38    80    1
