@<TRIPOS>MOLECULE
*****
 50 53 0 0 0
SMALL
GASTEIGER

@<TRIPOS>ATOM
      1 C           1.1935   -2.4307   -1.8634 C.3     1  UNL1       -0.0405
      2 C           1.0270   -2.6408   -0.3742 C.3     1  UNL1        0.0691
      3 N          -0.2726   -2.1837    0.0800 N.pl3   1  UNL1       -0.3049
      4 C          -0.6549   -0.8297   -0.0852 C.ar    1  UNL1        0.2175
      5 N           0.1744    0.0574   -0.6636 N.ar    1  UNL1       -0.2199
      6 C          -0.1681    1.3637   -0.8344 C.ar    1  UNL1        0.0698
      7 C          -1.4274    1.7600   -0.3831 C.ar    1  UNL1        0.1817
      8 F          -1.8608    3.0361   -0.5070 F       1  UNL1       -0.2003
      9 C          -2.2824    0.8494    0.2121 C.ar    1  UNL1        0.1711
     10 N          -3.5705    1.2290    0.6801 N.am    1  UNL1       -0.2101
     11 C          -3.9477    1.7125    1.9734 C.2     1  UNL1        0.4088
     12 O          -3.2086    1.6777    3.0035 O.2     1  UNL1       -0.2258
     13 O          -5.2396    2.2221    1.9254 O.3     1  UNL1       -0.4480
     14 C          -5.5494    2.3517    0.5595 C.3     1  UNL1        0.1155
     15 C          -4.8397    1.2133   -0.0688 C.3     1  UNL1        0.0954
     16 C          -5.4543   -0.1311    0.1804 C.3     1  UNL1        0.0746
     17 C          -6.7561   -0.3615   -0.4855 C.3     1  UNL1       -0.0371
     18 O          -4.5316   -1.0897   -0.3011 O.3     1  UNL1       -0.3901
     19 N          -1.8604   -0.4082    0.3364 N.ar    1  UNL1       -0.1961
     20 C           2.1304   -1.8927    0.2745 C.ar    1  UNL1        0.0989
     21 N           3.1743   -1.3516    0.0715 N.ar    1  UNL1       -0.2422
     22 C           3.9734   -0.7322    0.8976 C.ar    1  UNL1        0.0785
     23 C           5.2564   -0.1048    0.4682 C.ar    1  UNL1        0.0009
     24 C           6.0597    0.5328    1.3697 C.ar    1  UNL1       -0.0515
     25 C           7.2609    1.1162    0.9489 C.ar    1  UNL1       -0.0471
     26 C           7.6734    1.0720   -0.3655 C.ar    1  UNL1        0.0179
     27 BR          9.3146    1.8704   -0.9345 Br      1  UNL1       -0.0503
     28 C           6.8461    0.4212   -1.2668 C.ar    1  UNL1       -0.0471
     29 C           5.6655   -0.1499   -0.8418 C.ar    1  UNL1       -0.0515
     30 C           3.5246   -0.7092    2.2074 C.ar    1  UNL1        0.0034
     31 S           2.0005   -1.5722    2.1552 S.2     1  UNL1       -0.0781
     32 H           1.9082   -1.6274   -2.1078 H       1  UNL1        0.0251
     33 H           1.5411   -3.3439   -2.3788 H       1  UNL1        0.0251
     34 H           0.2190   -2.1645   -2.3517 H       1  UNL1        0.0251
     35 H           1.1593   -3.7107   -0.1257 H       1  UNL1        0.0566
     36 H          -0.9278   -2.8581    0.5306 H       1  UNL1        0.1496
     37 H           0.4759    2.0862   -1.2917 H       1  UNL1        0.0861
     38 H          -5.0953    3.2924    0.2050 H       1  UNL1        0.0718
     39 H          -6.6259    2.4127    0.3535 H       1  UNL1        0.0718
     40 H          -4.5683    1.3476   -1.1197 H       1  UNL1        0.0565
     41 H          -5.5558   -0.3529    1.2629 H       1  UNL1        0.0610
     42 H          -6.9622    0.2875   -1.3553 H       1  UNL1        0.0255
     43 H          -7.6007   -0.2919    0.2585 H       1  UNL1        0.0255
     44 H          -6.8107   -1.4141   -0.8705 H       1  UNL1        0.0255
     45 H          -4.6747   -1.2507   -1.2823 H       1  UNL1        0.2098
     46 H           5.7588    0.5814    2.4069 H       1  UNL1        0.0624
     47 H           7.8704    1.6092    1.6773 H       1  UNL1        0.0629
     48 H           7.1596    0.3815   -2.2947 H       1  UNL1        0.0629
     49 H           5.0310   -0.6546   -1.5594 H       1  UNL1        0.0624
     50 H           4.0472   -0.2272    3.1161 H       1  UNL1        0.0715
@<TRIPOS>BOND
     1     1     2    1
     2     2     3    1
     3     3     4    1
     4     4     5   ar
     5     5     6   ar
     6     6     7   ar
     7     7     8    1
     8     7     9   ar
     9     9    10    1
    10    10    11   am
    11    11    12    2
    12    11    13    1
    13    13    14    1
    14    14    15    1
    15    15    16    1
    16    16    17    1
    17    16    18    1
    18     9    19   ar
    19     2    20    1
    20    20    21   ar
    21    21    22   ar
    22    22    23    1
    23    23    24   ar
    24    24    25   ar
    25    25    26   ar
    26    26    27    1
    27    26    28   ar
    28    28    29   ar
    29    22    30   ar
    30    30    31   ar
    31    19     4   ar
    32    31    20   ar
    33    15    10    1
    34    29    23   ar
    35     1    32    1
    36     1    33    1
    37     1    34    1
    38     2    35    1
    39     3    36    1
    40     6    37    1
    41    14    38    1
    42    14    39    1
    43    15    40    1
    44    16    41    1
    45    17    42    1
    46    17    43    1
    47    17    44    1
    48    18    45    1
    49    24    46    1
    50    25    47    1
    51    28    48    1
    52    29    49    1
    53    30    50    1
