
     RDKit          3D

 39 41  0  0  0  0  0  0  0  0999 V2000
    0.1588   -3.4086    2.3198 C   0  0  0  0  0  0  0  0  0  0  0  0
   -0.0057   -2.4959    1.1544 C   0  0  0  0  0  0  0  0  0  0  0  0
   -1.1571   -2.4495    0.3993 C   0  0  0  0  0  0  0  0  0  0  0  0
   -1.3246   -1.6010   -0.6929 C   0  0  0  0  0  0  0  0  0  0  0  0
   -2.5100   -1.5925   -1.4244 O   0  0  0  0  0  0  0  0  0  0  0  0
   -3.5303   -0.7311   -1.0436 C   0  0  0  0  0  0  0  0  0  0  0  0
   -3.5673    0.5338   -1.5823 C   0  0  0  0  0  0  0  0  0  0  0  0
   -4.5658    1.3782   -1.2103 N   0  0  0  0  0  0  0  0  0  0  0  0
   -5.5206    1.0228   -0.3338 C   0  0  0  0  0  0  0  0  0  0  0  0
   -6.6080    1.9365    0.0739 C   0  0  0  0  0  0  0  0  0  0  0  0
   -5.4566   -0.2147    0.1724 N   0  0  0  0  0  0  0  0  0  0  0  0
   -4.5067   -1.1037   -0.1432 C   0  0  0  0  0  0  0  0  0  0  0  0
   -0.2675   -0.7785   -1.0094 C   0  0  0  0  0  0  0  0  0  0  0  0
    0.8766   -0.8315   -0.2511 C   0  0  0  0  0  0  0  0  0  0  0  0
    2.0081    0.0438   -0.5838 C   0  0  0  0  0  0  0  0  0  0  0  0
    1.9952    0.8482   -1.5305 O   0  0  0  0  0  0  0  0  0  0  0  0
    3.2063   -0.0009    0.1977 N   0  0  0  0  0  0  0  0  0  0  0  0
    4.3236    0.8333   -0.0958 C   0  0  0  0  0  0  0  0  0  0  0  0
    4.4205    2.0810    0.4877 C   0  0  0  0  0  0  0  0  0  0  0  0
    5.4921    2.9299    0.2314 C   0  0  0  0  0  0  0  0  0  0  0  0
    6.4952    2.5282   -0.6281 C   0  0  0  0  0  0  0  0  0  0  0  0
    7.5674    3.3072   -0.9209 F   0  0  0  0  0  0  0  0  0  0  0  0
    6.3711    1.2777   -1.1954 C   0  0  0  0  0  0  0  0  0  0  0  0
    5.3151    0.4813   -0.9221 N   0  0  0  0  0  0  0  0  0  0  0  0
    0.9926   -1.6787    0.8083 N   0  0  0  0  0  0  0  0  0  0  0  0
   -0.6128   -4.2046    2.3334 H   0  0  0  0  0  0  0  0  0  0  0  0
    1.1432   -3.9228    2.2877 H   0  0  0  0  0  0  0  0  0  0  0  0
    0.0482   -2.7829    3.2428 H   0  0  0  0  0  0  0  0  0  0  0  0
   -1.9692   -3.1052    0.6703 H   0  0  0  0  0  0  0  0  0  0  0  0
   -2.8118    0.8530   -2.2929 H   0  0  0  0  0  0  0  0  0  0  0  0
   -6.4362    2.9659   -0.2693 H   0  0  0  0  0  0  0  0  0  0  0  0
   -7.5835    1.6057   -0.3450 H   0  0  0  0  0  0  0  0  0  0  0  0
   -6.6753    1.9225    1.1880 H   0  0  0  0  0  0  0  0  0  0  0  0
   -4.5093   -2.0906    0.3008 H   0  0  0  0  0  0  0  0  0  0  0  0
   -0.3237   -0.0975   -1.8384 H   0  0  0  0  0  0  0  0  0  0  0  0
    3.2056   -0.6831    0.9934 H   0  0  0  0  0  0  0  0  0  0  0  0
    3.6324    2.3956    1.1625 H   0  0  0  0  0  0  0  0  0  0  0  0
    5.5525    3.9046    0.6972 H   0  0  0  0  0  0  0  0  0  0  0  0
    7.1377    0.9241   -1.8764 H   0  0  0  0  0  0  0  0  0  0  0  0
  1  2  1  0
  2  3  2  0
  3  4  1  0
  4  5  1  0
  5  6  1  0
  6  7  2  0
  7  8  1  0
  8  9  2  0
  9 10  1  0
  9 11  1  0
 11 12  2  0
  4 13  2  0
 13 14  1  0
 14 15  1  0
 15 16  2  0
 15 17  1  0
 17 18  1  0
 18 19  2  0
 19 20  1  0
 20 21  2  0
 21 22  1  0
 21 23  1  0
 23 24  2  0
 14 25  2  0
 25  2  1  0
 12  6  1  0
 24 18  1  0
  1 26  1  0
  1 27  1  0
  1 28  1  0
  3 29  1  0
  7 30  1  0
 10 31  1  0
 10 32  1  0
 10 33  1  0
 12 34  1  0
 13 35  1  0
 17 36  1  0
 19 37  1  0
 20 38  1  0
 23 39  1  0
M  END
$$$$
