@<TRIPOS>MOLECULE
*****
 39 41 0 0 0
SMALL
GASTEIGER

@<TRIPOS>ATOM
      1 C           0.1588   -3.4086    2.3198 C.3     1  UNL1       -0.0222
      2 C          -0.0057   -2.4959    1.1544 C.ar    1  UNL1        0.0426
      3 C          -1.1571   -2.4495    0.3993 C.ar    1  UNL1        0.0018
      4 C          -1.3246   -1.6010   -0.6929 C.ar    1  UNL1        0.1324
      5 O          -2.5100   -1.5925   -1.4244 O.3     1  UNL1       -0.4528
      6 C          -3.5303   -0.7311   -1.0436 C.ar    1  UNL1        0.1645
      7 C          -3.5673    0.5338   -1.5823 C.ar    1  UNL1        0.0734
      8 N          -4.5658    1.3782   -1.2103 N.ar    1  UNL1       -0.2370
      9 C          -5.5206    1.0228   -0.3338 C.ar    1  UNL1        0.1261
     10 C          -6.6080    1.9365    0.0739 C.3     1  UNL1       -0.0046
     11 N          -5.4566   -0.2147    0.1724 N.ar    1  UNL1       -0.2370
     12 C          -4.5067   -1.1037   -0.1432 C.ar    1  UNL1        0.0734
     13 C          -0.2675   -0.7785   -1.0094 C.ar    1  UNL1        0.0112
     14 C           0.8766   -0.8315   -0.2511 C.ar    1  UNL1        0.1295
     15 C           2.0081    0.0438   -0.5838 C.2     1  UNL1        0.2678
     16 O           1.9952    0.8482   -1.5305 O.2     1  UNL1       -0.2681
     17 N           3.2063   -0.0009    0.1977 N.am    1  UNL1       -0.2651
     18 C           4.3236    0.8333   -0.0958 C.ar    1  UNL1        0.1253
     19 C           4.4205    2.0810    0.4877 C.ar    1  UNL1       -0.0188
     20 C           5.4921    2.9299    0.2314 C.ar    1  UNL1       -0.0217
     21 C           6.4952    2.5282   -0.6281 C.ar    1  UNL1        0.1415
     22 F           7.5674    3.3072   -0.9209 F       1  UNL1       -0.2039
     23 C           6.3711    1.2777   -1.1954 C.ar    1  UNL1        0.0649
     24 N           5.3151    0.4813   -0.9221 N.ar    1  UNL1       -0.2373
     25 N           0.9926   -1.6787    0.8083 N.ar    1  UNL1       -0.2470
     26 H          -0.6128   -4.2046    2.3334 H       1  UNL1        0.0293
     27 H           1.1432   -3.9228    2.2877 H       1  UNL1        0.0293
     28 H           0.0482   -2.7829    3.2428 H       1  UNL1        0.0293
     29 H          -1.9692   -3.1052    0.6703 H       1  UNL1        0.0672
     30 H          -2.8118    0.8530   -2.2929 H       1  UNL1        0.0868
     31 H          -6.4362    2.9659   -0.2693 H       1  UNL1        0.0308
     32 H          -7.5835    1.6057   -0.3450 H       1  UNL1        0.0308
     33 H          -6.6753    1.9225    1.1880 H       1  UNL1        0.0308
     34 H          -4.5093   -2.0906    0.3008 H       1  UNL1        0.0868
     35 H          -0.3237   -0.0975   -1.8384 H       1  UNL1        0.0677
     36 H           3.2056   -0.6831    0.9934 H       1  UNL1        0.1566
     37 H           3.6324    2.3956    1.1625 H       1  UNL1        0.0653
     38 H           5.5525    3.9046    0.6972 H       1  UNL1        0.0648
     39 H           7.1377    0.9241   -1.8764 H       1  UNL1        0.0859
@<TRIPOS>BOND
     1     1     2    1
     2     2     3   ar
     3     3     4   ar
     4     4     5    1
     5     5     6    1
     6     6     7   ar
     7     7     8   ar
     8     8     9   ar
     9     9    10    1
    10     9    11   ar
    11    11    12   ar
    12     4    13   ar
    13    13    14   ar
    14    14    15    1
    15    15    16    2
    16    15    17   am
    17    17    18    1
    18    18    19   ar
    19    19    20   ar
    20    20    21   ar
    21    21    22    1
    22    21    23   ar
    23    23    24   ar
    24    14    25   ar
    25    25     2   ar
    26    12     6   ar
    27    24    18   ar
    28     1    26    1
    29     1    27    1
    30     1    28    1
    31     3    29    1
    32     7    30    1
    33    10    31    1
    34    10    32    1
    35    10    33    1
    36    12    34    1
    37    13    35    1
    38    17    36    1
    39    19    37    1
    40    20    38    1
    41    23    39    1
