
     RDKit          3D

 41 42  0  0  0  0  0  0  0  0999 V2000
   -3.5566   -0.4158   -2.1200 C   0  0  0  0  0  0  0  0  0  0  0  0
   -3.7078   -0.5350   -0.6259 C   0  0  0  0  0  0  0  0  0  0  0  0
   -2.3974   -0.2729    0.0536 C   0  0  0  0  0  0  0  0  0  0  0  0
   -1.9446    1.0248    0.1665 C   0  0  0  0  0  0  0  0  0  0  0  0
   -2.7283    2.0281   -0.3561 O   0  0  0  0  0  0  0  0  0  0  0  0
   -2.4303    3.3911   -0.3331 C   0  0  0  0  0  0  0  0  0  0  0  0
   -0.7291    1.2212    0.8005 C   0  0  0  0  0  0  0  0  0  0  0  0
    0.0164    0.1848    1.3056 C   0  0  0  0  0  0  0  0  0  0  0  0
    1.3021    0.3789    1.9678 C   0  0  0  0  0  0  0  0  0  0  0  0
    2.4950    0.1665    1.1625 C   0  0  0  0  0  0  0  0  0  0  0  0
    3.2241   -1.0162    1.3055 C   0  0  0  0  0  0  0  0  0  0  0  0
    4.3248   -1.2157    0.5574 N   0  0  0  0  0  0  0  0  0  0  0  0
    4.7633   -0.3132   -0.3379 C   0  0  0  0  0  0  0  0  0  0  0  0
    5.9387   -0.5807   -1.1041 N   0  0  0  0  0  0  0  0  0  0  0  0
    4.0665    0.8259   -0.4797 N   0  0  0  0  0  0  0  0  0  0  0  0
    2.9412    1.0795    0.2552 C   0  0  0  0  0  0  0  0  0  0  0  0
    2.2374    2.2879    0.0835 N   0  0  0  0  0  0  0  0  0  0  0  0
   -0.4882   -1.0952    1.1632 C   0  0  0  0  0  0  0  0  0  0  0  0
   -1.6841   -1.3583    0.5466 C   0  0  0  0  0  0  0  0  0  0  0  0
   -2.1502   -2.6527    0.4264 O   0  0  0  0  0  0  0  0  0  0  0  0
   -1.3987   -3.7328    0.9392 C   0  0  0  0  0  0  0  0  0  0  0  0
   -4.4076    0.1852   -2.4971 H   0  0  0  0  0  0  0  0  0  0  0  0
   -3.6275   -1.4256   -2.6203 H   0  0  0  0  0  0  0  0  0  0  0  0
   -2.6003    0.0877   -2.3716 H   0  0  0  0  0  0  0  0  0  0  0  0
   -4.4021    0.2595   -0.2419 H   0  0  0  0  0  0  0  0  0  0  0  0
   -4.0884   -1.5067   -0.2873 H   0  0  0  0  0  0  0  0  0  0  0  0
   -1.7836    3.7403   -1.1477 H   0  0  0  0  0  0  0  0  0  0  0  0
   -3.3891    3.9761   -0.4313 H   0  0  0  0  0  0  0  0  0  0  0  0
   -2.0545    3.6351    0.6830 H   0  0  0  0  0  0  0  0  0  0  0  0
   -0.3971    2.2256    0.8853 H   0  0  0  0  0  0  0  0  0  0  0  0
    1.3204    1.4016    2.4108 H   0  0  0  0  0  0  0  0  0  0  0  0
    1.3586   -0.2973    2.8737 H   0  0  0  0  0  0  0  0  0  0  0  0
    2.8615   -1.7442    2.0345 H   0  0  0  0  0  0  0  0  0  0  0  0
    6.6747    0.1450   -1.2667 H   0  0  0  0  0  0  0  0  0  0  0  0
    6.1173   -1.5144   -1.5377 H   0  0  0  0  0  0  0  0  0  0  0  0
    2.4372    3.0938    0.6920 H   0  0  0  0  0  0  0  0  0  0  0  0
    1.5225    2.3588   -0.6542 H   0  0  0  0  0  0  0  0  0  0  0  0
    0.0824   -1.9059    1.5521 H   0  0  0  0  0  0  0  0  0  0  0  0
   -1.5531   -3.7489    2.0379 H   0  0  0  0  0  0  0  0  0  0  0  0
   -0.3218   -3.6882    0.6527 H   0  0  0  0  0  0  0  0  0  0  0  0
   -1.8435   -4.6773    0.5435 H   0  0  0  0  0  0  0  0  0  0  0  0
  1  2  1  0
  2  3  1  0
  3  4  2  0
  4  5  1  0
  5  6  1  0
  4  7  1  0
  7  8  2  0
  8  9  1  0
  9 10  1  0
 10 11  2  0
 11 12  1  0
 12 13  2  0
 13 14  1  0
 13 15  1  0
 15 16  2  0
 16 17  1  0
  8 18  1  0
 18 19  2  0
 19 20  1  0
 20 21  1  0
 19  3  1  0
 16 10  1  0
  1 22  1  0
  1 23  1  0
  1 24  1  0
  2 25  1  0
  2 26  1  0
  6 27  1  0
  6 28  1  0
  6 29  1  0
  7 30  1  0
  9 31  1  0
  9 32  1  0
 11 33  1  0
 14 34  1  0
 14 35  1  0
 17 36  1  0
 17 37  1  0
 18 38  1  0
 21 39  1  0
 21 40  1  0
 21 41  1  0
M  END
$$$$
