@<TRIPOS>MOLECULE
*****
 41 42 0 0 0
SMALL
GASTEIGER

@<TRIPOS>ATOM
      1 C          -3.5566   -0.4158   -2.1200 C.3     1  UNL1       -0.0610
      2 C          -3.7078   -0.5350   -0.6259 C.3     1  UNL1       -0.0236
      3 C          -2.3974   -0.2729    0.0536 C.ar    1  UNL1        0.0356
      4 C          -1.9446    1.0248    0.1665 C.ar    1  UNL1        0.1270
      5 O          -2.7283    2.0281   -0.3561 O.3     1  UNL1       -0.4947
      6 C          -2.4303    3.3911   -0.3331 C.3     1  UNL1        0.0788
      7 C          -0.7291    1.2212    0.8005 C.ar    1  UNL1       -0.0160
      8 C           0.0164    0.1848    1.3056 C.ar    1  UNL1       -0.0360
      9 C           1.3021    0.3789    1.9678 C.3     1  UNL1        0.0025
     10 C           2.4950    0.1665    1.1625 C.ar    1  UNL1        0.0146
     11 C           3.2241   -1.0162    1.3055 C.ar    1  UNL1        0.0379
     12 N           4.3248   -1.2157    0.5574 N.ar    1  UNL1       -0.2227
     13 C           4.7633   -0.3132   -0.3379 C.ar    1  UNL1        0.2142
     14 N           5.9387   -0.5807   -1.1041 N.pl3   1  UNL1       -0.3274
     15 N           4.0665    0.8259   -0.4797 N.ar    1  UNL1       -0.1999
     16 C           2.9412    1.0795    0.2552 C.ar    1  UNL1        0.1247
     17 N           2.2374    2.2879    0.0835 N.pl3   1  UNL1       -0.3428
     18 C          -0.4882   -1.0952    1.1632 C.ar    1  UNL1       -0.0160
     19 C          -1.6841   -1.3583    0.5466 C.ar    1  UNL1        0.1270
     20 O          -2.1502   -2.6527    0.4264 O.3     1  UNL1       -0.4947
     21 C          -1.3987   -3.7328    0.9392 C.3     1  UNL1        0.0788
     22 H          -4.4076    0.1852   -2.4971 H       1  UNL1        0.0233
     23 H          -3.6275   -1.4256   -2.6203 H       1  UNL1        0.0233
     24 H          -2.6003    0.0877   -2.3716 H       1  UNL1        0.0233
     25 H          -4.4021    0.2595   -0.2419 H       1  UNL1        0.0313
     26 H          -4.0884   -1.5067   -0.2873 H       1  UNL1        0.0313
     27 H          -1.7836    3.7403   -1.1477 H       1  UNL1        0.0660
     28 H          -3.3891    3.9761   -0.4313 H       1  UNL1        0.0660
     29 H          -2.0545    3.6351    0.6830 H       1  UNL1        0.0660
     30 H          -0.3971    2.2256    0.8853 H       1  UNL1        0.0657
     31 H           1.3204    1.4016    2.4108 H       1  UNL1        0.0363
     32 H           1.3586   -0.2973    2.8737 H       1  UNL1        0.0363
     33 H           2.8615   -1.7442    2.0345 H       1  UNL1        0.0834
     34 H           6.6747    0.1450   -1.2667 H       1  UNL1        0.1452
     35 H           6.1173   -1.5144   -1.5377 H       1  UNL1        0.1452
     36 H           2.4372    3.0938    0.6920 H       1  UNL1        0.1437
     37 H           1.5225    2.3588   -0.6542 H       1  UNL1        0.1437
     38 H           0.0824   -1.9059    1.5521 H       1  UNL1        0.0657
     39 H          -1.5531   -3.7489    2.0379 H       1  UNL1        0.0660
     40 H          -0.3218   -3.6882    0.6527 H       1  UNL1        0.0660
     41 H          -1.8435   -4.6773    0.5435 H       1  UNL1        0.0660
@<TRIPOS>BOND
     1     1     2    1
     2     2     3    1
     3     3     4   ar
     4     4     5    1
     5     5     6    1
     6     4     7   ar
     7     7     8   ar
     8     8     9    1
     9     9    10    1
    10    10    11   ar
    11    11    12   ar
    12    12    13   ar
    13    13    14    1
    14    13    15   ar
    15    15    16   ar
    16    16    17    1
    17     8    18   ar
    18    18    19   ar
    19    19    20    1
    20    20    21    1
    21    19     3   ar
    22    16    10   ar
    23     1    22    1
    24     1    23    1
    25     1    24    1
    26     2    25    1
    27     2    26    1
    28     6    27    1
    29     6    28    1
    30     6    29    1
    31     7    30    1
    32     9    31    1
    33     9    32    1
    34    11    33    1
    35    14    34    1
    36    14    35    1
    37    17    36    1
    38    17    37    1
    39    18    38    1
    40    21    39    1
    41    21    40    1
    42    21    41    1
