@<TRIPOS>MOLECULE
*****
 48 51 0 0 0
SMALL
GASTEIGER

@<TRIPOS>ATOM
      1 C          -6.4458    1.9995   -0.5083 C.3     1  UNL1        0.0788
      2 O          -5.3434    1.8631    0.3412 O.3     1  UNL1       -0.4945
      3 C          -4.3950    0.9017    0.0777 C.ar    1  UNL1        0.1321
      4 C          -4.5391    0.0702   -1.0330 C.ar    1  UNL1       -0.0144
      5 C          -3.5674   -0.8643   -1.2442 C.ar    1  UNL1       -0.0209
      6 C          -2.4842   -0.9640   -0.3718 C.ar    1  UNL1        0.0417
      7 C          -2.3456   -0.1458    0.7206 C.ar    1  UNL1       -0.0248
      8 C          -3.3242    0.8085    0.9486 C.ar    1  UNL1        0.0981
      9 C          -3.2299    1.7283    2.1196 C.3     1  UNL1        0.4208
     10 F          -4.3713    1.5075    2.9000 F       1  UNL1       -0.1658
     11 F          -3.2481    3.0546    1.7401 F       1  UNL1       -0.1658
     12 F          -2.1561    1.4094    2.9140 F       1  UNL1       -0.1658
     13 N          -1.6572   -2.0072   -0.8645 N.am    1  UNL1       -0.2547
     14 C          -0.2437   -2.1633   -0.8237 C.2     1  UNL1        0.3107
     15 O           0.2083   -3.2841   -1.2284 O.2     1  UNL1       -0.2519
     16 N           0.6788   -1.2057   -0.3871 N.am    1  UNL1       -0.2689
     17 C           2.0906   -1.3082   -0.3176 C.ar    1  UNL1        0.0381
     18 C           2.7836   -2.4129   -0.6786 C.ar    1  UNL1       -0.0051
     19 C           4.1647   -2.4582   -0.5919 C.ar    1  UNL1        0.1257
     20 F           4.8048   -3.5965   -0.9694 F       1  UNL1       -0.2054
     21 C           4.8363   -1.3692   -0.1344 C.ar    1  UNL1       -0.0186
     22 C           4.1911   -0.2008    0.2539 C.ar    1  UNL1       -0.0120
     23 C           4.9407    0.9407    0.7369 C.ar    1  UNL1        0.0004
     24 C           4.4726    2.2174    0.5207 C.ar    1  UNL1       -0.0512
     25 C           5.1944    3.3255    0.9861 C.ar    1  UNL1       -0.0430
     26 C           6.3752    3.1464    1.6619 C.ar    1  UNL1        0.0276
     27 N           6.8171    1.8864    1.8636 N.ar    1  UNL1       -0.2627
     28 C           6.1283    0.8046    1.4184 C.ar    1  UNL1        0.0353
     29 C           2.8283   -0.2129    0.1472 C.ar    1  UNL1       -0.0325
     30 C          -2.5971   -2.9515   -1.5201 C.3     1  UNL1        0.0253
     31 C          -3.4205   -1.9098   -2.2947 C.3     1  UNL1       -0.0095
     32 H          -6.9152    1.0129   -0.7059 H       1  UNL1        0.0660
     33 H          -7.2048    2.6101    0.0320 H       1  UNL1        0.0660
     34 H          -6.1960    2.4813   -1.4752 H       1  UNL1        0.0660
     35 H          -5.3683    0.1389   -1.7112 H       1  UNL1        0.0657
     36 H          -1.4955   -0.2648    1.3849 H       1  UNL1        0.0643
     37 H           0.2227   -0.2739   -0.0887 H       1  UNL1        0.1564
     38 H           2.3082   -3.3117   -1.0496 H       1  UNL1        0.0665
     39 H           5.9241   -1.3772   -0.0556 H       1  UNL1        0.0652
     40 H           3.5585    2.3679   -0.0021 H       1  UNL1        0.0625
     41 H           4.8279    4.3354    0.8173 H       1  UNL1        0.0633
     42 H           6.9321    4.0224    2.0219 H       1  UNL1        0.0829
     43 H           6.5197   -0.1740    1.6031 H       1  UNL1        0.0836
     44 H           2.2925    0.6809    0.4410 H       1  UNL1        0.0642
     45 H          -3.2521   -3.4081   -0.7649 H       1  UNL1        0.0472
     46 H          -2.0462   -3.6282   -2.1686 H       1  UNL1        0.0472
     47 H          -4.4023   -2.3081   -2.5484 H       1  UNL1        0.0329
     48 H          -2.8516   -1.5130   -3.1426 H       1  UNL1        0.0329
@<TRIPOS>BOND
     1     1     2    1
     2     2     3    1
     3     3     4   ar
     4     4     5   ar
     5     5     6   ar
     6     6     7   ar
     7     7     8   ar
     8     8     9    1
     9     9    10    1
    10     9    11    1
    11     9    12    1
    12     6    13    1
    13    13    14   am
    14    14    15    2
    15    14    16   am
    16    16    17    1
    17    17    18   ar
    18    18    19   ar
    19    19    20    1
    20    19    21   ar
    21    21    22   ar
    22    22    23    1
    23    23    24   ar
    24    24    25   ar
    25    25    26   ar
    26    26    27   ar
    27    27    28   ar
    28    22    29   ar
    29    13    30    1
    30    30    31    1
    31     8     3   ar
    32    29    17   ar
    33    31     5    1
    34    28    23   ar
    35     1    32    1
    36     1    33    1
    37     1    34    1
    38     4    35    1
    39     7    36    1
    40    16    37    1
    41    18    38    1
    42    21    39    1
    43    24    40    1
    44    25    41    1
    45    26    42    1
    46    28    43    1
    47    29    44    1
    48    30    45    1
    49    30    46    1
    50    31    47    1
    51    31    48    1
