
     RDKit          3D

 48 51  0  0  0  0  0  0  0  0999 V2000
   -6.4458    1.9995   -0.5083 C   0  0  0  0  0  0  0  0  0  0  0  0
   -5.3434    1.8631    0.3412 O   0  0  0  0  0  0  0  0  0  0  0  0
   -4.3950    0.9017    0.0777 C   0  0  0  0  0  0  0  0  0  0  0  0
   -4.5391    0.0702   -1.0330 C   0  0  0  0  0  0  0  0  0  0  0  0
   -3.5674   -0.8643   -1.2442 C   0  0  0  0  0  0  0  0  0  0  0  0
   -2.4842   -0.9640   -0.3718 C   0  0  0  0  0  0  0  0  0  0  0  0
   -2.3456   -0.1458    0.7206 C   0  0  0  0  0  0  0  0  0  0  0  0
   -3.3242    0.8085    0.9486 C   0  0  0  0  0  0  0  0  0  0  0  0
   -3.2299    1.7283    2.1196 C   0  0  0  0  0  0  0  0  0  0  0  0
   -4.3713    1.5075    2.9000 F   0  0  0  0  0  0  0  0  0  0  0  0
   -3.2481    3.0546    1.7401 F   0  0  0  0  0  0  0  0  0  0  0  0
   -2.1561    1.4094    2.9140 F   0  0  0  0  0  0  0  0  0  0  0  0
   -1.6572   -2.0072   -0.8645 N   0  0  0  0  0  0  0  0  0  0  0  0
   -0.2437   -2.1633   -0.8237 C   0  0  0  0  0  0  0  0  0  0  0  0
    0.2083   -3.2841   -1.2284 O   0  0  0  0  0  0  0  0  0  0  0  0
    0.6788   -1.2057   -0.3871 N   0  0  0  0  0  0  0  0  0  0  0  0
    2.0906   -1.3082   -0.3176 C   0  0  0  0  0  0  0  0  0  0  0  0
    2.7836   -2.4129   -0.6786 C   0  0  0  0  0  0  0  0  0  0  0  0
    4.1647   -2.4582   -0.5919 C   0  0  0  0  0  0  0  0  0  0  0  0
    4.8048   -3.5965   -0.9694 F   0  0  0  0  0  0  0  0  0  0  0  0
    4.8363   -1.3692   -0.1344 C   0  0  0  0  0  0  0  0  0  0  0  0
    4.1911   -0.2008    0.2539 C   0  0  0  0  0  0  0  0  0  0  0  0
    4.9407    0.9407    0.7369 C   0  0  0  0  0  0  0  0  0  0  0  0
    4.4726    2.2174    0.5207 C   0  0  0  0  0  0  0  0  0  0  0  0
    5.1944    3.3255    0.9861 C   0  0  0  0  0  0  0  0  0  0  0  0
    6.3752    3.1464    1.6619 C   0  0  0  0  0  0  0  0  0  0  0  0
    6.8171    1.8864    1.8636 N   0  0  0  0  0  0  0  0  0  0  0  0
    6.1283    0.8046    1.4184 C   0  0  0  0  0  0  0  0  0  0  0  0
    2.8283   -0.2129    0.1472 C   0  0  0  0  0  0  0  0  0  0  0  0
   -2.5971   -2.9515   -1.5201 C   0  0  0  0  0  0  0  0  0  0  0  0
   -3.4205   -1.9098   -2.2947 C   0  0  0  0  0  0  0  0  0  0  0  0
   -6.9152    1.0129   -0.7059 H   0  0  0  0  0  0  0  0  0  0  0  0
   -7.2048    2.6101    0.0320 H   0  0  0  0  0  0  0  0  0  0  0  0
   -6.1960    2.4813   -1.4752 H   0  0  0  0  0  0  0  0  0  0  0  0
   -5.3683    0.1389   -1.7112 H   0  0  0  0  0  0  0  0  0  0  0  0
   -1.4955   -0.2648    1.3849 H   0  0  0  0  0  0  0  0  0  0  0  0
    0.2227   -0.2739   -0.0887 H   0  0  0  0  0  0  0  0  0  0  0  0
    2.3082   -3.3117   -1.0496 H   0  0  0  0  0  0  0  0  0  0  0  0
    5.9241   -1.3772   -0.0556 H   0  0  0  0  0  0  0  0  0  0  0  0
    3.5585    2.3679   -0.0021 H   0  0  0  0  0  0  0  0  0  0  0  0
    4.8279    4.3354    0.8173 H   0  0  0  0  0  0  0  0  0  0  0  0
    6.9321    4.0224    2.0219 H   0  0  0  0  0  0  0  0  0  0  0  0
    6.5197   -0.1740    1.6031 H   0  0  0  0  0  0  0  0  0  0  0  0
    2.2925    0.6809    0.4410 H   0  0  0  0  0  0  0  0  0  0  0  0
   -3.2521   -3.4081   -0.7649 H   0  0  0  0  0  0  0  0  0  0  0  0
   -2.0462   -3.6282   -2.1686 H   0  0  0  0  0  0  0  0  0  0  0  0
   -4.4023   -2.3081   -2.5484 H   0  0  0  0  0  0  0  0  0  0  0  0
   -2.8516   -1.5130   -3.1426 H   0  0  0  0  0  0  0  0  0  0  0  0
  1  2  1  0
  2  3  1  0
  3  4  2  0
  4  5  1  0
  5  6  2  0
  6  7  1  0
  7  8  2  0
  8  9  1  0
  9 10  1  0
  9 11  1  0
  9 12  1  0
  6 13  1  0
 13 14  1  0
 14 15  2  0
 14 16  1  0
 16 17  1  0
 17 18  2  0
 18 19  1  0
 19 20  1  0
 19 21  2  0
 21 22  1  0
 22 23  1  0
 23 24  2  0
 24 25  1  0
 25 26  2  0
 26 27  1  0
 27 28  2  0
 22 29  2  0
 13 30  1  0
 30 31  1  0
  8  3  1  0
 29 17  1  0
 31  5  1  0
 28 23  1  0
  1 32  1  0
  1 33  1  0
  1 34  1  0
  4 35  1  0
  7 36  1  0
 16 37  1  0
 18 38  1  0
 21 39  1  0
 24 40  1  0
 25 41  1  0
 26 42  1  0
 28 43  1  0
 29 44  1  0
 30 45  1  0
 30 46  1  0
 31 47  1  0
 31 48  1  0
M  END
$$$$
