@<TRIPOS>MOLECULE
*****
 54 57 0 0 0
SMALL
GASTEIGER

@<TRIPOS>ATOM
      1 C           3.0840    0.0435   -0.1601 C.3     1  UNL1        0.0322
      2 C           3.2090    0.7124   -1.5109 C.3     1  UNL1       -0.0422
      3 C           1.7765    0.9536   -2.0074 C.3     1  UNL1       -0.0484
      4 C           1.0273    0.8847   -0.7178 C.3     1  UNL1       -0.0250
      5 C          -0.4297    0.5867   -0.8209 C.3     1  UNL1       -0.0311
      6 C          -1.2154    1.5299   -1.6539 C.3     1  UNL1       -0.0459
      7 C          -2.6574    1.6531   -1.3341 C.3     1  UNL1       -0.0305
      8 C          -3.1610    0.7716   -0.2468 C.2     1  UNL1       -0.0600
      9 C          -4.4756    0.8167   -0.0806 C.2     1  UNL1       -0.0194
     10 C          -5.0181   -0.0213    0.9637 C.2     1  UNL1        0.1561
     11 O          -6.2550   -0.0784    1.1702 O.2     1  UNL1       -0.2927
     12 C          -4.2357   -0.8655    1.8656 C.3     1  UNL1        0.0107
     13 C          -2.8043   -0.4434    1.9012 C.3     1  UNL1       -0.0366
     14 C          -2.2428   -0.0776    0.5688 C.3     1  UNL1       -0.0049
     15 C          -2.1598   -1.3937   -0.2102 C.3     1  UNL1       -0.0555
     16 C          -0.9669    0.6693    0.6132 C.3     1  UNL1       -0.0027
     17 C           0.0587    0.3115    1.6096 C.3     1  UNL1        0.0600
     18 O          -0.4129   -0.0783    2.8308 O.3     1  UNL1       -0.3914
     19 C           1.0793   -0.7228    1.1604 C.3     1  UNL1       -0.0135
     20 C           1.6523   -0.4148   -0.1782 C.3     1  UNL1        0.0409
     21 C           1.4294   -1.5015   -1.1675 C.2     1  UNL1        0.1274
     22 O           1.1183   -2.6102   -1.5693 O.2     1  UNL1       -0.3004
     23 C           4.0406   -1.0449    0.0513 C.2     1  UNL1        0.1624
     24 O           3.6137   -2.1818    0.2721 O.2     1  UNL1       -0.2946
     25 C           5.4936   -0.7281   -0.0102 C.3     1  UNL1        0.1025
     26 O           5.7187    0.6177   -0.2714 O.3     1  UNL1       -0.3875
     27 H           3.1549    0.7984    0.6627 H       1  UNL1        0.0388
     28 H           3.7679    0.0490   -2.1785 H       1  UNL1        0.0272
     29 H           3.6921    1.7060   -1.3759 H       1  UNL1        0.0272
     30 H           1.7026    1.8940   -2.5515 H       1  UNL1        0.0268
     31 H           1.5328    0.0538   -2.6211 H       1  UNL1        0.0268
     32 H           1.3029    1.7126   -0.0658 H       1  UNL1        0.0313
     33 H          -0.5258   -0.4173   -1.2574 H       1  UNL1        0.0308
     34 H          -0.7384    2.5448   -1.5213 H       1  UNL1        0.0271
     35 H          -1.0631    1.3197   -2.7443 H       1  UNL1        0.0271
     36 H          -2.9550    2.7239   -1.1502 H       1  UNL1        0.0310
     37 H          -3.2616    1.3807   -2.2484 H       1  UNL1        0.0310
     38 H          -5.1314    1.4358   -0.6771 H       1  UNL1        0.0652
     39 H          -4.3805   -1.9343    1.5985 H       1  UNL1        0.0345
     40 H          -4.6011   -0.8042    2.9314 H       1  UNL1        0.0345
     41 H          -2.7033    0.4022    2.5838 H       1  UNL1        0.0278
     42 H          -2.2603   -1.3757    2.2382 H       1  UNL1        0.0278
     43 H          -2.3852   -1.2548   -1.2925 H       1  UNL1        0.0238
     44 H          -2.9564   -2.0974    0.1423 H       1  UNL1        0.0238
     45 H          -1.2243   -1.9285   -0.0790 H       1  UNL1        0.0238
     46 H          -1.2272    1.7590    0.7721 H       1  UNL1        0.0337
     47 H           0.6888    1.2178    1.8167 H       1  UNL1        0.0596
     48 H           0.3667   -0.3422    3.3818 H       1  UNL1        0.2098
     49 H           0.7314   -1.7670    1.3002 H       1  UNL1        0.0300
     50 H           1.9468   -0.6492    1.8821 H       1  UNL1        0.0300
     51 H           1.2890   -2.2511   -1.9468 H       1  UNL1        0.1032
     52 H           6.0308   -0.9622    0.9235 H       1  UNL1        0.0636
     53 H           5.8836   -1.3536   -0.8651 H       1  UNL1        0.0636
     54 H           6.0565    0.7512   -1.1756 H       1  UNL1        0.2100
@<TRIPOS>BOND
     1     1     2    1
     2     2     3    1
     3     3     4    1
     4     4     5    1
     5     5     6    1
     6     6     7    1
     7     7     8    1
     8     8     9    2
     9     9    10    1
    10    10    11    2
    11    10    12    1
    12    12    13    1
    13    13    14    1
    14    14    15    1
    15    14    16    1
    16    16    17    1
    17    17    18    1
    18    17    19    1
    19    19    20    1
    20    20    21    1
    21    21    22    2
    22     1    23    1
    23    23    24    2
    24    23    25    1
    25    25    26    1
    26    20     1    1
    27    20     4    1
    28    16     5    1
    29    14     8    1
    30     1    27    1
    31     2    28    1
    32     2    29    1
    33     3    30    1
    34     3    31    1
    35     4    32    1
    36     5    33    1
    37     6    34    1
    38     6    35    1
    39     7    36    1
    40     7    37    1
    41     9    38    1
    42    12    39    1
    43    12    40    1
    44    13    41    1
    45    13    42    1
    46    15    43    1
    47    15    44    1
    48    15    45    1
    49    16    46    1
    50    17    47    1
    51    18    48    1
    52    19    49    1
    53    19    50    1
    54    21    51    1
    55    25    52    1
    56    25    53    1
    57    26    54    1
