@<TRIPOS>MOLECULE
*****
 65 69 0 0 0
SMALL
GASTEIGER

@<TRIPOS>ATOM
      1 C          -7.2799    1.5752    0.9997 C.3     1  UNL1        0.0365
      2 O          -6.0448    1.9620    0.4731 O.3     1  UNL1       -0.3811
      3 C          -5.3044    0.8245    0.1613 C.3     1  UNL1        0.0680
      4 C          -3.9679    1.1373   -0.4289 C.3     1  UNL1        0.0727
      5 C          -4.2534    1.9932   -1.6875 C.3     1  UNL1        0.0684
      6 O          -3.1539    2.8322   -1.8147 O.3     1  UNL1       -0.3763
      7 C          -3.3129    3.9048   -0.9460 C.3     1  UNL1        0.0635
      8 C          -3.4345    3.3525    0.4593 C.3     1  UNL1        0.0386
      9 N          -3.1092    1.9090    0.4560 N.am    1  UNL1       -0.2907
     10 C          -2.0546    1.4314    1.2223 C.2     1  UNL1        0.2329
     11 O          -1.4026    2.3305    1.8905 O.2     1  UNL1       -0.2740
     12 C          -1.5775    0.0517    1.3781 C.3     1  UNL1        0.1054
     13 C          -0.2756   -0.1283    2.1816 C.3     1  UNL1       -0.0220
     14 C          -0.3642   -0.4520    0.7573 C.3     1  UNL1        0.0134
     15 C          -0.4448   -1.8911    0.2880 C.3     1  UNL1        0.0935
     16 C          -1.4191   -2.0157   -0.8607 C.3     1  UNL1       -0.0351
     17 C           0.8927   -2.3289   -0.2457 C.ar    1  UNL1        0.0158
     18 C           1.9911   -1.5197   -0.3140 C.ar    1  UNL1       -0.0463
     19 C           3.1811   -1.9626   -0.8339 C.ar    1  UNL1       -0.0217
     20 C           4.3858   -1.1644   -0.9967 C.2     1  UNL1       -0.0172
     21 C           4.7689   -0.1579   -0.2448 C.2     1  UNL1        0.1492
     22 F           3.9298    0.1598    0.8021 F       1  UNL1       -0.2032
     23 C           5.9913    0.6129   -0.4367 C.ar    1  UNL1        0.0990
     24 C           6.9128    0.2759   -1.3905 C.ar    1  UNL1       -0.0322
     25 C           8.0657    1.0272   -1.6021 C.ar    1  UNL1       -0.0408
     26 C           8.2530    2.1225   -0.8214 C.ar    1  UNL1        0.0699
     27 C           9.4565    2.9032   -1.0722 C.1     1  UNL1        0.1007
     28 N          10.3988    3.4947   -1.2772 N.1     1  UNL1       -0.1908
     29 C           7.3473    2.4693    0.1293 C.ar    1  UNL1        0.0457
     30 N           6.2193    1.7065    0.3148 N.ar    1  UNL1       -0.2514
     31 C           3.2109   -3.2881   -1.2893 C.ar    1  UNL1       -0.0518
     32 C           2.1499   -4.1314   -1.2442 C.ar    1  UNL1       -0.0255
     33 C           0.9666   -3.6243   -0.7054 C.ar    1  UNL1        0.1289
     34 F          -0.0665   -4.4958   -0.6654 F       1  UNL1       -0.2051
     35 N          -0.7289   -2.8238    1.3532 N.2     1  UNL1       -0.2521
     36 C          -1.7432   -2.7118    2.1061 C.2     1  UNL1        0.1485
     37 N          -2.0347   -3.6062    3.1365 N.pl3   1  UNL1       -0.3380
     38 S          -2.7818   -1.2645    1.7798 S.3     1  UNL1       -0.0746
     39 H          -7.8481    0.9670    0.2389 H       1  UNL1        0.0523
     40 H          -7.8742    2.4877    1.1649 H       1  UNL1        0.0523
     41 H          -7.0913    1.0018    1.9133 H       1  UNL1        0.0523
     42 H          -5.2394    0.2504    1.1221 H       1  UNL1        0.0579
     43 H          -5.8745    0.2555   -0.6040 H       1  UNL1        0.0579
     44 H          -3.4362    0.2523   -0.8012 H       1  UNL1        0.0546
     45 H          -4.3978    1.3284   -2.5537 H       1  UNL1        0.0579
     46 H          -5.1534    2.6044   -1.5393 H       1  UNL1        0.0579
     47 H          -2.3670    4.5096   -1.0530 H       1  UNL1        0.0575
     48 H          -4.1600    4.5549   -1.2315 H       1  UNL1        0.0575
     49 H          -2.7098    3.8925    1.0945 H       1  UNL1        0.0487
     50 H          -4.4336    3.5452    0.8791 H       1  UNL1        0.0487
     51 H          -0.2026   -0.9522    2.9067 H       1  UNL1        0.0287
     52 H           0.2173    0.7961    2.5305 H       1  UNL1        0.0287
     53 H           0.0926    0.2385   -0.0021 H       1  UNL1        0.0346
     54 H          -2.4322   -2.2966   -0.5162 H       1  UNL1        0.0256
     55 H          -1.5214   -0.9961   -1.3232 H       1  UNL1        0.0256
     56 H          -1.1241   -2.7593   -1.6269 H       1  UNL1        0.0256
     57 H           1.9277   -0.5273    0.0415 H       1  UNL1        0.0628
     58 H           5.0763   -1.3994   -1.8358 H       1  UNL1        0.0653
     59 H           6.7985   -0.5818   -2.0197 H       1  UNL1        0.0640
     60 H           8.7717    0.7296   -2.3656 H       1  UNL1        0.0631
     61 H           7.5125    3.3393    0.7368 H       1  UNL1        0.0843
     62 H           4.1643   -3.6271   -1.6973 H       1  UNL1        0.0624
     63 H           2.2503   -5.1364   -1.6116 H       1  UNL1        0.0646
     64 H          -2.0261   -4.6622    3.0297 H       1  UNL1        0.1442
     65 H          -2.2869   -3.2669    4.1115 H       1  UNL1        0.1442
@<TRIPOS>BOND
     1     1     2    1
     2     2     3    1
     3     3     4    1
     4     4     5    1
     5     5     6    1
     6     6     7    1
     7     7     8    1
     8     8     9    1
     9     9    10   am
    10    10    11    2
    11    12    10    1
    12    12    13    1
    13    13    14    1
    14    14    15    1
    15    15    16    1
    16    15    17    1
    17    17    18   ar
    18    18    19   ar
    19    19    20    1
    20    20    21    2
    21    21    22    1
    22    21    23    1
    23    23    24   ar
    24    24    25   ar
    25    25    26   ar
    26    26    27    1
    27    27    28    3
    28    26    29   ar
    29    29    30   ar
    30    19    31   ar
    31    31    32   ar
    32    32    33   ar
    33    33    34    1
    34    15    35    1
    35    35    36    2
    36    36    37    1
    37    36    38    1
    38     9     4    1
    39    14    12    1
    40    33    17   ar
    41    38    12    1
    42    30    23   ar
    43     1    39    1
    44     1    40    1
    45     1    41    1
    46     3    42    1
    47     3    43    1
    48     4    44    1
    49     5    45    1
    50     5    46    1
    51     7    47    1
    52     7    48    1
    53     8    49    1
    54     8    50    1
    55    13    51    1
    56    13    52    1
    57    14    53    1
    58    16    54    1
    59    16    55    1
    60    16    56    1
    61    18    57    1
    62    20    58    1
    63    24    59    1
    64    25    60    1
    65    29    61    1
    66    31    62    1
    67    32    63    1
    68    37    64    1
    69    37    65    1
