
     RDKit          3D

 65 69  0  0  0  0  0  0  0  0999 V2000
   -7.2799    1.5752    0.9997 C   0  0  0  0  0  0  0  0  0  0  0  0
   -6.0448    1.9620    0.4731 O   0  0  0  0  0  0  0  0  0  0  0  0
   -5.3044    0.8245    0.1613 C   0  0  0  0  0  0  0  0  0  0  0  0
   -3.9679    1.1373   -0.4289 C   0  0  1  0  0  0  0  0  0  0  0  0
   -4.2534    1.9932   -1.6875 C   0  0  0  0  0  0  0  0  0  0  0  0
   -3.1539    2.8322   -1.8147 O   0  0  0  0  0  0  0  0  0  0  0  0
   -3.3129    3.9048   -0.9460 C   0  0  0  0  0  0  0  0  0  0  0  0
   -3.4345    3.3525    0.4593 C   0  0  0  0  0  0  0  0  0  0  0  0
   -3.1092    1.9090    0.4560 N   0  0  0  0  0  0  0  0  0  0  0  0
   -2.0546    1.4314    1.2223 C   0  0  0  0  0  0  0  0  0  0  0  0
   -1.4026    2.3305    1.8905 O   0  0  0  0  0  0  0  0  0  0  0  0
   -1.5775    0.0517    1.3781 C   0  0  2  0  0  0  0  0  0  0  0  0
   -0.2756   -0.1283    2.1816 C   0  0  0  0  0  0  0  0  0  0  0  0
   -0.3642   -0.4520    0.7573 C   0  0  1  0  0  0  0  0  0  0  0  0
   -0.4448   -1.8911    0.2880 C   0  0  1  0  0  0  0  0  0  0  0  0
   -1.4191   -2.0157   -0.8607 C   0  0  0  0  0  0  0  0  0  0  0  0
    0.8927   -2.3289   -0.2457 C   0  0  0  0  0  0  0  0  0  0  0  0
    1.9911   -1.5197   -0.3140 C   0  0  0  0  0  0  0  0  0  0  0  0
    3.1811   -1.9626   -0.8339 C   0  0  0  0  0  0  0  0  0  0  0  0
    4.3858   -1.1644   -0.9967 C   0  0  0  0  0  0  0  0  0  0  0  0
    4.7689   -0.1579   -0.2448 C   0  0  0  0  0  0  0  0  0  0  0  0
    3.9298    0.1598    0.8021 F   0  0  0  0  0  0  0  0  0  0  0  0
    5.9913    0.6129   -0.4367 C   0  0  0  0  0  0  0  0  0  0  0  0
    6.9128    0.2759   -1.3905 C   0  0  0  0  0  0  0  0  0  0  0  0
    8.0657    1.0272   -1.6021 C   0  0  0  0  0  0  0  0  0  0  0  0
    8.2530    2.1225   -0.8214 C   0  0  0  0  0  0  0  0  0  0  0  0
    9.4565    2.9032   -1.0722 C   0  0  0  0  0  0  0  0  0  0  0  0
   10.3988    3.4947   -1.2772 N   0  0  0  0  0  0  0  0  0  0  0  0
    7.3473    2.4693    0.1293 C   0  0  0  0  0  0  0  0  0  0  0  0
    6.2193    1.7065    0.3148 N   0  0  0  0  0  0  0  0  0  0  0  0
    3.2109   -3.2881   -1.2893 C   0  0  0  0  0  0  0  0  0  0  0  0
    2.1499   -4.1314   -1.2442 C   0  0  0  0  0  0  0  0  0  0  0  0
    0.9666   -3.6243   -0.7054 C   0  0  0  0  0  0  0  0  0  0  0  0
   -0.0665   -4.4958   -0.6654 F   0  0  0  0  0  0  0  0  0  0  0  0
   -0.7289   -2.8238    1.3532 N   0  0  0  0  0  0  0  0  0  0  0  0
   -1.7432   -2.7118    2.1061 C   0  0  0  0  0  0  0  0  0  0  0  0
   -2.0347   -3.6062    3.1365 N   0  0  0  0  0  0  0  0  0  0  0  0
   -2.7818   -1.2645    1.7798 S   0  0  0  0  0  0  0  0  0  0  0  0
   -7.8481    0.9670    0.2389 H   0  0  0  0  0  0  0  0  0  0  0  0
   -7.8742    2.4877    1.1649 H   0  0  0  0  0  0  0  0  0  0  0  0
   -7.0913    1.0018    1.9133 H   0  0  0  0  0  0  0  0  0  0  0  0
   -5.2394    0.2504    1.1221 H   0  0  0  0  0  0  0  0  0  0  0  0
   -5.8745    0.2555   -0.6040 H   0  0  0  0  0  0  0  0  0  0  0  0
   -3.4362    0.2523   -0.8012 H   0  0  0  0  0  0  0  0  0  0  0  0
   -4.3978    1.3284   -2.5537 H   0  0  0  0  0  0  0  0  0  0  0  0
   -5.1534    2.6044   -1.5393 H   0  0  0  0  0  0  0  0  0  0  0  0
   -2.3670    4.5096   -1.0530 H   0  0  0  0  0  0  0  0  0  0  0  0
   -4.1600    4.5549   -1.2315 H   0  0  0  0  0  0  0  0  0  0  0  0
   -2.7098    3.8925    1.0945 H   0  0  0  0  0  0  0  0  0  0  0  0
   -4.4336    3.5452    0.8791 H   0  0  0  0  0  0  0  0  0  0  0  0
   -0.2026   -0.9522    2.9067 H   0  0  0  0  0  0  0  0  0  0  0  0
    0.2173    0.7961    2.5305 H   0  0  0  0  0  0  0  0  0  0  0  0
    0.0926    0.2385   -0.0021 H   0  0  0  0  0  0  0  0  0  0  0  0
   -2.4322   -2.2966   -0.5162 H   0  0  0  0  0  0  0  0  0  0  0  0
   -1.5214   -0.9961   -1.3232 H   0  0  0  0  0  0  0  0  0  0  0  0
   -1.1241   -2.7593   -1.6269 H   0  0  0  0  0  0  0  0  0  0  0  0
    1.9277   -0.5273    0.0415 H   0  0  0  0  0  0  0  0  0  0  0  0
    5.0763   -1.3994   -1.8358 H   0  0  0  0  0  0  0  0  0  0  0  0
    6.7985   -0.5818   -2.0197 H   0  0  0  0  0  0  0  0  0  0  0  0
    8.7717    0.7296   -2.3656 H   0  0  0  0  0  0  0  0  0  0  0  0
    7.5125    3.3393    0.7368 H   0  0  0  0  0  0  0  0  0  0  0  0
    4.1643   -3.6271   -1.6973 H   0  0  0  0  0  0  0  0  0  0  0  0
    2.2503   -5.1364   -1.6116 H   0  0  0  0  0  0  0  0  0  0  0  0
   -2.0261   -4.6622    3.0297 H   0  0  0  0  0  0  0  0  0  0  0  0
   -2.2869   -3.2669    4.1115 H   0  0  0  0  0  0  0  0  0  0  0  0
  1  2  1  0
  2  3  1  0
  3  4  1  0
  4  5  1  0
  5  6  1  0
  6  7  1  0
  7  8  1  0
  8  9  1  0
  9 10  1  0
 10 11  2  0
 12 10  1  6
 12 13  1  0
 13 14  1  0
 14 15  1  0
 15 16  1  6
 15 17  1  0
 17 18  2  0
 18 19  1  0
 19 20  1  0
 20 21  2  0
 21 22  1  0
 21 23  1  0
 23 24  2  0
 24 25  1  0
 25 26  2  0
 26 27  1  0
 27 28  3  0
 26 29  1  0
 29 30  2  0
 19 31  2  0
 31 32  1  0
 32 33  2  0
 33 34  1  0
 15 35  1  0
 35 36  2  0
 36 37  1  0
 36 38  1  0
  9  4  1  0
 14 12  1  0
 33 17  1  0
 38 12  1  0
 30 23  1  0
  1 39  1  0
  1 40  1  0
  1 41  1  0
  3 42  1  0
  3 43  1  0
  4 44  1  6
  5 45  1  0
  5 46  1  0
  7 47  1  0
  7 48  1  0
  8 49  1  0
  8 50  1  0
 13 51  1  0
 13 52  1  0
 14 53  1  6
 16 54  1  0
 16 55  1  0
 16 56  1  0
 18 57  1  0
 20 58  1  0
 24 59  1  0
 25 60  1  0
 29 61  1  0
 31 62  1  0
 32 63  1  0
 37 64  1  0
 37 65  1  0
M  END
$$$$
