
     RDKit          3D

 44 44  0  0  0  0  0  0  0  0999 V2000
    0.2037   -2.3733    1.7077 C   0  0  0  0  0  0  0  0  0  0  0  0
    0.9346   -1.5648    0.6337 C   0  0  0  0  0  0  0  0  0  0  0  0
    2.1977   -1.8498    0.4756 C   0  0  0  0  0  0  0  0  0  0  0  0
    3.1990   -1.3108   -0.4176 C   0  0  0  0  0  0  0  0  0  0  0  0
    3.7447   -2.5601   -1.1848 C   0  0  0  0  0  0  0  0  0  0  0  0
    4.3349   -0.7402    0.3640 C   0  0  0  0  0  0  0  0  0  0  0  0
    4.8086    0.4333    0.2123 C   0  0  0  0  0  0  0  0  0  0  0  0
    4.4219    1.4783   -0.6894 C   0  0  0  0  0  0  0  0  0  0  0  0
    3.4842    1.4069   -1.5510 O   0  0  0  0  0  0  0  0  0  0  0  0
    5.1327    2.7405   -0.6506 N   0  0  0  0  0  0  0  0  0  0  0  0
    4.7533    3.7199   -1.5119 O   0  0  0  0  0  0  0  0  0  0  0  0
    0.2231   -0.6207   -0.1961 C   0  0  0  0  0  0  0  0  0  0  0  0
    0.8781   -0.0828   -1.1891 O   0  0  0  0  0  0  0  0  0  0  0  0
   -1.1242   -0.1805   -0.0885 C   0  0  0  0  0  0  0  0  0  0  0  0
   -1.9823   -0.4103    0.9484 C   0  0  0  0  0  0  0  0  0  0  0  0
   -3.3223    0.0074    0.9552 C   0  0  0  0  0  0  0  0  0  0  0  0
   -3.7825    0.6822   -0.1415 C   0  0  0  0  0  0  0  0  0  0  0  0
   -5.1531    1.1106   -0.1369 N   0  0  0  0  0  0  0  0  0  0  0  0
   -5.9747    0.8205    0.9968 C   0  0  0  0  0  0  0  0  0  0  0  0
   -5.6258    1.8256   -1.3086 C   0  0  0  0  0  0  0  0  0  0  0  0
   -2.9637    0.9468   -1.2207 C   0  0  0  0  0  0  0  0  0  0  0  0
   -1.6602    0.5223   -1.1917 C   0  0  0  0  0  0  0  0  0  0  0  0
   -0.7343   -2.7702    1.3764 H   0  0  0  0  0  0  0  0  0  0  0  0
    0.1596   -1.7830    2.6214 H   0  0  0  0  0  0  0  0  0  0  0  0
    0.9028   -3.2651    1.8965 H   0  0  0  0  0  0  0  0  0  0  0  0
    2.5970   -2.6613    1.1497 H   0  0  0  0  0  0  0  0  0  0  0  0
    2.8339   -0.6772   -1.1776 H   0  0  0  0  0  0  0  0  0  0  0  0
    2.9018   -2.8560   -1.8413 H   0  0  0  0  0  0  0  0  0  0  0  0
    3.9232   -3.3619   -0.4617 H   0  0  0  0  0  0  0  0  0  0  0  0
    4.5885   -2.2720   -1.8100 H   0  0  0  0  0  0  0  0  0  0  0  0
    4.7959   -1.4003    1.1362 H   0  0  0  0  0  0  0  0  0  0  0  0
    5.6634    0.7002    0.8861 H   0  0  0  0  0  0  0  0  0  0  0  0
    5.9155    2.9137    0.0111 H   0  0  0  0  0  0  0  0  0  0  0  0
    5.5324    4.0469   -2.0274 H   0  0  0  0  0  0  0  0  0  0  0  0
   -1.7027   -0.8950    1.8640 H   0  0  0  0  0  0  0  0  0  0  0  0
   -3.9705   -0.1929    1.7906 H   0  0  0  0  0  0  0  0  0  0  0  0
   -5.5960    1.4128    1.8769 H   0  0  0  0  0  0  0  0  0  0  0  0
   -7.0094    1.1936    0.8170 H   0  0  0  0  0  0  0  0  0  0  0  0
   -5.9551   -0.2419    1.3138 H   0  0  0  0  0  0  0  0  0  0  0  0
   -4.9496    2.6778   -1.5354 H   0  0  0  0  0  0  0  0  0  0  0  0
   -5.5346    1.0970   -2.1664 H   0  0  0  0  0  0  0  0  0  0  0  0
   -6.6779    2.0994   -1.2392 H   0  0  0  0  0  0  0  0  0  0  0  0
   -3.3602    1.4806   -2.0654 H   0  0  0  0  0  0  0  0  0  0  0  0
   -1.0513    0.7538   -2.0700 H   0  0  0  0  0  0  0  0  0  0  0  0
  1  2  1  0
  2  3  2  3
  3  4  1  0
  4  5  1  0
  4  6  1  0
  6  7  2  3
  7  8  1  0
  8  9  2  0
  8 10  1  0
 10 11  1  0
  2 12  1  0
 12 13  2  0
 12 14  1  0
 14 15  2  0
 15 16  1  0
 16 17  2  0
 17 18  1  0
 18 19  1  0
 18 20  1  0
 17 21  1  0
 21 22  2  0
 22 14  1  0
  1 23  1  0
  1 24  1  0
  1 25  1  0
  3 26  1  0
  4 27  1  0
  5 28  1  0
  5 29  1  0
  5 30  1  0
  6 31  1  0
  7 32  1  0
 10 33  1  0
 11 34  1  0
 15 35  1  0
 16 36  1  0
 19 37  1  0
 19 38  1  0
 19 39  1  0
 20 40  1  0
 20 41  1  0
 20 42  1  0
 21 43  1  0
 22 44  1  0
M  END
$$$$
