@<TRIPOS>MOLECULE
*****
 44 44 0 0 0
SMALL
GASTEIGER

@<TRIPOS>ATOM
      1 C           0.2037   -2.3733    1.7077 C.3     1  UNL1       -0.0363
      2 C           0.9346   -1.5648    0.6337 C.2     1  UNL1       -0.0066
      3 C           2.1977   -1.8498    0.4756 C.2     1  UNL1       -0.0709
      4 C           3.1990   -1.3108   -0.4176 C.3     1  UNL1       -0.0066
      5 C           3.7447   -2.5601   -1.1848 C.3     1  UNL1       -0.0554
      6 C           4.3349   -0.7402    0.3640 C.2     1  UNL1       -0.0725
      7 C           4.8086    0.4333    0.2123 C.2     1  UNL1       -0.0012
      8 C           4.4219    1.4783   -0.6894 C.2     1  UNL1        0.2591
      9 O           3.4842    1.4069   -1.5510 O.2     1  UNL1       -0.2688
     10 N           5.1327    2.7405   -0.6506 N.am    1  UNL1       -0.1940
     11 O           4.7533    3.7199   -1.5119 O.3     1  UNL1       -0.2949
     12 C           0.2231   -0.6207   -0.1961 C.2     1  UNL1        0.1887
     13 O           0.8781   -0.0828   -1.1891 O.2     1  UNL1       -0.2870
     14 C          -1.1242   -0.1805   -0.0885 C.ar    1  UNL1        0.0220
     15 C          -1.9823   -0.4103    0.9484 C.ar    1  UNL1       -0.0492
     16 C          -3.3223    0.0074    0.9552 C.ar    1  UNL1       -0.0400
     17 C          -3.7825    0.6822   -0.1415 C.ar    1  UNL1        0.0292
     18 N          -5.1531    1.1106   -0.1369 N.pl3   1  UNL1       -0.3360
     19 C          -5.9747    0.8205    0.9968 C.3     1  UNL1        0.0004
     20 C          -5.6258    1.8256   -1.3086 C.3     1  UNL1        0.0004
     21 C          -2.9637    0.9468   -1.2207 C.ar    1  UNL1       -0.0400
     22 C          -1.6602    0.5223   -1.1917 C.ar    1  UNL1       -0.0492
     23 H          -0.7343   -2.7702    1.3764 H       1  UNL1        0.0279
     24 H           0.1596   -1.7830    2.6214 H       1  UNL1        0.0279
     25 H           0.9028   -3.2651    1.8965 H       1  UNL1        0.0279
     26 H           2.5970   -2.6613    1.1497 H       1  UNL1        0.0582
     27 H           2.8339   -0.6772   -1.1776 H       1  UNL1        0.0383
     28 H           2.9018   -2.8560   -1.8413 H       1  UNL1        0.0238
     29 H           3.9232   -3.3619   -0.4617 H       1  UNL1        0.0238
     30 H           4.5885   -2.2720   -1.8100 H       1  UNL1        0.0238
     31 H           4.7959   -1.4003    1.1362 H       1  UNL1        0.0579
     32 H           5.6634    0.7002    0.8861 H       1  UNL1        0.0667
     33 H           5.9155    2.9137    0.0111 H       1  UNL1        0.1825
     34 H           5.5324    4.0469   -2.0274 H       1  UNL1        0.2414
     35 H          -1.7027   -0.8950    1.8640 H       1  UNL1        0.0625
     36 H          -3.9705   -0.1929    1.7906 H       1  UNL1        0.0636
     37 H          -5.5960    1.4128    1.8769 H       1  UNL1        0.0428
     38 H          -7.0094    1.1936    0.8170 H       1  UNL1        0.0428
     39 H          -5.9551   -0.2419    1.3138 H       1  UNL1        0.0428
     40 H          -4.9496    2.6778   -1.5354 H       1  UNL1        0.0428
     41 H          -5.5346    1.0970   -2.1664 H       1  UNL1        0.0428
     42 H          -6.6779    2.0994   -1.2392 H       1  UNL1        0.0428
     43 H          -3.3602    1.4806   -2.0654 H       1  UNL1        0.0636
     44 H          -1.0513    0.7538   -2.0700 H       1  UNL1        0.0625
@<TRIPOS>BOND
     1     1     2    1
     2     2     3    2
     3     3     4    1
     4     4     5    1
     5     4     6    1
     6     6     7    2
     7     7     8    1
     8     8     9    2
     9     8    10   am
    10    10    11    1
    11     2    12    1
    12    12    13    2
    13    12    14    1
    14    14    15   ar
    15    15    16   ar
    16    16    17   ar
    17    17    18    1
    18    18    19    1
    19    18    20    1
    20    17    21   ar
    21    21    22   ar
    22    22    14   ar
    23     1    23    1
    24     1    24    1
    25     1    25    1
    26     3    26    1
    27     4    27    1
    28     5    28    1
    29     5    29    1
    30     5    30    1
    31     6    31    1
    32     7    32    1
    33    10    33    1
    34    11    34    1
    35    15    35    1
    36    16    36    1
    37    19    37    1
    38    19    38    1
    39    19    39    1
    40    20    40    1
    41    20    41    1
    42    20    42    1
    43    21    43    1
    44    22    44    1
