@<TRIPOS>MOLECULE
*****
 51 53 0 0 0
SMALL
GASTEIGER

@<TRIPOS>ATOM
      1 C           1.4650    3.5909    1.2781 C.3     1  UNL1       -0.0364
      2 C           2.2346    2.3828    0.8764 C.ar    1  UNL1       -0.0061
      3 C           3.6333    2.5053    0.9477 C.ar    1  UNL1        0.1276
      4 F           4.1589    3.7063    1.3093 F       1  UNL1       -0.2052
      5 C           4.4198    1.4366    0.6551 C.ar    1  UNL1       -0.0140
      6 C           3.9124    0.2170    0.2854 C.ar    1  UNL1        0.0400
      7 C           4.7491   -0.9380   -0.0298 C.2     1  UNL1        0.2444
      8 O           4.1941   -2.0401   -0.3667 O.2     1  UNL1       -0.2702
      9 N           6.1663   -0.9330    0.0094 N.am    1  UNL1       -0.3085
     10 C           6.9444   -2.1213   -0.3171 C.3     1  UNL1        0.0235
     11 C           8.2707   -2.0253   -0.9260 C.3     1  UNL1       -0.0328
     12 C           8.1524   -2.4448    0.5190 C.3     1  UNL1       -0.0328
     13 C           2.5444    0.1226    0.2217 C.ar    1  UNL1       -0.0400
     14 C           1.6869    1.1936    0.5119 C.ar    1  UNL1        0.0067
     15 C           0.2650    0.9485    0.4420 C.ar    1  UNL1        0.0714
     16 C          -0.7293    1.8499    0.2060 C.ar    1  UNL1       -0.0350
     17 C          -2.0883    1.4881    0.1036 C.ar    1  UNL1       -0.0461
     18 C          -2.4389    0.2017    0.2403 C.ar    1  UNL1        0.0548
     19 C          -3.8339   -0.2825    0.1510 C.2     1  UNL1        0.2455
     20 O          -4.0356   -1.5167    0.2936 O.2     1  UNL1       -0.2701
     21 N          -4.9283    0.5574   -0.0820 N.am    1  UNL1       -0.3111
     22 C          -6.2908    0.2108   -0.2041 C.3     1  UNL1        0.0142
     23 C          -6.7763   -0.6166   -1.3160 C.3     1  UNL1       -0.0311
     24 C          -6.2191   -1.9902   -1.4311 C.3     1  UNL1       -0.0612
     25 C          -8.3004   -0.7939   -1.0915 C.3     1  UNL1       -0.0612
     26 C          -1.4151   -0.7101    0.4793 C.ar    1  UNL1        0.0404
     27 N          -0.1539   -0.3550    0.5724 N.ar    1  UNL1       -0.2542
     28 H           0.5896    3.3644    1.9243 H       1  UNL1        0.0279
     29 H           1.2538    4.2537    0.4394 H       1  UNL1        0.0279
     30 H           2.1444    4.2099    1.9568 H       1  UNL1        0.0279
     31 H           5.5024    1.5578    0.7180 H       1  UNL1        0.0654
     32 H           6.6402   -0.0434    0.2820 H       1  UNL1        0.1493
     33 H           6.3242   -2.9993   -0.5902 H       1  UNL1        0.0498
     34 H           8.5848   -2.8133   -1.6698 H       1  UNL1        0.0284
     35 H           8.7829   -1.0617   -1.1322 H       1  UNL1        0.0284
     36 H           8.3934   -3.4964    0.7454 H       1  UNL1        0.0284
     37 H           8.4059   -1.7324    1.3236 H       1  UNL1        0.0284
     38 H           2.1102   -0.8257   -0.0668 H       1  UNL1        0.0632
     39 H          -0.5098    2.8799    0.0510 H       1  UNL1        0.0639
     40 H          -2.8287    2.2563   -0.0844 H       1  UNL1        0.0626
     41 H          -4.6722    1.6027   -0.1790 H       1  UNL1        0.1490
     42 H          -6.6678   -0.2926    0.7692 H       1  UNL1        0.0465
     43 H          -6.8954    1.1846   -0.1436 H       1  UNL1        0.0465
     44 H          -6.7494   -0.0795   -2.3104 H       1  UNL1        0.0311
     45 H          -6.2971   -2.5727   -0.4925 H       1  UNL1        0.0233
     46 H          -6.8979   -2.6216   -2.1323 H       1  UNL1        0.0233
     47 H          -5.2477   -2.0719   -1.9593 H       1  UNL1        0.0233
     48 H          -8.6608   -1.5026   -1.8479 H       1  UNL1        0.0233
     49 H          -8.8038    0.1896   -1.1109 H       1  UNL1        0.0233
     50 H          -8.3902   -1.2597   -0.0919 H       1  UNL1        0.0233
     51 H          -1.6981   -1.7700    0.5919 H       1  UNL1        0.0837
@<TRIPOS>BOND
     1     1     2    1
     2     2     3   ar
     3     3     4    1
     4     3     5   ar
     5     5     6   ar
     6     6     7    1
     7     7     8    2
     8     7     9   am
     9     9    10    1
    10    10    11    1
    11    11    12    1
    12     6    13   ar
    13    13    14   ar
    14    14    15    1
    15    15    16   ar
    16    16    17   ar
    17    17    18   ar
    18    18    19    1
    19    19    20    2
    20    19    21   am
    21    21    22    1
    22    22    23    1
    23    23    24    1
    24    23    25    1
    25    18    26   ar
    26    26    27   ar
    27    14     2   ar
    28    27    15   ar
    29    12    10    1
    30     1    28    1
    31     1    29    1
    32     1    30    1
    33     5    31    1
    34     9    32    1
    35    10    33    1
    36    11    34    1
    37    11    35    1
    38    12    36    1
    39    12    37    1
    40    13    38    1
    41    16    39    1
    42    17    40    1
    43    21    41    1
    44    22    42    1
    45    22    43    1
    46    23    44    1
    47    24    45    1
    48    24    46    1
    49    24    47    1
    50    25    48    1
    51    25    49    1
    52    25    50    1
    53    26    51    1
