
     RDKit          3D

 51 53  0  0  0  0  0  0  0  0999 V2000
    1.4650    3.5909    1.2781 C   0  0  0  0  0  0  0  0  0  0  0  0
    2.2346    2.3828    0.8764 C   0  0  0  0  0  0  0  0  0  0  0  0
    3.6333    2.5053    0.9477 C   0  0  0  0  0  0  0  0  0  0  0  0
    4.1589    3.7063    1.3093 F   0  0  0  0  0  0  0  0  0  0  0  0
    4.4198    1.4366    0.6551 C   0  0  0  0  0  0  0  0  0  0  0  0
    3.9124    0.2170    0.2854 C   0  0  0  0  0  0  0  0  0  0  0  0
    4.7491   -0.9380   -0.0298 C   0  0  0  0  0  0  0  0  0  0  0  0
    4.1941   -2.0401   -0.3667 O   0  0  0  0  0  0  0  0  0  0  0  0
    6.1663   -0.9330    0.0094 N   0  0  0  0  0  0  0  0  0  0  0  0
    6.9444   -2.1213   -0.3171 C   0  0  0  0  0  0  0  0  0  0  0  0
    8.2707   -2.0253   -0.9260 C   0  0  0  0  0  0  0  0  0  0  0  0
    8.1524   -2.4448    0.5190 C   0  0  0  0  0  0  0  0  0  0  0  0
    2.5444    0.1226    0.2217 C   0  0  0  0  0  0  0  0  0  0  0  0
    1.6869    1.1936    0.5119 C   0  0  0  0  0  0  0  0  0  0  0  0
    0.2650    0.9485    0.4420 C   0  0  0  0  0  0  0  0  0  0  0  0
   -0.7293    1.8499    0.2060 C   0  0  0  0  0  0  0  0  0  0  0  0
   -2.0883    1.4881    0.1036 C   0  0  0  0  0  0  0  0  0  0  0  0
   -2.4389    0.2017    0.2403 C   0  0  0  0  0  0  0  0  0  0  0  0
   -3.8339   -0.2825    0.1510 C   0  0  0  0  0  0  0  0  0  0  0  0
   -4.0356   -1.5167    0.2936 O   0  0  0  0  0  0  0  0  0  0  0  0
   -4.9283    0.5574   -0.0820 N   0  0  0  0  0  0  0  0  0  0  0  0
   -6.2908    0.2108   -0.2041 C   0  0  0  0  0  0  0  0  0  0  0  0
   -6.7763   -0.6166   -1.3160 C   0  0  0  0  0  0  0  0  0  0  0  0
   -6.2191   -1.9902   -1.4311 C   0  0  0  0  0  0  0  0  0  0  0  0
   -8.3004   -0.7939   -1.0915 C   0  0  0  0  0  0  0  0  0  0  0  0
   -1.4151   -0.7101    0.4793 C   0  0  0  0  0  0  0  0  0  0  0  0
   -0.1539   -0.3550    0.5724 N   0  0  0  0  0  0  0  0  0  0  0  0
    0.5896    3.3644    1.9243 H   0  0  0  0  0  0  0  0  0  0  0  0
    1.2538    4.2537    0.4394 H   0  0  0  0  0  0  0  0  0  0  0  0
    2.1444    4.2099    1.9568 H   0  0  0  0  0  0  0  0  0  0  0  0
    5.5024    1.5578    0.7180 H   0  0  0  0  0  0  0  0  0  0  0  0
    6.6402   -0.0434    0.2820 H   0  0  0  0  0  0  0  0  0  0  0  0
    6.3242   -2.9993   -0.5902 H   0  0  0  0  0  0  0  0  0  0  0  0
    8.5848   -2.8133   -1.6698 H   0  0  0  0  0  0  0  0  0  0  0  0
    8.7829   -1.0617   -1.1322 H   0  0  0  0  0  0  0  0  0  0  0  0
    8.3934   -3.4964    0.7454 H   0  0  0  0  0  0  0  0  0  0  0  0
    8.4059   -1.7324    1.3236 H   0  0  0  0  0  0  0  0  0  0  0  0
    2.1102   -0.8257   -0.0668 H   0  0  0  0  0  0  0  0  0  0  0  0
   -0.5098    2.8799    0.0510 H   0  0  0  0  0  0  0  0  0  0  0  0
   -2.8287    2.2563   -0.0844 H   0  0  0  0  0  0  0  0  0  0  0  0
   -4.6722    1.6027   -0.1790 H   0  0  0  0  0  0  0  0  0  0  0  0
   -6.6678   -0.2926    0.7692 H   0  0  0  0  0  0  0  0  0  0  0  0
   -6.8954    1.1846   -0.1436 H   0  0  0  0  0  0  0  0  0  0  0  0
   -6.7494   -0.0795   -2.3104 H   0  0  0  0  0  0  0  0  0  0  0  0
   -6.2971   -2.5727   -0.4925 H   0  0  0  0  0  0  0  0  0  0  0  0
   -6.8979   -2.6216   -2.1323 H   0  0  0  0  0  0  0  0  0  0  0  0
   -5.2477   -2.0719   -1.9593 H   0  0  0  0  0  0  0  0  0  0  0  0
   -8.6608   -1.5026   -1.8479 H   0  0  0  0  0  0  0  0  0  0  0  0
   -8.8038    0.1896   -1.1109 H   0  0  0  0  0  0  0  0  0  0  0  0
   -8.3902   -1.2597   -0.0919 H   0  0  0  0  0  0  0  0  0  0  0  0
   -1.6981   -1.7700    0.5919 H   0  0  0  0  0  0  0  0  0  0  0  0
  1  2  1  0
  2  3  2  0
  3  4  1  0
  3  5  1  0
  5  6  2  0
  6  7  1  0
  7  8  2  0
  7  9  1  0
  9 10  1  0
 10 11  1  0
 11 12  1  0
  6 13  1  0
 13 14  2  0
 14 15  1  0
 15 16  2  0
 16 17  1  0
 17 18  2  0
 18 19  1  0
 19 20  2  0
 19 21  1  0
 21 22  1  0
 22 23  1  0
 23 24  1  0
 23 25  1  0
 18 26  1  0
 26 27  2  0
 14  2  1  0
 27 15  1  0
 12 10  1  0
  1 28  1  0
  1 29  1  0
  1 30  1  0
  5 31  1  0
  9 32  1  0
 10 33  1  0
 11 34  1  0
 11 35  1  0
 12 36  1  0
 12 37  1  0
 13 38  1  0
 16 39  1  0
 17 40  1  0
 21 41  1  0
 22 42  1  0
 22 43  1  0
 23 44  1  0
 24 45  1  0
 24 46  1  0
 24 47  1  0
 25 48  1  0
 25 49  1  0
 25 50  1  0
 26 51  1  0
M  END
$$$$
