@<TRIPOS>MOLECULE
*****
 40 41 0 0 0
SMALL
GASTEIGER

@<TRIPOS>ATOM
      1 N           5.8851    3.9386   -1.3232 N.1     1  UNL1       -0.1908
      2 C           5.3548    2.8918   -0.9562 C.1     1  UNL1        0.1007
      3 C           4.7478    1.6859   -0.5239 C.ar    1  UNL1        0.0699
      4 C           5.3350    0.8160    0.3666 C.ar    1  UNL1       -0.0396
      5 C           4.6435   -0.3152    0.9665 C.ar    1  UNL1       -0.0207
      6 C           3.3421   -0.3049    0.4610 C.ar    1  UNL1        0.1188
      7 N           2.4343   -1.2356    1.2714 N.pl3   1  UNL1       -0.3279
      8 C           1.5925   -2.1269    0.6262 C.3     1  UNL1        0.0230
      9 C           0.6428   -1.8196   -0.4228 C.3     1  UNL1        0.0119
     10 N          -0.4556   -0.9473   -0.1716 N.3     1  UNL1       -0.3067
     11 C          -0.2584    0.4284   -0.1153 C.3     1  UNL1        0.0735
     12 C          -1.5749    1.2164   -0.0583 C.2     1  UNL1        0.2304
     13 O          -1.5038    2.3775   -0.0851 O.2     1  UNL1       -0.2742
     14 N          -2.7691    0.4352    0.0025 N.am    1  UNL1       -0.2846
     15 C          -4.0102    0.8752   -0.7386 C.3     1  UNL1        0.0160
     16 C          -4.9288    1.0709    0.4376 C.3     1  UNL1       -0.0345
     17 C          -4.6942   -0.2149    1.2104 C.3     1  UNL1       -0.0196
     18 C          -3.2254   -0.5901    0.8468 C.3     1  UNL1        0.1129
     19 C          -3.2030   -1.9692    0.4786 C.1     1  UNL1        0.0851
     20 N          -3.1975   -3.0478    0.1747 N.1     1  UNL1       -0.1946
     21 N           2.8252    0.4044   -0.2998 N.ar    1  UNL1       -0.2392
     22 C           3.3893    1.5103   -0.9307 C.ar    1  UNL1        0.0470
     23 H           6.3580    0.9791    0.6561 H       1  UNL1        0.0632
     24 H           5.0331   -0.9715    1.6149 H       1  UNL1        0.0652
     25 H           2.5593   -1.0767    2.2588 H       1  UNL1        0.1475
     26 H           2.1499   -3.0851    0.3121 H       1  UNL1        0.0474
     27 H           0.9578   -2.5972    1.5112 H       1  UNL1        0.0474
     28 H           1.1866   -1.4220   -1.3389 H       1  UNL1        0.0439
     29 H           0.1847   -2.8055   -0.8343 H       1  UNL1        0.0439
     30 H          -0.7952   -1.2746    0.8431 H       1  UNL1        0.1224
     31 H           0.3155    0.7948    0.7619 H       1  UNL1        0.0520
     32 H           0.2496    0.8400   -1.0402 H       1  UNL1        0.0520
     33 H          -4.2964    0.0666   -1.4328 H       1  UNL1        0.0465
     34 H          -3.7720    1.8350   -1.2465 H       1  UNL1        0.0465
     35 H          -5.9982    1.1374    0.1367 H       1  UNL1        0.0281
     36 H          -4.5545    1.9559    0.9817 H       1  UNL1        0.0281
     37 H          -4.8068   -0.0658    2.2698 H       1  UNL1        0.0294
     38 H          -5.3703   -0.9989    0.8106 H       1  UNL1        0.0294
     39 H          -2.6911   -0.5090    1.8692 H       1  UNL1        0.0659
     40 H           2.9186    2.1187   -1.5933 H       1  UNL1        0.0843
@<TRIPOS>BOND
     1     1     2    3
     2     2     3    1
     3     3     4   ar
     4     4     5   ar
     5     5     6   ar
     6     6     7    1
     7     7     8    1
     8     8     9    1
     9     9    10    1
    10    10    11    1
    11    11    12    1
    12    12    13    2
    13    12    14   am
    14    14    15    1
    15    15    16    1
    16    16    17    1
    17    17    18    1
    18    18    19    1
    19    19    20    3
    20     6    21   ar
    21    21    22   ar
    22    22     3   ar
    23    18    14    1
    24     4    23    1
    25     5    24    1
    26     7    25    1
    27     8    26    1
    28     8    27    1
    29     9    28    1
    30     9    29    1
    31    10    30    1
    32    11    31    1
    33    11    32    1
    34    15    33    1
    35    15    34    1
    36    16    35    1
    37    16    36    1
    38    17    37    1
    39    17    38    1
    40    18    39    1
    41    22    40    1
