@<TRIPOS>MOLECULE
*****
 47 49 0 0 0
SMALL
GASTEIGER

@<TRIPOS>ATOM
      1 C          -3.6871   -1.2853   -1.5122 C.3     1  UNL1       -0.0612
      2 C          -3.5086   -0.4314   -0.2666 C.3     1  UNL1       -0.0284
      3 C          -2.6959   -1.0880    0.7608 C.ar    1  UNL1       -0.0192
      4 C          -3.3168   -1.8440    1.7766 C.ar    1  UNL1       -0.0194
      5 C          -2.6223   -2.5597    2.7167 C.ar    1  UNL1        0.1464
      6 F          -3.2489   -3.2745    3.6775 F       1  UNL1       -0.2035
      7 C          -1.2532   -2.5613    2.6955 C.ar    1  UNL1        0.0880
      8 N          -0.4689   -3.2895    3.6444 N.pl3   1  UNL1       -0.3540
      9 C          -0.6106   -1.8354    1.7219 C.ar    1  UNL1        0.1134
     10 N           0.7204   -1.6937    1.4977 N.ar    1  UNL1       -0.2226
     11 C           0.8644   -0.8991    0.4383 C.ar    1  UNL1        0.1776
     12 C           2.0882   -0.4492   -0.2075 C.ar    1  UNL1        0.1712
     13 C           2.5529   -0.7676   -1.4645 C.ar    1  UNL1       -0.0119
     14 C           3.7501   -0.1159   -1.6571 C.ar    1  UNL1       -0.0077
     15 C           3.9773    0.5880   -0.4925 C.ar    1  UNL1        0.2160
     16 P           5.4304    1.6031   -0.2582 P.3     1  UNL1        0.3929
     17 O           6.6714    0.7071   -0.1663 O.2     1  UNL1       -0.2503
     18 O           5.3584    2.4977    1.1602 O.3     1  UNL1       -0.3187
     19 O           5.6391    2.6135   -1.6150 O.3     1  UNL1       -0.3187
     20 O           2.9826    0.3718    0.3397 O.2     1  UNL1       -0.4443
     21 N          -0.3879   -0.5301   -0.0149 N.ar    1  UNL1       -0.3206
     22 C          -0.5890    0.3124   -1.1446 C.3     1  UNL1        0.0277
     23 C          -0.3745    1.7680   -0.7667 C.3     1  UNL1       -0.0286
     24 C          -1.2765    2.2562    0.3129 C.3     1  UNL1       -0.0610
     25 C          -0.5892    2.6698   -1.9698 C.3     1  UNL1       -0.0610
     26 C          -1.3172   -1.1038    0.7642 C.ar    1  UNL1        0.0744
     27 H          -2.7729   -1.8505   -1.7593 H       1  UNL1        0.0233
     28 H          -4.5029   -2.0322   -1.3966 H       1  UNL1        0.0233
     29 H          -4.0203   -0.6014   -2.3203 H       1  UNL1        0.0233
     30 H          -4.5749   -0.4280    0.1565 H       1  UNL1        0.0311
     31 H          -3.3790    0.6261   -0.4415 H       1  UNL1        0.0311
     32 H          -4.4095   -1.8235    1.7653 H       1  UNL1        0.0650
     33 H          -0.3933   -3.0366    4.6498 H       1  UNL1        0.1425
     34 H           0.0665   -4.1285    3.3297 H       1  UNL1        0.1425
     35 H           2.0378   -1.4182   -2.1390 H       1  UNL1        0.0657
     36 H           4.3507   -0.1822   -2.5608 H       1  UNL1        0.0658
     37 H           5.9375    2.0976    1.8588 H       1  UNL1        0.2201
     38 H           4.7746    2.6613   -2.0668 H       1  UNL1        0.2201
     39 H           0.2675    0.1582   -1.9029 H       1  UNL1        0.0495
     40 H          -1.5297    0.2905   -1.6622 H       1  UNL1        0.0495
     41 H           0.6779    1.9514   -0.4511 H       1  UNL1        0.0313
     42 H          -2.2124    2.6601   -0.1825 H       1  UNL1        0.0233
     43 H          -0.8305    3.1536    0.8212 H       1  UNL1        0.0233
     44 H          -1.5818    1.4974    1.0561 H       1  UNL1        0.0233
     45 H          -1.6586    2.6048   -2.3020 H       1  UNL1        0.0233
     46 H           0.0980    2.4301   -2.7918 H       1  UNL1        0.0233
     47 H          -0.4334    3.7108   -1.6309 H       1  UNL1        0.0233
@<TRIPOS>BOND
     1     1     2    1
     2     2     3    1
     3     3     4   ar
     4     4     5   ar
     5     5     6    1
     6     5     7   ar
     7     7     8    1
     8     7     9   ar
     9     9    10   ar
    10    10    11   ar
    11    11    12    1
    12    12    13   ar
    13    13    14   ar
    14    14    15   ar
    15    15    16    1
    16    16    17    2
    17    16    18    1
    18    16    19    1
    19    15    20   ar
    20    11    21   ar
    21    21    22    1
    22    22    23    1
    23    23    24    1
    24    23    25    1
    25    21    26   ar
    26    26     3   ar
    27    26     9   ar
    28    20    12   ar
    29     1    27    1
    30     1    28    1
    31     1    29    1
    32     2    30    1
    33     2    31    1
    34     4    32    1
    35     8    33    1
    36     8    34    1
    37    13    35    1
    38    14    36    1
    39    18    37    1
    40    19    38    1
    41    22    39    1
    42    22    40    1
    43    23    41    1
    44    24    42    1
    45    24    43    1
    46    24    44    1
    47    25    45    1
    48    25    46    1
    49    25    47    1
