
     RDKit          3D

 47 49  0  0  0  0  0  0  0  0999 V2000
   -3.6871   -1.2853   -1.5122 C   0  0  0  0  0  0  0  0  0  0  0  0
   -3.5086   -0.4314   -0.2666 C   0  0  0  0  0  0  0  0  0  0  0  0
   -2.6959   -1.0880    0.7608 C   0  0  0  0  0  0  0  0  0  0  0  0
   -3.3168   -1.8440    1.7766 C   0  0  0  0  0  0  0  0  0  0  0  0
   -2.6223   -2.5597    2.7167 C   0  0  0  0  0  0  0  0  0  0  0  0
   -3.2489   -3.2745    3.6775 F   0  0  0  0  0  0  0  0  0  0  0  0
   -1.2532   -2.5613    2.6955 C   0  0  0  0  0  0  0  0  0  0  0  0
   -0.4689   -3.2895    3.6444 N   0  0  0  0  0  0  0  0  0  0  0  0
   -0.6106   -1.8354    1.7219 C   0  0  0  0  0  0  0  0  0  0  0  0
    0.7204   -1.6937    1.4977 N   0  0  0  0  0  0  0  0  0  0  0  0
    0.8644   -0.8991    0.4383 C   0  0  0  0  0  0  0  0  0  0  0  0
    2.0882   -0.4492   -0.2075 C   0  0  0  0  0  0  0  0  0  0  0  0
    2.5529   -0.7676   -1.4645 C   0  0  0  0  0  0  0  0  0  0  0  0
    3.7501   -0.1159   -1.6571 C   0  0  0  0  0  0  0  0  0  0  0  0
    3.9773    0.5880   -0.4925 C   0  0  0  0  0  0  0  0  0  0  0  0
    5.4304    1.6031   -0.2582 P   0  0  0  0  0  5  0  0  0  0  0  0
    6.6714    0.7071   -0.1663 O   0  0  0  0  0  0  0  0  0  0  0  0
    5.3584    2.4977    1.1602 O   0  0  0  0  0  0  0  0  0  0  0  0
    5.6391    2.6135   -1.6150 O   0  0  0  0  0  0  0  0  0  0  0  0
    2.9826    0.3718    0.3397 O   0  0  0  0  0  0  0  0  0  0  0  0
   -0.3879   -0.5301   -0.0149 N   0  0  0  0  0  0  0  0  0  0  0  0
   -0.5890    0.3124   -1.1446 C   0  0  0  0  0  0  0  0  0  0  0  0
   -0.3745    1.7680   -0.7667 C   0  0  0  0  0  0  0  0  0  0  0  0
   -1.2765    2.2562    0.3129 C   0  0  0  0  0  0  0  0  0  0  0  0
   -0.5892    2.6698   -1.9698 C   0  0  0  0  0  0  0  0  0  0  0  0
   -1.3172   -1.1038    0.7642 C   0  0  0  0  0  0  0  0  0  0  0  0
   -2.7729   -1.8505   -1.7593 H   0  0  0  0  0  0  0  0  0  0  0  0
   -4.5029   -2.0322   -1.3966 H   0  0  0  0  0  0  0  0  0  0  0  0
   -4.0203   -0.6014   -2.3203 H   0  0  0  0  0  0  0  0  0  0  0  0
   -4.5749   -0.4280    0.1565 H   0  0  0  0  0  0  0  0  0  0  0  0
   -3.3790    0.6261   -0.4415 H   0  0  0  0  0  0  0  0  0  0  0  0
   -4.4095   -1.8235    1.7653 H   0  0  0  0  0  0  0  0  0  0  0  0
   -0.3933   -3.0366    4.6498 H   0  0  0  0  0  0  0  0  0  0  0  0
    0.0665   -4.1285    3.3297 H   0  0  0  0  0  0  0  0  0  0  0  0
    2.0378   -1.4182   -2.1390 H   0  0  0  0  0  0  0  0  0  0  0  0
    4.3507   -0.1822   -2.5608 H   0  0  0  0  0  0  0  0  0  0  0  0
    5.9375    2.0976    1.8588 H   0  0  0  0  0  0  0  0  0  0  0  0
    4.7746    2.6613   -2.0668 H   0  0  0  0  0  0  0  0  0  0  0  0
    0.2675    0.1582   -1.9029 H   0  0  0  0  0  0  0  0  0  0  0  0
   -1.5297    0.2905   -1.6622 H   0  0  0  0  0  0  0  0  0  0  0  0
    0.6779    1.9514   -0.4511 H   0  0  0  0  0  0  0  0  0  0  0  0
   -2.2124    2.6601   -0.1825 H   0  0  0  0  0  0  0  0  0  0  0  0
   -0.8305    3.1536    0.8212 H   0  0  0  0  0  0  0  0  0  0  0  0
   -1.5818    1.4974    1.0561 H   0  0  0  0  0  0  0  0  0  0  0  0
   -1.6586    2.6048   -2.3020 H   0  0  0  0  0  0  0  0  0  0  0  0
    0.0980    2.4301   -2.7918 H   0  0  0  0  0  0  0  0  0  0  0  0
   -0.4334    3.7108   -1.6309 H   0  0  0  0  0  0  0  0  0  0  0  0
  1  2  1  0
  2  3  1  0
  3  4  2  0
  4  5  1  0
  5  6  1  0
  5  7  2  0
  7  8  1  0
  7  9  1  0
  9 10  1  0
 10 11  2  0
 11 12  1  0
 12 13  2  0
 13 14  1  0
 14 15  2  0
 15 16  1  0
 16 17  2  0
 16 18  1  0
 16 19  1  0
 15 20  1  0
 11 21  1  0
 21 22  1  0
 22 23  1  0
 23 24  1  0
 23 25  1  0
 21 26  1  0
 26  3  1  0
 26  9  2  0
 20 12  1  0
  1 27  1  0
  1 28  1  0
  1 29  1  0
  2 30  1  0
  2 31  1  0
  4 32  1  0
  8 33  1  0
  8 34  1  0
 13 35  1  0
 14 36  1  0
 18 37  1  0
 19 38  1  0
 22 39  1  0
 22 40  1  0
 23 41  1  0
 24 42  1  0
 24 43  1  0
 24 44  1  0
 25 45  1  0
 25 46  1  0
 25 47  1  0
M  END
$$$$
