@<TRIPOS>MOLECULE
*****
 50 54 0 0 0
SMALL
GASTEIGER

@<TRIPOS>ATOM
      1 C          -2.4446    0.0981    0.7826 C.3     1  UNL1        0.1313
      2 O          -1.6130    0.8470   -0.0753 O.3     1  UNL1       -0.4859
      3 C          -0.2980    1.0415    0.3265 C.ar    1  UNL1        0.1211
      4 C           0.3018    0.5845    1.4789 C.ar    1  UNL1       -0.0193
      5 C           1.6263    0.8755    1.7144 C.ar    1  UNL1       -0.0490
      6 C           2.4016    1.6237    0.8260 C.ar    1  UNL1        0.0026
      7 C           1.7641    2.0613   -0.3130 C.ar    1  UNL1       -0.0490
      8 C           0.4423    1.7794   -0.5633 C.ar    1  UNL1       -0.0193
      9 C           3.7746    1.8318    1.2562 C.ar    1  UNL1        0.0960
     10 N           4.0800    2.2224    2.5181 N.ar    1  UNL1       -0.1736
     11 N           5.3893    2.3358    2.6457 N.ar    1  UNL1       -0.2839
     12 C           5.9116    2.0118    1.4483 C.ar    1  UNL1        0.0264
     13 C           4.9250    1.6795    0.5179 C.ar    1  UNL1        0.0020
     14 C           5.1149    1.2656   -0.8807 C.3     1  UNL1        0.0012
     15 C           4.9669   -0.1961   -1.0950 C.ar    1  UNL1       -0.0401
     16 C           3.8136   -0.8792   -1.4209 C.ar    1  UNL1       -0.0401
     17 C           3.8068   -2.2468   -1.5928 C.ar    1  UNL1        0.0278
     18 N           4.9209   -2.9978   -1.4538 N.ar    1  UNL1       -0.2632
     19 C           6.0819   -2.3998   -1.1369 C.ar    1  UNL1        0.0278
     20 C           6.0848   -1.0322   -0.9657 C.ar    1  UNL1       -0.0401
     21 C          -3.8142   -0.0362    0.2438 C.ar    1  UNL1        0.0792
     22 N          -4.7499   -0.7056    0.9390 N.ar    1  UNL1       -0.2482
     23 C          -5.9980   -0.8299    0.4534 C.ar    1  UNL1        0.0714
     24 C          -7.0063   -1.5086    1.1238 C.ar    1  UNL1       -0.0357
     25 C          -8.2908   -1.6417    0.6336 C.ar    1  UNL1       -0.0597
     26 C          -8.6055   -1.0702   -0.5964 C.ar    1  UNL1       -0.0611
     27 C          -7.6090   -0.3944   -1.2685 C.ar    1  UNL1       -0.0526
     28 C          -6.3330   -0.2640   -0.7783 C.ar    1  UNL1        0.0004
     29 C          -5.3618    0.4221   -1.4838 C.ar    1  UNL1       -0.0508
     30 C          -4.0809    0.5548   -0.9950 C.ar    1  UNL1       -0.0365
     31 H          -1.9864   -0.9044    0.8959 H       1  UNL1        0.0763
     32 H          -2.5325    0.6015    1.7687 H       1  UNL1        0.0763
     33 H          -0.3344    0.0101    2.1382 H       1  UNL1        0.0654
     34 H           2.0128    0.4772    2.6412 H       1  UNL1        0.0625
     35 H           2.3874    2.6371   -0.9739 H       1  UNL1        0.0625
     36 H           0.0635    2.1815   -1.4939 H       1  UNL1        0.0654
     37 H           5.9009    2.6186    3.5013 H       1  UNL1        0.1882
     38 H           6.9815    1.9996    1.1987 H       1  UNL1        0.0827
     39 H           6.1908    1.4962   -1.1434 H       1  UNL1        0.0363
     40 H           4.5374    1.8585   -1.6164 H       1  UNL1        0.0363
     41 H           2.9236   -0.2802   -1.5331 H       1  UNL1        0.0635
     42 H           2.8444   -2.6689   -1.8459 H       1  UNL1        0.0829
     43 H           7.0066   -2.9544   -1.0129 H       1  UNL1        0.0829
     44 H           7.0312   -0.5719   -0.7101 H       1  UNL1        0.0635
     45 H          -6.7502   -1.9495    2.0816 H       1  UNL1        0.0639
     46 H          -9.0776   -2.1682    1.1501 H       1  UNL1        0.0618
     47 H          -9.5739   -1.1076   -1.0817 H       1  UNL1        0.0618
     48 H          -7.8097    0.0653   -2.2271 H       1  UNL1        0.0624
     49 H          -5.6345    0.8537   -2.4326 H       1  UNL1        0.0625
     50 H          -3.3822    1.0979   -1.5936 H       1  UNL1        0.0637
@<TRIPOS>BOND
     1     1     2    1
     2     2     3    1
     3     3     4   ar
     4     4     5   ar
     5     5     6   ar
     6     6     7   ar
     7     7     8   ar
     8     6     9    1
     9     9    10   ar
    10    10    11   ar
    11    11    12   ar
    12    12    13   ar
    13    13    14    1
    14    14    15    1
    15    15    16   ar
    16    16    17   ar
    17    17    18   ar
    18    18    19   ar
    19    19    20   ar
    20     1    21    1
    21    21    22   ar
    22    22    23   ar
    23    23    24   ar
    24    24    25   ar
    25    25    26   ar
    26    26    27   ar
    27    27    28   ar
    28    28    29   ar
    29    29    30   ar
    30     8     3   ar
    31    13     9   ar
    32    20    15   ar
    33    30    21   ar
    34    28    23   ar
    35     1    31    1
    36     1    32    1
    37     4    33    1
    38     5    34    1
    39     7    35    1
    40     8    36    1
    41    11    37    1
    42    12    38    1
    43    14    39    1
    44    14    40    1
    45    16    41    1
    46    17    42    1
    47    19    43    1
    48    20    44    1
    49    24    45    1
    50    25    46    1
    51    26    47    1
    52    27    48    1
    53    29    49    1
    54    30    50    1
