@<TRIPOS>MOLECULE
*****
 53 55 0 0 0
SMALL
GASTEIGER

@<TRIPOS>ATOM
      1 C           5.8875   -3.0119   -0.2535 C.3     1  UNL1       -0.0307
      2 C           6.0270   -1.8532   -1.1886 C.3     1  UNL1        0.0868
      3 O           5.8713   -0.5938   -0.6165 O.3     1  UNL1       -0.4922
      4 C           4.7329   -0.1368    0.0218 C.ar    1  UNL1        0.1205
      5 C           3.5135   -0.7293    0.2619 C.ar    1  UNL1       -0.0197
      6 C           2.5277   -0.0472    0.9336 C.ar    1  UNL1       -0.0548
      7 C           2.6909    1.2596    1.4067 C.ar    1  UNL1       -0.0428
      8 C           1.5046    1.7999    2.1154 C.3     1  UNL1       -0.0010
      9 C           0.4948    2.3111    1.1814 C.ar    1  UNL1       -0.0244
     10 C           0.4478    3.4876    0.4763 C.ar    1  UNL1        0.0445
     11 CL          1.7858    4.5828    0.7270 Cl      1  UNL1       -0.0832
     12 C          -0.5881    3.8034   -0.3748 C.ar    1  UNL1       -0.0428
     13 C          -1.6513    2.9483   -0.5714 C.ar    1  UNL1       -0.0546
     14 C          -1.6690    1.7473    0.1061 C.ar    1  UNL1       -0.0160
     15 C          -0.6081    1.4796    0.9456 C.ar    1  UNL1       -0.0512
     16 C          -2.7841    0.8157   -0.0831 C.3     1  UNL1        0.1125
     17 O          -3.2673    0.2851    1.1051 O.3     1  UNL1       -0.3612
     18 C          -4.2649   -0.6213    0.8804 C.3     1  UNL1        0.1108
     19 C          -4.0314   -1.8837    1.6865 C.3     1  UNL1        0.0729
     20 O          -5.0470   -2.8203    1.4637 O.3     1  UNL1       -0.3924
     21 C          -4.5942   -0.9163   -0.5402 C.3     1  UNL1        0.1117
     22 O          -5.5406    0.0086   -1.0385 O.3     1  UNL1       -0.3865
     23 C          -3.4389   -1.0820   -1.4636 C.3     1  UNL1        0.1121
     24 O          -3.1438   -2.4166   -1.7378 O.3     1  UNL1       -0.3865
     25 C          -2.2488   -0.3318   -0.9447 C.3     1  UNL1        0.1137
     26 O          -1.5228    0.2196   -2.0028 O.3     1  UNL1       -0.3862
     27 C           3.9102    1.8325    1.1586 C.ar    1  UNL1       -0.0548
     28 C           4.9130    1.1691    0.4875 C.ar    1  UNL1       -0.0197
     29 H           5.3092   -3.8683   -0.6985 H       1  UNL1        0.0262
     30 H           6.8894   -3.4684    0.0019 H       1  UNL1        0.0262
     31 H           5.4290   -2.7768    0.7050 H       1  UNL1        0.0262
     32 H           7.0359   -1.9062   -1.6348 H       1  UNL1        0.0694
     33 H           5.2489   -1.9741   -1.9710 H       1  UNL1        0.0694
     34 H           3.4601   -1.7291   -0.1308 H       1  UNL1        0.0654
     35 H           1.6228   -0.6228    1.0549 H       1  UNL1        0.0622
     36 H           1.8448    2.5847    2.8297 H       1  UNL1        0.0362
     37 H           1.1004    0.9849    2.7524 H       1  UNL1        0.0362
     38 H          -0.5532    4.7570   -0.8996 H       1  UNL1        0.0632
     39 H          -2.4232    3.2721   -1.2555 H       1  UNL1        0.0622
     40 H          -0.6815    0.5075    1.4553 H       1  UNL1        0.0624
     41 H          -3.6091    1.2803   -0.6213 H       1  UNL1        0.0673
     42 H          -5.2023   -0.1679    1.3205 H       1  UNL1        0.0646
     43 H          -3.0596   -2.3611    1.4558 H       1  UNL1        0.0584
     44 H          -4.0501   -1.6846    2.7767 H       1  UNL1        0.0584
     45 H          -5.9210   -2.4846    1.7590 H       1  UNL1        0.2095
     46 H          -5.1533   -1.8900   -0.5432 H       1  UNL1        0.0647
     47 H          -6.2659    0.1358   -0.3908 H       1  UNL1        0.2100
     48 H          -3.7104   -0.5998   -2.4422 H       1  UNL1        0.0647
     49 H          -3.7961   -2.7382   -2.3997 H       1  UNL1        0.2100
     50 H          -1.5413   -0.9614   -0.3702 H       1  UNL1        0.0649
     51 H          -1.7139   -0.1958   -2.8766 H       1  UNL1        0.2100
     52 H           4.0165    2.8334    1.5369 H       1  UNL1        0.0622
     53 H           5.8173    1.7676    0.3743 H       1  UNL1        0.0654
@<TRIPOS>BOND
     1     1     2    1
     2     2     3    1
     3     3     4    1
     4     4     5   ar
     5     5     6   ar
     6     6     7   ar
     7     7     8    1
     8     8     9    1
     9     9    10   ar
    10    10    11    1
    11    10    12   ar
    12    12    13   ar
    13    13    14   ar
    14    14    15   ar
    15    14    16    1
    16    16    17    1
    17    17    18    1
    18    18    19    1
    19    19    20    1
    20    18    21    1
    21    21    22    1
    22    21    23    1
    23    23    24    1
    24    23    25    1
    25    25    26    1
    26     7    27   ar
    27    27    28   ar
    28    28     4   ar
    29    15     9   ar
    30    25    16    1
    31     1    29    1
    32     1    30    1
    33     1    31    1
    34     2    32    1
    35     2    33    1
    36     5    34    1
    37     6    35    1
    38     8    36    1
    39     8    37    1
    40    12    38    1
    41    13    39    1
    42    15    40    1
    43    16    41    1
    44    18    42    1
    45    19    43    1
    46    19    44    1
    47    20    45    1
    48    21    46    1
    49    22    47    1
    50    23    48    1
    51    24    49    1
    52    25    50    1
    53    26    51    1
    54    27    52    1
    55    28    53    1
