
     RDKit          3D

 33 34  0  0  0  0  0  0  0  0999 V2000
    1.2320    1.1079    2.5338 C   0  0  0  0  0  0  0  0  0  0  0  0
    1.4018    0.5319    1.3566 C   0  0  0  0  0  0  0  0  0  0  0  0
    2.4312   -0.4915    1.0772 C   0  0  0  0  0  0  0  0  0  0  0  0
    3.2480   -0.9278    1.9084 O   0  0  0  0  0  0  0  0  0  0  0  0
    2.3499   -0.9034   -0.2818 N   0  0  0  0  0  0  0  0  0  0  0  0
    3.1987   -1.8963   -0.9306 C   0  0  0  0  0  0  0  0  0  0  0  0
    4.3890   -1.2342   -1.5106 C   0  0  0  0  0  0  0  0  0  0  0  0
    5.2435   -1.9222   -2.1138 O   0  0  0  0  0  0  0  0  0  0  0  0
    4.5926    0.1296   -1.4091 O   0  0  0  0  0  0  0  0  0  0  0  0
    1.2889   -0.1602   -0.8666 C   0  0  0  0  0  0  0  0  0  0  0  0
    0.9247   -0.2608   -2.0645 O   0  0  0  0  0  0  0  0  0  0  0  0
    0.7136    0.7115    0.1303 N   0  0  0  0  0  0  0  0  0  0  0  0
   -0.3804    1.6205   -0.0845 C   0  0  0  0  0  0  0  0  0  0  0  0
   -1.7080    0.9975    0.1407 C   0  0  0  0  0  0  0  0  0  0  0  0
   -2.2879    1.0366    1.3702 C   0  0  0  0  0  0  0  0  0  0  0  0
   -3.5307    0.4359    1.5242 C   0  0  0  0  0  0  0  0  0  0  0  0
   -4.1464   -0.1806    0.4443 C   0  0  0  0  0  0  0  0  0  0  0  0
   -3.5624   -0.2232   -0.8059 C   0  0  0  0  0  0  0  0  0  0  0  0
   -4.2242   -0.8612   -1.8770 N   0  0  0  0  0  4  0  0  0  0  0  0
   -3.6971   -0.8976   -2.9981 O   0  0  0  0  0  0  0  0  0  0  0  0
   -5.4417   -1.4395   -1.6897 O   0  0  0  0  0  1  0  0  0  0  0  0
   -2.3288    0.3807   -0.9310 C   0  0  0  0  0  0  0  0  0  0  0  0
    1.8493    0.8553    3.3698 H   0  0  0  0  0  0  0  0  0  0  0  0
    0.4608    1.8490    2.6619 H   0  0  0  0  0  0  0  0  0  0  0  0
    3.4681   -2.7107   -0.2216 H   0  0  0  0  0  0  0  0  0  0  0  0
    2.6046   -2.3785   -1.7338 H   0  0  0  0  0  0  0  0  0  0  0  0
    5.4096    0.5905   -1.8019 H   0  0  0  0  0  0  0  0  0  0  0  0
   -0.3297    2.5081    0.5965 H   0  0  0  0  0  0  0  0  0  0  0  0
   -0.3400    2.0635   -1.1188 H   0  0  0  0  0  0  0  0  0  0  0  0
   -1.8587    1.5008    2.2432 H   0  0  0  0  0  0  0  0  0  0  0  0
   -4.0056    0.4580    2.4954 H   0  0  0  0  0  0  0  0  0  0  0  0
   -5.1273   -0.6562    0.5607 H   0  0  0  0  0  0  0  0  0  0  0  0
   -1.8375    0.3669   -1.9026 H   0  0  0  0  0  0  0  0  0  0  0  0
  1  2  2  3
  2  3  1  0
  3  4  2  0
  3  5  1  0
  5  6  1  0
  6  7  1  0
  7  8  2  0
  7  9  1  0
  5 10  1  0
 10 11  2  0
 10 12  1  0
 12 13  1  0
 13 14  1  0
 14 15  2  0
 15 16  1  0
 16 17  2  0
 17 18  1  0
 18 19  1  0
 19 20  2  0
 19 21  1  0
 18 22  2  0
 12  2  1  0
 22 14  1  0
  1 23  1  0
  1 24  1  0
  6 25  1  0
  6 26  1  0
  9 27  1  0
 13 28  1  0
 13 29  1  0
 15 30  1  0
 16 31  1  0
 17 32  1  0
 22 33  1  0
M  CHG  2  19   1  21  -1
M  END
$$$$
