@<TRIPOS>MOLECULE
*****
 33 34 0 0 0
SMALL
GASTEIGER

@<TRIPOS>ATOM
      1 C           1.2320    1.1079    2.5338 C.2     1  UNL1       -0.0720
      2 C           1.4018    0.5319    1.3566 C.2     1  UNL1        0.0935
      3 C           2.4312   -0.4915    1.0772 C.2     1  UNL1        0.2684
      4 O           3.2480   -0.9278    1.9084 O.2     1  UNL1       -0.2681
      5 N           2.3499   -0.9034   -0.2818 N.am    1  UNL1       -0.2097
      6 C           3.1987   -1.8963   -0.9306 C.3     1  UNL1        0.1211
      7 C           4.3890   -1.2342   -1.5106 C.2     1  UNL1        0.3228
      8 O           5.2435   -1.9222   -2.1138 O.2     1  UNL1       -0.2492
      9 O           4.5926    0.1296   -1.4091 O.3     1  UNL1       -0.4795
     10 C           1.2889   -0.1602   -0.8666 C.2     1  UNL1        0.3165
     11 O           0.9247   -0.2608   -2.0645 O.2     1  UNL1       -0.2516
     12 N           0.7136    0.7115    0.1303 N.am    1  UNL1       -0.2464
     13 C          -0.3804    1.6205   -0.0845 C.3     1  UNL1        0.0467
     14 C          -1.7080    0.9975    0.1407 C.ar    1  UNL1       -0.0232
     15 C          -2.2879    1.0366    1.3702 C.ar    1  UNL1       -0.0566
     16 C          -3.5307    0.4359    1.5242 C.ar    1  UNL1       -0.0550
     17 C          -4.1464   -0.1806    0.4443 C.ar    1  UNL1        0.0156
     18 C          -3.5624   -0.2232   -0.8059 C.ar    1  UNL1        0.2735
     19 N          -4.2242   -0.8612   -1.8770 N.pl3   1  UNL1        0.0796
     20 O          -3.6971   -0.8976   -2.9981 O.2     1  UNL1        0.0414
     21 O          -5.4417   -1.4395   -1.6897 O.co2   1  UNL1       -0.5760
     22 C          -2.3288    0.3807   -0.9310 C.ar    1  UNL1        0.0203
     23 H           1.8493    0.8553    3.3698 H       1  UNL1        0.0555
     24 H           0.4608    1.8490    2.6619 H       1  UNL1        0.0555
     25 H           3.4681   -2.7107   -0.2216 H       1  UNL1        0.0585
     26 H           2.6046   -2.3785   -1.7338 H       1  UNL1        0.0585
     27 H           5.4096    0.5905   -1.8019 H       1  UNL1        0.2951
     28 H          -0.3297    2.5081    0.5965 H       1  UNL1        0.0518
     29 H          -0.3400    2.0635   -1.1188 H       1  UNL1        0.0518
     30 H          -1.8587    1.5008    2.2432 H       1  UNL1        0.0621
     31 H          -4.0056    0.4580    2.4954 H       1  UNL1        0.0620
     32 H          -5.1273   -0.6562    0.5607 H       1  UNL1        0.0685
     33 H          -1.8375    0.3669   -1.9026 H       1  UNL1        0.0688
@<TRIPOS>UNITY_ATOM_ATTR
19 1
charge 1
21 1
charge -1
@<TRIPOS>BOND
     1     1     2    2
     2     2     3    1
     3     3     4    2
     4     3     5   am
     5     5     6    1
     6     6     7    1
     7     7     8    2
     8     7     9    1
     9     5    10   am
    10    10    11    2
    11    10    12   am
    12    12    13    1
    13    13    14    1
    14    14    15   ar
    15    15    16   ar
    16    16    17   ar
    17    17    18   ar
    18    18    19    1
    19    19    20    2
    20    19    21    1
    21    18    22   ar
    22    12     2    1
    23    22    14   ar
    24     1    23    1
    25     1    24    1
    26     6    25    1
    27     6    26    1
    28     9    27    1
    29    13    28    1
    30    13    29    1
    31    15    30    1
    32    16    31    1
    33    17    32    1
    34    22    33    1
