@<TRIPOS>MOLECULE
*****
 50 50 0 0 0
SMALL
GASTEIGER

@<TRIPOS>ATOM
      1 C           1.1643    0.6121    2.0581 C.3     1  UNL1       -0.0397
      2 C           1.0774    0.5523    0.5791 C.2     1  UNL1       -0.0504
      3 C          -0.0884    0.1568   -0.1734 C.2     1  UNL1       -0.0586
      4 C          -1.2862   -0.2281    0.2016 C.2     1  UNL1       -0.0579
      5 C          -2.5706   -0.6572   -0.2881 C.2     1  UNL1       -0.0427
      6 C          -3.0995   -0.8517   -1.4788 C.2     1  UNL1       -0.0689
      7 C          -2.1413   -0.5584   -2.5941 C.3     1  UNL1       -0.0432
      8 C          -4.4591   -1.3040   -1.8159 C.3     1  UNL1       -0.0314
      9 C          -5.5288   -0.9074   -0.8601 C.3     1  UNL1       -0.0486
     10 C          -4.8962   -0.2735    0.3450 C.3     1  UNL1       -0.0436
     11 C          -3.6257   -0.9884    0.7419 C.3     1  UNL1       -0.0099
     12 C          -3.2470   -0.3973    2.1060 C.3     1  UNL1       -0.0558
     13 C          -3.8041   -2.4674    0.8492 C.3     1  UNL1       -0.0558
     14 C           2.1277    0.8818   -0.1348 C.2     1  UNL1       -0.0588
     15 C           3.3651    1.3014    0.4987 C.2     1  UNL1       -0.0613
     16 C           4.4299    1.6388   -0.2086 C.2     1  UNL1       -0.0586
     17 C           5.6865    2.0649    0.3855 C.2     1  UNL1       -0.0437
     18 C           5.8239    2.1368    1.8489 C.3     1  UNL1       -0.0395
     19 C           6.7439    2.4016   -0.3251 C.2     1  UNL1        0.0252
     20 C           6.7115    2.3646   -1.7579 C.2     1  UNL1        0.3298
     21 O           6.3697    2.2242   -3.0993 O.3     1  UNL1       -0.4775
     22 O           7.6347    2.6629   -2.5498 O.2     1  UNL1       -0.2458
     23 H           1.7097    1.5381    2.4017 H       1  UNL1        0.0278
     24 H           0.1177    0.7437    2.4602 H       1  UNL1        0.0278
     25 H           1.5364   -0.3049    2.5246 H       1  UNL1        0.0278
     26 H          -0.0881    0.1368   -1.2520 H       1  UNL1        0.0620
     27 H          -1.2271   -0.1922    1.3034 H       1  UNL1        0.0621
     28 H          -2.7018   -0.7448   -3.5620 H       1  UNL1        0.0275
     29 H          -1.8862    0.5133   -2.6520 H       1  UNL1        0.0275
     30 H          -1.2986   -1.2437   -2.6427 H       1  UNL1        0.0275
     31 H          -4.6817   -0.9261   -2.8603 H       1  UNL1        0.0310
     32 H          -4.4744   -2.4314   -1.9127 H       1  UNL1        0.0310
     33 H          -6.1954   -1.7472   -0.5650 H       1  UNL1        0.0269
     34 H          -6.1625   -0.1230   -1.3533 H       1  UNL1        0.0269
     35 H          -4.6506    0.7789    0.0936 H       1  UNL1        0.0274
     36 H          -5.6278   -0.3341    1.1864 H       1  UNL1        0.0274
     37 H          -2.9490    0.6667    1.9604 H       1  UNL1        0.0238
     38 H          -2.5224   -1.0053    2.6509 H       1  UNL1        0.0238
     39 H          -4.2169   -0.3607    2.6828 H       1  UNL1        0.0238
     40 H          -3.2789   -3.0563    0.0625 H       1  UNL1        0.0238
     41 H          -4.9046   -2.6977    0.7904 H       1  UNL1        0.0238
     42 H          -3.4532   -2.7999    1.8552 H       1  UNL1        0.0238
     43 H           2.1186    0.8568   -1.2259 H       1  UNL1        0.0620
     44 H           3.5383    1.3752    1.5621 H       1  UNL1        0.0618
     45 H           4.3484    1.5911   -1.3017 H       1  UNL1        0.0620
     46 H           6.7236    2.6751    2.1800 H       1  UNL1        0.0278
     47 H           5.8191    1.1372    2.3386 H       1  UNL1        0.0278
     48 H           4.9366    2.6755    2.2801 H       1  UNL1        0.0278
     49 H           7.6948    2.7240    0.0655 H       1  UNL1        0.0691
     50 H           5.3880    2.1087   -3.3990 H       1  UNL1        0.2954
@<TRIPOS>BOND
     1     1     2    1
     2     2     3    1
     3     3     4    2
     4     4     5    1
     5     5     6    2
     6     6     7    1
     7     6     8    1
     8     8     9    1
     9     9    10    1
    10    10    11    1
    11    11    12    1
    12    11    13    1
    13     2    14    2
    14    14    15    1
    15    15    16    2
    16    16    17    1
    17    17    18    1
    18    17    19    2
    19    19    20    1
    20    20    21    1
    21    20    22    2
    22    11     5    1
    23     1    23    1
    24     1    24    1
    25     1    25    1
    26     3    26    1
    27     4    27    1
    28     7    28    1
    29     7    29    1
    30     7    30    1
    31     8    31    1
    32     8    32    1
    33     9    33    1
    34     9    34    1
    35    10    35    1
    36    10    36    1
    37    12    37    1
    38    12    38    1
    39    12    39    1
    40    13    40    1
    41    13    41    1
    42    13    42    1
    43    14    43    1
    44    15    44    1
    45    16    45    1
    46    18    46    1
    47    18    47    1
    48    18    48    1
    49    19    49    1
    50    21    50    1
