@<TRIPOS>MOLECULE
*****
 29 29 0 0 0
SMALL
GASTEIGER

@<TRIPOS>ATOM
      1 O          -1.7921   -2.5216    0.1444 O.3     1  UNL1       -0.3649
      2 C          -1.6768   -1.4388    1.0176 C.3     1  UNL1        0.1854
      3 O          -0.4077   -0.9477    1.1151 O.3     1  UNL1       -0.3407
      4 C           0.0039   -0.2621   -0.0018 C.3     1  UNL1        0.1138
      5 C           1.4286    0.1951    0.1072 C.3     1  UNL1        0.0879
      6 O           2.3538   -0.8043    0.2692 O.3     1  UNL1       -0.2841
      7 P           3.8843   -0.0878    0.3711 P.3     1  UNL1        0.4724
      8 O           3.8291    1.4771   -0.3166 O.3     1  UNL1       -0.3026
      9 O           4.9843   -1.0546   -0.4400 O.3     1  UNL1       -0.3026
     10 O           4.3163    0.0922    1.8135 O.2     1  UNL1       -0.2275
     11 C          -0.8672    0.9800   -0.0895 C.3     1  UNL1        0.1119
     12 O          -0.3624    1.9096   -0.9779 O.3     1  UNL1       -0.3865
     13 C          -2.2205    0.4189   -0.5469 C.3     1  UNL1        0.1141
     14 O          -3.1119    1.4026   -0.8629 O.3     1  UNL1       -0.3864
     15 C          -2.7101   -0.4335    0.6031 C.3     1  UNL1        0.1339
     16 O          -3.8365   -1.1173    0.1420 O.3     1  UNL1       -0.3841
     17 H          -0.9398   -2.7232   -0.3138 H       1  UNL1        0.2126
     18 H          -1.9814   -1.8226    2.0235 H       1  UNL1        0.0935
     19 H          -0.1499   -0.8167   -0.9491 H       1  UNL1        0.0647
     20 H           1.6911    0.7065   -0.8605 H       1  UNL1        0.0592
     21 H           1.5694    0.9710    0.8868 H       1  UNL1        0.0592
     22 H           4.0396    1.3471   -1.2909 H       1  UNL1        0.2220
     23 H           5.7729   -1.2095    0.1387 H       1  UNL1        0.2220
     24 H          -0.9878    1.4466    0.9115 H       1  UNL1        0.0647
     25 H          -0.0184    2.7349   -0.5377 H       1  UNL1        0.2100
     26 H          -2.0065   -0.2136   -1.4074 H       1  UNL1        0.0648
     27 H          -3.3168    1.9764   -0.0894 H       1  UNL1        0.2100
     28 H          -3.0122    0.2157    1.4405 H       1  UNL1        0.0671
     29 H          -4.4755   -0.4206   -0.1696 H       1  UNL1        0.2101
@<TRIPOS>BOND
     1     1     2    1
     2     2     3    1
     3     3     4    1
     4     4     5    1
     5     5     6    1
     6     6     7    1
     7     7     8    1
     8     7     9    1
     9     7    10    2
    10     4    11    1
    11    11    12    1
    12    11    13    1
    13    13    14    1
    14    13    15    1
    15    15    16    1
    16    15     2    1
    17     1    17    1
    18     2    18    1
    19     4    19    1
    20     5    20    1
    21     5    21    1
    22     8    22    1
    23     9    23    1
    24    11    24    1
    25    12    25    1
    26    13    26    1
    27    14    27    1
    28    15    28    1
    29    16    29    1
