@<TRIPOS>MOLECULE
*****
 85 89 0 0 0
SMALL
GASTEIGER

@<TRIPOS>ATOM
      1 C           7.8687   -2.3368   -0.6125 C.3     1  UNL1       -0.0523
      2 C           7.9291   -1.0796    0.2773 C.3     1  UNL1       -0.0036
      3 N           8.4267   -0.0390   -0.5454 N.3     1  UNL1       -0.2987
      4 C           9.8183   -0.2296   -0.9104 C.3     1  UNL1       -0.0036
      5 C          10.7246   -0.0885    0.2993 C.3     1  UNL1       -0.0523
      6 C           8.0851    1.3001   -0.2176 C.3     1  UNL1        0.0240
      7 C           6.6192    1.4413   -0.1641 C.ar    1  UNL1       -0.0331
      8 C           5.9528    1.3242    1.0216 C.ar    1  UNL1       -0.0539
      9 C           4.5518    1.4264    1.0616 C.ar    1  UNL1       -0.0196
     10 C           3.7782    1.6427   -0.0461 C.ar    1  UNL1        0.1205
     11 O           2.4260    1.7406   -0.0764 O.3     1  UNL1       -0.4920
     12 C           1.5096    1.6099    0.9285 C.3     1  UNL1        0.0896
     13 C           1.4409    0.2607    1.5338 C.3     1  UNL1       -0.0186
     14 C           1.2378   -0.9186    0.6732 C.3     1  UNL1       -0.0499
     15 C           0.0125   -1.0339   -0.1237 C.3     1  UNL1       -0.0518
     16 C          -0.1937    0.0077   -1.1733 C.3     1  UNL1       -0.0402
     17 C          -1.4795   -0.4270   -1.9082 C.3     1  UNL1       -0.0008
     18 N          -2.5478   -0.4415   -0.8940 N.3     1  UNL1       -0.2981
     19 C          -3.6696   -1.1521   -1.5273 C.3     1  UNL1        0.0004
     20 C          -4.3950   -1.8823   -0.3765 C.3     1  UNL1       -0.0235
     21 C          -5.6663   -1.1528   -0.1962 C.3     1  UNL1        0.0558
     22 C          -6.4761   -1.0687   -1.4492 C.2     1  UNL1       -0.0715
     23 C          -7.3081   -2.0693   -1.6992 C.2     1  UNL1       -0.0588
     24 C          -7.3969   -3.2106   -0.7405 C.3     1  UNL1        0.0768
     25 O          -8.6159   -3.8479   -0.9604 O.3     1  UNL1       -0.3876
     26 C          -7.3303   -2.8004    0.6944 C.3     1  UNL1        0.0151
     27 C          -6.5572   -1.5383    0.9265 C.3     1  UNL1        0.1161
     28 O          -7.4278   -0.3661    0.9110 O.3     1  UNL1       -0.4836
     29 C          -6.5055    0.7100    0.8336 C.ar    1  UNL1        0.1667
     30 C          -6.6183    2.0012    1.2947 C.ar    1  UNL1        0.1618
     31 O          -7.7626    2.4303    1.9442 O.3     1  UNL1       -0.4914
     32 C          -7.8071    3.7733    2.3840 C.3     1  UNL1        0.0790
     33 C          -5.5404    2.8412    1.0782 C.ar    1  UNL1       -0.0160
     34 C          -4.4037    2.3894    0.4258 C.ar    1  UNL1       -0.0534
     35 C          -4.2885    1.0718   -0.0448 C.ar    1  UNL1       -0.0255
     36 C          -5.3683    0.2784    0.1839 C.ar    1  UNL1        0.0158
     37 C          -2.9523    0.9431   -0.6474 C.3     1  UNL1        0.0244
     38 C           4.5048    1.7612   -1.2618 C.ar    1  UNL1       -0.0196
     39 C           5.8715    1.6604   -1.2896 C.ar    1  UNL1       -0.0539
     40 H           8.8415   -2.8616   -0.6025 H       1  UNL1        0.0242
     41 H           7.6834   -2.0349   -1.6789 H       1  UNL1        0.0242
     42 H           7.0064   -2.9690   -0.3326 H       1  UNL1        0.0242
     43 H           6.9161   -0.8359    0.6456 H       1  UNL1        0.0424
     44 H           8.5223   -1.3200    1.1804 H       1  UNL1        0.0424
     45 H           9.8722   -1.2749   -1.3312 H       1  UNL1        0.0424
     46 H          10.0834    0.4925   -1.6882 H       1  UNL1        0.0424
     47 H          11.4404    0.7165    0.0940 H       1  UNL1        0.0242
     48 H          10.0788    0.1923    1.1565 H       1  UNL1        0.0242
     49 H          11.2287   -1.0725    0.4799 H       1  UNL1        0.0242
     50 H           8.4917    1.6266    0.7716 H       1  UNL1        0.0476
     51 H           8.4935    2.0370   -0.9480 H       1  UNL1        0.0476
     52 H           6.4665    1.1474    1.9779 H       1  UNL1        0.0622
     53 H           4.0704    1.3562    2.0433 H       1  UNL1        0.0654
     54 H           1.8997    2.2643    1.8505 H       1  UNL1        0.0696
     55 H           0.5466    2.1194    0.7822 H       1  UNL1        0.0696
     56 H           0.5712    0.2630    2.3049 H       1  UNL1        0.0298
     57 H           2.3109    0.0737    2.2123 H       1  UNL1        0.0298
     58 H           1.3163   -1.8867    1.3022 H       1  UNL1        0.0266
     59 H           2.1454   -1.0604   -0.0185 H       1  UNL1        0.0266
     60 H          -0.8957   -1.0107    0.5779 H       1  UNL1        0.0266
     61 H          -0.0980   -2.0634   -0.5965 H       1  UNL1        0.0266
     62 H           0.6577    0.0143   -1.9027 H       1  UNL1        0.0278
     63 H          -0.3990    0.9935   -0.7664 H       1  UNL1        0.0278
     64 H          -1.6612    0.3460   -2.6789 H       1  UNL1        0.0427
     65 H          -1.3523   -1.4394   -2.3248 H       1  UNL1        0.0427
     66 H          -3.2814   -1.8399   -2.2803 H       1  UNL1        0.0427
     67 H          -4.2929   -0.4022   -2.0126 H       1  UNL1        0.0427
     68 H          -3.8150   -1.8649    0.5471 H       1  UNL1        0.0290
     69 H          -4.5116   -2.9120   -0.7389 H       1  UNL1        0.0290
     70 H          -6.4202   -0.2524   -2.1525 H       1  UNL1        0.0580
     71 H          -7.9201   -2.0482   -2.6073 H       1  UNL1        0.0595
     72 H          -6.6212   -3.9908   -0.9735 H       1  UNL1        0.0639
     73 H          -9.2368   -3.6043   -0.2417 H       1  UNL1        0.2102
     74 H          -8.3103   -2.7264    1.1903 H       1  UNL1        0.0329
     75 H          -6.7824   -3.6084    1.2512 H       1  UNL1        0.0329
     76 H          -5.9948   -1.5399    1.8673 H       1  UNL1        0.0746
     77 H          -8.7393    3.9962    2.9393 H       1  UNL1        0.0660
     78 H          -7.8333    4.4384    1.4710 H       1  UNL1        0.0660
     79 H          -6.9058    4.0754    2.9573 H       1  UNL1        0.0660
     80 H          -5.6042    3.8653    1.4292 H       1  UNL1        0.0655
     81 H          -3.5992    3.1053    0.2941 H       1  UNL1        0.0622
     82 H          -2.9578    1.4591   -1.6270 H       1  UNL1        0.0476
     83 H          -2.1726    1.4136   -0.0275 H       1  UNL1        0.0476
     84 H           3.9216    1.9337   -2.1510 H       1  UNL1        0.0654
     85 H           6.3938    1.7582   -2.2588 H       1  UNL1        0.0622
@<TRIPOS>BOND
     1     1     2    1
     2     2     3    1
     3     3     4    1
     4     4     5    1
     5     3     6    1
     6     6     7    1
     7     7     8   ar
     8     8     9   ar
     9     9    10   ar
    10    10    11    1
    11    11    12    1
    12    12    13    1
    13    13    14    1
    14    14    15    1
    15    15    16    1
    16    16    17    1
    17    17    18    1
    18    18    19    1
    19    19    20    1
    20    21    20    1
    21    21    22    1
    22    22    23    2
    23    23    24    1
    24    24    25    1
    25    24    26    1
    26    26    27    1
    27    27    28    1
    28    28    29    1
    29    29    30   ar
    30    30    31    1
    31    31    32    1
    32    30    33   ar
    33    33    34   ar
    34    34    35   ar
    35    35    36   ar
    36    35    37    1
    37    10    38   ar
    38    38    39   ar
    39    39     7   ar
    40    37    18    1
    41    27    21    1
    42    36    29   ar
    43    36    21    1
    44     1    40    1
    45     1    41    1
    46     1    42    1
    47     2    43    1
    48     2    44    1
    49     4    45    1
    50     4    46    1
    51     5    47    1
    52     5    48    1
    53     5    49    1
    54     6    50    1
    55     6    51    1
    56     8    52    1
    57     9    53    1
    58    12    54    1
    59    12    55    1
    60    13    56    1
    61    13    57    1
    62    14    58    1
    63    14    59    1
    64    15    60    1
    65    15    61    1
    66    16    62    1
    67    16    63    1
    68    17    64    1
    69    17    65    1
    70    19    66    1
    71    19    67    1
    72    20    68    1
    73    20    69    1
    74    22    70    1
    75    23    71    1
    76    24    72    1
    77    25    73    1
    78    26    74    1
    79    26    75    1
    80    27    76    1
    81    32    77    1
    82    32    78    1
    83    32    79    1
    84    33    80    1
    85    34    81    1
    86    37    82    1
    87    37    83    1
    88    38    84    1
    89    39    85    1
