
     RDKit          3D

 85 89  0  0  0  0  0  0  0  0999 V2000
    7.8687   -2.3368   -0.6125 C   0  0  0  0  0  0  0  0  0  0  0  0
    7.9291   -1.0796    0.2773 C   0  0  0  0  0  0  0  0  0  0  0  0
    8.4267   -0.0390   -0.5454 N   0  0  0  0  0  0  0  0  0  0  0  0
    9.8183   -0.2296   -0.9104 C   0  0  0  0  0  0  0  0  0  0  0  0
   10.7246   -0.0885    0.2993 C   0  0  0  0  0  0  0  0  0  0  0  0
    8.0851    1.3001   -0.2176 C   0  0  0  0  0  0  0  0  0  0  0  0
    6.6192    1.4413   -0.1641 C   0  0  0  0  0  0  0  0  0  0  0  0
    5.9528    1.3242    1.0216 C   0  0  0  0  0  0  0  0  0  0  0  0
    4.5518    1.4264    1.0616 C   0  0  0  0  0  0  0  0  0  0  0  0
    3.7782    1.6427   -0.0461 C   0  0  0  0  0  0  0  0  0  0  0  0
    2.4260    1.7406   -0.0764 O   0  0  0  0  0  0  0  0  0  0  0  0
    1.5096    1.6099    0.9285 C   0  0  0  0  0  0  0  0  0  0  0  0
    1.4409    0.2607    1.5338 C   0  0  0  0  0  0  0  0  0  0  0  0
    1.2378   -0.9186    0.6732 C   0  0  0  0  0  0  0  0  0  0  0  0
    0.0125   -1.0339   -0.1237 C   0  0  0  0  0  0  0  0  0  0  0  0
   -0.1937    0.0077   -1.1733 C   0  0  0  0  0  0  0  0  0  0  0  0
   -1.4795   -0.4270   -1.9082 C   0  0  0  0  0  0  0  0  0  0  0  0
   -2.5478   -0.4415   -0.8940 N   0  0  0  0  0  0  0  0  0  0  0  0
   -3.6696   -1.1521   -1.5273 C   0  0  0  0  0  0  0  0  0  0  0  0
   -4.3950   -1.8823   -0.3765 C   0  0  0  0  0  0  0  0  0  0  0  0
   -5.6663   -1.1528   -0.1962 C   0  0  1  0  0  0  0  0  0  0  0  0
   -6.4761   -1.0687   -1.4492 C   0  0  0  0  0  0  0  0  0  0  0  0
   -7.3081   -2.0693   -1.6992 C   0  0  0  0  0  0  0  0  0  0  0  0
   -7.3969   -3.2106   -0.7405 C   0  0  2  0  0  0  0  0  0  0  0  0
   -8.6159   -3.8479   -0.9604 O   0  0  0  0  0  0  0  0  0  0  0  0
   -7.3303   -2.8004    0.6944 C   0  0  0  0  0  0  0  0  0  0  0  0
   -6.5572   -1.5383    0.9265 C   0  0  2  0  0  0  0  0  0  0  0  0
   -7.4278   -0.3661    0.9110 O   0  0  0  0  0  0  0  0  0  0  0  0
   -6.5055    0.7100    0.8336 C   0  0  0  0  0  0  0  0  0  0  0  0
   -6.6183    2.0012    1.2947 C   0  0  0  0  0  0  0  0  0  0  0  0
   -7.7626    2.4303    1.9442 O   0  0  0  0  0  0  0  0  0  0  0  0
   -7.8071    3.7733    2.3840 C   0  0  0  0  0  0  0  0  0  0  0  0
   -5.5404    2.8412    1.0782 C   0  0  0  0  0  0  0  0  0  0  0  0
   -4.4037    2.3894    0.4258 C   0  0  0  0  0  0  0  0  0  0  0  0
   -4.2885    1.0718   -0.0448 C   0  0  0  0  0  0  0  0  0  0  0  0
   -5.3683    0.2784    0.1839 C   0  0  0  0  0  0  0  0  0  0  0  0
   -2.9523    0.9431   -0.6474 C   0  0  0  0  0  0  0  0  0  0  0  0
    4.5048    1.7612   -1.2618 C   0  0  0  0  0  0  0  0  0  0  0  0
    5.8715    1.6604   -1.2896 C   0  0  0  0  0  0  0  0  0  0  0  0
    8.8415   -2.8616   -0.6025 H   0  0  0  0  0  0  0  0  0  0  0  0
    7.6834   -2.0349   -1.6789 H   0  0  0  0  0  0  0  0  0  0  0  0
    7.0064   -2.9690   -0.3326 H   0  0  0  0  0  0  0  0  0  0  0  0
    6.9161   -0.8359    0.6456 H   0  0  0  0  0  0  0  0  0  0  0  0
    8.5223   -1.3200    1.1804 H   0  0  0  0  0  0  0  0  0  0  0  0
    9.8722   -1.2749   -1.3312 H   0  0  0  0  0  0  0  0  0  0  0  0
   10.0834    0.4925   -1.6882 H   0  0  0  0  0  0  0  0  0  0  0  0
   11.4404    0.7165    0.0940 H   0  0  0  0  0  0  0  0  0  0  0  0
   10.0788    0.1923    1.1565 H   0  0  0  0  0  0  0  0  0  0  0  0
   11.2287   -1.0725    0.4799 H   0  0  0  0  0  0  0  0  0  0  0  0
    8.4917    1.6266    0.7716 H   0  0  0  0  0  0  0  0  0  0  0  0
    8.4935    2.0370   -0.9480 H   0  0  0  0  0  0  0  0  0  0  0  0
    6.4665    1.1474    1.9779 H   0  0  0  0  0  0  0  0  0  0  0  0
    4.0704    1.3562    2.0433 H   0  0  0  0  0  0  0  0  0  0  0  0
    1.8997    2.2643    1.8505 H   0  0  0  0  0  0  0  0  0  0  0  0
    0.5466    2.1194    0.7822 H   0  0  0  0  0  0  0  0  0  0  0  0
    0.5712    0.2630    2.3049 H   0  0  0  0  0  0  0  0  0  0  0  0
    2.3109    0.0737    2.2123 H   0  0  0  0  0  0  0  0  0  0  0  0
    1.3163   -1.8867    1.3022 H   0  0  0  0  0  0  0  0  0  0  0  0
    2.1454   -1.0604   -0.0185 H   0  0  0  0  0  0  0  0  0  0  0  0
   -0.8957   -1.0107    0.5779 H   0  0  0  0  0  0  0  0  0  0  0  0
   -0.0980   -2.0634   -0.5965 H   0  0  0  0  0  0  0  0  0  0  0  0
    0.6577    0.0143   -1.9027 H   0  0  0  0  0  0  0  0  0  0  0  0
   -0.3990    0.9935   -0.7664 H   0  0  0  0  0  0  0  0  0  0  0  0
   -1.6612    0.3460   -2.6789 H   0  0  0  0  0  0  0  0  0  0  0  0
   -1.3523   -1.4394   -2.3248 H   0  0  0  0  0  0  0  0  0  0  0  0
   -3.2814   -1.8399   -2.2803 H   0  0  0  0  0  0  0  0  0  0  0  0
   -4.2929   -0.4022   -2.0126 H   0  0  0  0  0  0  0  0  0  0  0  0
   -3.8150   -1.8649    0.5471 H   0  0  0  0  0  0  0  0  0  0  0  0
   -4.5116   -2.9120   -0.7389 H   0  0  0  0  0  0  0  0  0  0  0  0
   -6.4202   -0.2524   -2.1525 H   0  0  0  0  0  0  0  0  0  0  0  0
   -7.9201   -2.0482   -2.6073 H   0  0  0  0  0  0  0  0  0  0  0  0
   -6.6212   -3.9908   -0.9735 H   0  0  0  0  0  0  0  0  0  0  0  0
   -9.2368   -3.6043   -0.2417 H   0  0  0  0  0  0  0  0  0  0  0  0
   -8.3103   -2.7264    1.1903 H   0  0  0  0  0  0  0  0  0  0  0  0
   -6.7824   -3.6084    1.2512 H   0  0  0  0  0  0  0  0  0  0  0  0
   -5.9948   -1.5399    1.8673 H   0  0  0  0  0  0  0  0  0  0  0  0
   -8.7393    3.9962    2.9393 H   0  0  0  0  0  0  0  0  0  0  0  0
   -7.8333    4.4384    1.4710 H   0  0  0  0  0  0  0  0  0  0  0  0
   -6.9058    4.0754    2.9573 H   0  0  0  0  0  0  0  0  0  0  0  0
   -5.6042    3.8653    1.4292 H   0  0  0  0  0  0  0  0  0  0  0  0
   -3.5992    3.1053    0.2941 H   0  0  0  0  0  0  0  0  0  0  0  0
   -2.9578    1.4591   -1.6270 H   0  0  0  0  0  0  0  0  0  0  0  0
   -2.1726    1.4136   -0.0275 H   0  0  0  0  0  0  0  0  0  0  0  0
    3.9216    1.9337   -2.1510 H   0  0  0  0  0  0  0  0  0  0  0  0
    6.3938    1.7582   -2.2588 H   0  0  0  0  0  0  0  0  0  0  0  0
  1  2  1  0
  2  3  1  0
  3  4  1  0
  4  5  1  0
  3  6  1  0
  6  7  1  0
  7  8  2  0
  8  9  1  0
  9 10  2  0
 10 11  1  0
 11 12  1  0
 12 13  1  0
 13 14  1  0
 14 15  1  0
 15 16  1  0
 16 17  1  0
 17 18  1  0
 18 19  1  0
 19 20  1  0
 21 20  1  6
 21 22  1  0
 22 23  2  0
 23 24  1  0
 24 25  1  0
 24 26  1  0
 26 27  1  0
 27 28  1  0
 28 29  1  0
 29 30  1  0
 30 31  1  0
 31 32  1  0
 30 33  2  0
 33 34  1  0
 34 35  2  0
 35 36  1  0
 35 37  1  0
 10 38  1  0
 38 39  2  0
 39  7  1  0
 37 18  1  0
 27 21  1  0
 36 29  2  0
 36 21  1  0
  1 40  1  0
  1 41  1  0
  1 42  1  0
  2 43  1  0
  2 44  1  0
  4 45  1  0
  4 46  1  0
  5 47  1  0
  5 48  1  0
  5 49  1  0
  6 50  1  0
  6 51  1  0
  8 52  1  0
  9 53  1  0
 12 54  1  0
 12 55  1  0
 13 56  1  0
 13 57  1  0
 14 58  1  0
 14 59  1  0
 15 60  1  0
 15 61  1  0
 16 62  1  0
 16 63  1  0
 17 64  1  0
 17 65  1  0
 19 66  1  0
 19 67  1  0
 20 68  1  0
 20 69  1  0
 22 70  1  0
 23 71  1  0
 24 72  1  6
 25 73  1  0
 26 74  1  0
 26 75  1  0
 27 76  1  1
 32 77  1  0
 32 78  1  0
 32 79  1  0
 33 80  1  0
 34 81  1  0
 37 82  1  0
 37 83  1  0
 38 84  1  0
 39 85  1  0
M  END
$$$$
