@<TRIPOS>MOLECULE
*****
 45 47 0 0 0
SMALL
GASTEIGER

@<TRIPOS>ATOM
      1 C           6.7620    1.6578   -0.3170 C.3     1  UNL1       -0.0622
      2 C           6.8091    0.6177    0.7781 C.3     1  UNL1       -0.0215
      3 C           5.3636    0.1827    1.0327 C.3     1  UNL1        0.0896
      4 O           4.8713   -0.3408   -0.1752 O.3     1  UNL1       -0.4866
      5 C           3.5905   -0.8471   -0.2894 C.ar    1  UNL1        0.1846
      6 C           2.7578   -0.8551    0.8014 C.ar    1  UNL1       -0.0129
      7 C           1.4740   -1.3684    0.6830 C.ar    1  UNL1       -0.0373
      8 C           0.9771   -1.8790   -0.4869 C.ar    1  UNL1        0.0362
      9 C          -0.3772   -2.4456   -0.6854 C.3     1  UNL1        0.0490
     10 N          -1.3567   -1.4563   -1.1281 N.pl3   1  UNL1       -0.3435
     11 C          -2.2646   -0.7750   -0.3809 C.2     1  UNL1        0.0026
     12 C          -3.0879   -0.1572    0.2967 C.2     1  UNL1        0.0584
     13 C          -2.7250    0.0311    1.7499 C.2     1  UNL1        0.2523
     14 O          -1.6524   -0.5583    2.1441 O.2     1  UNL1       -0.2697
     15 N          -3.5052    0.7923    2.6033 N.am    1  UNL1       -0.2483
     16 C          -4.6764    1.4275    2.1481 C.2     1  UNL1        0.2511
     17 O          -5.3607    2.1038    2.9345 O.2     1  UNL1       -0.2698
     18 C          -5.0861    1.2929    0.7637 C.ar    1  UNL1        0.0451
     19 C          -6.2443    1.9786    0.3626 C.ar    1  UNL1       -0.0481
     20 C          -6.6323    1.8934   -0.9549 C.ar    1  UNL1       -0.0479
     21 C          -5.8804    1.1467   -1.8334 C.ar    1  UNL1        0.0140
     22 I          -6.4509    1.0080   -3.8503 I       1  UNL1       -0.0438
     23 C          -4.7297    0.4658   -1.4311 C.ar    1  UNL1       -0.0400
     24 C          -4.3346    0.5440   -0.1095 C.ar    1  UNL1        0.0014
     25 N           1.8539   -1.8438   -1.5405 N.ar    1  UNL1       -0.3218
     26 C           3.0942   -1.3588   -1.4619 C.ar    1  UNL1        0.2908
     27 O           3.8437   -1.3597   -2.4708 O.2     1  UNL1       -0.2639
     28 H           7.7338    1.7526   -0.8675 H       1  UNL1        0.0231
     29 H           6.4535    2.6275    0.1557 H       1  UNL1        0.0231
     30 H           6.0044    1.3131   -1.0756 H       1  UNL1        0.0231
     31 H           7.4124   -0.2581    0.4660 H       1  UNL1        0.0295
     32 H           7.2416    1.0520    1.7053 H       1  UNL1        0.0295
     33 H           4.7509    1.0845    1.3156 H       1  UNL1        0.0696
     34 H           5.2893   -0.4979    1.8827 H       1  UNL1        0.0696
     35 H           3.1263   -0.4568    1.7399 H       1  UNL1        0.0656
     36 H           0.8315   -1.3722    1.5636 H       1  UNL1        0.0636
     37 H          -0.7466   -2.9298    0.2695 H       1  UNL1        0.0525
     38 H          -0.3506   -3.2848   -1.4095 H       1  UNL1        0.0525
     39 H          -1.2704   -1.2757   -2.1950 H       1  UNL1        0.1459
     40 H          -3.2918   -1.1845   -1.2829 H       1  UNL1        0.0786
     41 H          -3.1984    0.8852    3.6233 H       1  UNL1        0.1581
     42 H          -6.7966    2.5518    1.0860 H       1  UNL1        0.0626
     43 H          -7.5197    2.4125   -1.2994 H       1  UNL1        0.0628
     44 H          -4.1715   -0.0774   -2.1587 H       1  UNL1        0.0634
     45 H           1.4690   -2.2393   -2.4505 H       1  UNL1        0.1688
@<TRIPOS>BOND
     1     1     2    1
     2     2     3    1
     3     3     4    1
     4     4     5    1
     5     5     6   ar
     6     6     7   ar
     7     7     8   ar
     8     8     9    1
     9     9    10    1
    10    10    11    1
    11    11    12    2
    12    12    13    1
    13    13    14    2
    14    13    15   am
    15    15    16   am
    16    16    17    2
    17    16    18    1
    18    18    19   ar
    19    19    20   ar
    20    20    21   ar
    21    21    22    1
    22    21    23   ar
    23    23    24   ar
    24     8    25   ar
    25    25    26   ar
    26    26    27    2
    27    26     5   ar
    28    24    12    1
    29    24    18   ar
    30     1    28    1
    31     1    29    1
    32     1    30    1
    33     2    31    1
    34     2    32    1
    35     3    33    1
    36     3    34    1
    37     6    35    1
    38     7    36    1
    39     9    37    1
    40     9    38    1
    41    10    39    1
    42    11    40    1
    43    15    41    1
    44    19    42    1
    45    20    43    1
    46    23    44    1
    47    25    45    1
