
     RDKit          3D

 45 47  0  0  0  0  0  0  0  0999 V2000
    6.7620    1.6578   -0.3170 C   0  0  0  0  0  0  0  0  0  0  0  0
    6.8091    0.6177    0.7781 C   0  0  0  0  0  0  0  0  0  0  0  0
    5.3636    0.1827    1.0327 C   0  0  0  0  0  0  0  0  0  0  0  0
    4.8713   -0.3408   -0.1752 O   0  0  0  0  0  0  0  0  0  0  0  0
    3.5905   -0.8471   -0.2894 C   0  0  0  0  0  0  0  0  0  0  0  0
    2.7578   -0.8551    0.8014 C   0  0  0  0  0  0  0  0  0  0  0  0
    1.4740   -1.3684    0.6830 C   0  0  0  0  0  0  0  0  0  0  0  0
    0.9771   -1.8790   -0.4869 C   0  0  0  0  0  0  0  0  0  0  0  0
   -0.3772   -2.4456   -0.6854 C   0  0  0  0  0  0  0  0  0  0  0  0
   -1.3567   -1.4563   -1.1281 N   0  0  0  0  0  0  0  0  0  0  0  0
   -2.2646   -0.7750   -0.3809 C   0  0  0  0  0  0  0  0  0  0  0  0
   -3.0879   -0.1572    0.2967 C   0  0  0  0  0  0  0  0  0  0  0  0
   -2.7250    0.0311    1.7499 C   0  0  0  0  0  0  0  0  0  0  0  0
   -1.6524   -0.5583    2.1441 O   0  0  0  0  0  0  0  0  0  0  0  0
   -3.5052    0.7923    2.6033 N   0  0  0  0  0  0  0  0  0  0  0  0
   -4.6764    1.4275    2.1481 C   0  0  0  0  0  0  0  0  0  0  0  0
   -5.3607    2.1038    2.9345 O   0  0  0  0  0  0  0  0  0  0  0  0
   -5.0861    1.2929    0.7637 C   0  0  0  0  0  0  0  0  0  0  0  0
   -6.2443    1.9786    0.3626 C   0  0  0  0  0  0  0  0  0  0  0  0
   -6.6323    1.8934   -0.9549 C   0  0  0  0  0  0  0  0  0  0  0  0
   -5.8804    1.1467   -1.8334 C   0  0  0  0  0  0  0  0  0  0  0  0
   -6.4509    1.0080   -3.8503 I   0  0  0  0  0  0  0  0  0  0  0  0
   -4.7297    0.4658   -1.4311 C   0  0  0  0  0  0  0  0  0  0  0  0
   -4.3346    0.5440   -0.1095 C   0  0  0  0  0  0  0  0  0  0  0  0
    1.8539   -1.8438   -1.5405 N   0  0  0  0  0  0  0  0  0  0  0  0
    3.0942   -1.3588   -1.4619 C   0  0  0  0  0  0  0  0  0  0  0  0
    3.8437   -1.3597   -2.4708 O   0  0  0  0  0  0  0  0  0  0  0  0
    7.7338    1.7526   -0.8675 H   0  0  0  0  0  0  0  0  0  0  0  0
    6.4535    2.6275    0.1557 H   0  0  0  0  0  0  0  0  0  0  0  0
    6.0044    1.3131   -1.0756 H   0  0  0  0  0  0  0  0  0  0  0  0
    7.4124   -0.2581    0.4660 H   0  0  0  0  0  0  0  0  0  0  0  0
    7.2416    1.0520    1.7053 H   0  0  0  0  0  0  0  0  0  0  0  0
    4.7509    1.0845    1.3156 H   0  0  0  0  0  0  0  0  0  0  0  0
    5.2893   -0.4979    1.8827 H   0  0  0  0  0  0  0  0  0  0  0  0
    3.1263   -0.4568    1.7399 H   0  0  0  0  0  0  0  0  0  0  0  0
    0.8315   -1.3722    1.5636 H   0  0  0  0  0  0  0  0  0  0  0  0
   -0.7466   -2.9298    0.2695 H   0  0  0  0  0  0  0  0  0  0  0  0
   -0.3506   -3.2848   -1.4095 H   0  0  0  0  0  0  0  0  0  0  0  0
   -1.2704   -1.2757   -2.1950 H   0  0  0  0  0  0  0  0  0  0  0  0
   -3.2918   -1.1845   -1.2829 H   0  0  0  0  0  0  0  0  0  0  0  0
   -3.1984    0.8852    3.6233 H   0  0  0  0  0  0  0  0  0  0  0  0
   -6.7966    2.5518    1.0860 H   0  0  0  0  0  0  0  0  0  0  0  0
   -7.5197    2.4125   -1.2994 H   0  0  0  0  0  0  0  0  0  0  0  0
   -4.1715   -0.0774   -2.1587 H   0  0  0  0  0  0  0  0  0  0  0  0
    1.4690   -2.2393   -2.4505 H   0  0  0  0  0  0  0  0  0  0  0  0
  1  2  1  0
  2  3  1  0
  3  4  1  0
  4  5  1  0
  5  6  2  0
  6  7  1  0
  7  8  2  0
  8  9  1  0
  9 10  1  0
 10 11  1  0
 11 12  2  3
 12 13  1  0
 13 14  2  0
 13 15  1  0
 15 16  1  0
 16 17  2  0
 16 18  1  0
 18 19  2  0
 19 20  1  0
 20 21  2  0
 21 22  1  0
 21 23  1  0
 23 24  2  0
  8 25  1  0
 25 26  1  0
 26 27  2  0
 26  5  1  0
 24 12  1  0
 24 18  1  0
  1 28  1  0
  1 29  1  0
  1 30  1  0
  2 31  1  0
  2 32  1  0
  3 33  1  0
  3 34  1  0
  6 35  1  0
  7 36  1  0
  9 37  1  0
  9 38  1  0
 10 39  1  0
 11 40  1  0
 15 41  1  0
 19 42  1  0
 20 43  1  0
 23 44  1  0
 25 45  1  0
M  END
$$$$
