@<TRIPOS>MOLECULE
*****
 23 24 0 0 0
SMALL
GASTEIGER

@<TRIPOS>ATOM
      1 C           4.2492   -0.0164   -0.5322 C.3     1  UNL1       -0.0306
      2 C           3.7021   -0.2253    0.8548 C.3     1  UNL1        0.0900
      3 O           2.3022   -0.3467    0.7725 O.3     1  UNL1       -0.4603
      4 C           1.4605    0.6098    0.2810 C.2     1  UNL1        0.3603
      5 O           1.9391    1.6929   -0.1382 O.2     1  UNL1       -0.2431
      6 C          -0.0002    0.4021    0.2299 C.ar    1  UNL1        0.1812
      7 N          -0.9257    1.2537   -0.2247 N.ar    1  UNL1       -0.2187
      8 C          -2.1437    0.6771   -0.0939 C.ar    1  UNL1        0.1562
      9 C          -3.4224    1.0977   -0.3973 C.ar    1  UNL1       -0.0159
     10 C          -4.5185    0.2730   -0.1483 C.ar    1  UNL1       -0.0384
     11 C          -4.3016   -0.9789    0.4101 C.ar    1  UNL1        0.0485
     12 N          -3.0319   -1.3332    0.6842 N.ar    1  UNL1       -0.1725
     13 N          -1.9939   -0.5473    0.4463 N.ar    1  UNL1       -0.2064
     14 C          -0.6595   -0.7325    0.6539 C.ar    1  UNL1        0.1375
     15 I           0.2890   -2.4130    1.4666 I       1  UNL1       -0.0192
     16 H           3.7619   -0.7060   -1.2546 H       1  UNL1        0.0262
     17 H           4.0609    1.0209   -0.8530 H       1  UNL1        0.0262
     18 H           5.3498   -0.1686   -0.5661 H       1  UNL1        0.0262
     19 H           4.1051   -1.2168    1.2030 H       1  UNL1        0.0695
     20 H           4.0328    0.5706    1.5301 H       1  UNL1        0.0695
     21 H          -3.6139    2.0778   -0.8365 H       1  UNL1        0.0655
     22 H          -5.4895    0.6433   -0.4005 H       1  UNL1        0.0634
     23 H          -5.1518   -1.6342    0.6100 H       1  UNL1        0.0847
@<TRIPOS>BOND
     1     1     2    1
     2     2     3    1
     3     3     4    1
     4     4     5    2
     5     4     6    1
     6     6     7   ar
     7     7     8   ar
     8     8     9   ar
     9     9    10   ar
    10    10    11   ar
    11    11    12   ar
    12    12    13   ar
    13    13    14   ar
    14    14    15    1
    15    14     6   ar
    16    13     8   ar
    17     1    16    1
    18     1    17    1
    19     1    18    1
    20     2    19    1
    21     2    20    1
    22     9    21    1
    23    10    22    1
    24    11    23    1
