
     RDKit          3D

215216  0  0  0  0  0  0  0  0999 V2000
    1.7021    2.5413    5.2286 C   0  0  0  0  0  0  0  0  0  0  0  0
    1.1157    2.0914    6.5308 C   0  0  0  0  0  0  0  0  0  0  0  0
    2.2569    1.6000    7.3785 C   0  0  0  0  0  0  0  0  0  0  0  0
    1.7982    1.1055    8.7274 C   0  0  0  0  0  0  0  0  0  0  0  0
    1.0902    2.1999    9.4743 C   0  0  0  0  0  0  0  0  0  0  0  0
    2.0148    3.3792    9.6343 C   0  0  0  0  0  0  0  0  0  0  0  0
    3.2739    3.0370   10.3866 C   0  0  0  0  0  0  0  0  0  0  0  0
    1.3546    2.0218    4.0780 C   0  0  0  0  0  0  0  0  0  0  0  0
    0.4517    1.0016    3.5702 C   0  0  0  0  0  0  0  0  0  0  0  0
    1.1644   -0.1456    2.8284 C   0  0  0  0  0  0  0  0  0  0  0  0
    0.1574   -1.1219    2.3165 C   0  0  0  0  0  0  0  0  0  0  0  0
    0.6646   -2.3238    1.6019 C   0  0  0  0  0  0  0  0  0  0  0  0
    1.5110   -1.8463    0.4006 C   0  0  0  0  0  0  0  0  0  0  0  0
    1.9602   -3.0154   -0.4042 C   0  0  0  0  0  0  0  0  0  0  0  0
    2.8301   -2.6844   -1.5344 C   0  0  0  0  0  0  0  0  0  0  0  0
    4.1745   -2.1551   -1.3376 C   0  0  0  0  0  0  0  0  0  0  0  0
    4.4780   -0.9191   -0.6258 C   0  0  0  0  0  0  0  0  0  0  0  0
    3.8893    0.3157   -1.2045 C   0  0  0  0  0  0  0  0  0  0  0  0
    4.3805    0.5958   -2.4667 O   0  0  0  0  0  0  0  0  0  0  0  0
    3.0196    1.1438   -0.7347 N   0  0  0  0  0  0  0  0  0  0  0  0
    2.5508    2.2969   -1.4011 C   0  0  1  0  0  0  0  0  0  0  0  0
    1.0914    2.5194   -1.5480 C   0  0  2  0  0  0  0  0  0  0  0  0
    0.2714    1.4125   -1.6330 O   0  0  0  0  0  0  0  0  0  0  0  0
   -0.8230    1.6149   -0.7948 C   0  0  0  0  0  0  0  0  0  0  0  0
   -1.8625    0.4778   -0.9401 C   0  0  1  0  0  0  0  0  0  0  0  0
   -2.8651    0.8057   -0.0709 O   0  0  0  0  0  0  0  0  0  0  0  0
   -4.1056    0.2885   -0.3246 C   0  0  2  0  0  0  0  0  0  0  0  0
   -4.8797    0.0170    0.7991 O   0  0  0  0  0  0  0  0  0  0  0  0
   -6.2089    1.0152    0.9180 P   0  0  0  0  0  0  0  0  0  0  0  0
   -7.1267    0.4733    2.2479 O   0  0  0  0  0  0  0  0  0  0  0  0
   -5.7372    2.6084    1.2181 O   0  0  0  0  0  0  0  0  0  0  0  0
   -7.1146    0.9220   -0.2886 O   0  0  0  0  0  0  0  0  0  0  0  0
   -4.1319   -0.8177   -1.3410 C   0  0  2  0  0  0  0  0  0  0  0  0
   -3.5180   -2.0233   -1.0498 N   0  0  0  0  0  0  0  0  0  0  0  0
   -3.0644   -2.7063   -0.1338 C   0  0  0  0  0  0  0  0  0  0  0  0
   -3.0534   -2.3336    1.1965 O   0  0  0  0  0  0  0  0  0  0  0  0
   -2.4944   -4.0267   -0.5600 C   0  0  0  0  0  0  0  0  0  0  0  0
   -2.7399   -4.3272   -1.9938 C   0  0  0  0  0  0  0  0  0  0  0  0
   -3.4224   -3.5313   -2.6397 O   0  0  0  0  0  0  0  0  0  0  0  0
   -2.0930   -5.5959   -2.4239 C   0  0  0  0  0  0  0  0  0  0  0  0
   -2.4230   -5.9734   -3.8412 C   0  0  0  0  0  0  0  0  0  0  0  0
   -3.9134   -6.1754   -4.0379 C   0  0  0  0  0  0  0  0  0  0  0  0
   -4.4178   -7.2798   -3.1092 C   0  0  0  0  0  0  0  0  0  0  0  0
   -5.8956   -7.4327   -3.3551 C   0  0  0  0  0  0  0  0  0  0  0  0
   -6.5696   -8.4733   -2.5243 C   0  0  0  0  0  0  0  0  0  0  0  0
   -6.4182   -8.1365   -1.0685 C   0  0  0  0  0  0  0  0  0  0  0  0
   -7.0958   -9.1542   -0.1766 C   0  0  0  0  0  0  0  0  0  0  0  0
   -6.8943   -8.7502    1.2645 C   0  0  0  0  0  0  0  0  0  0  0  0
   -7.4693   -7.3988    1.5996 C   0  0  0  0  0  0  0  0  0  0  0  0
   -7.2136   -7.1219    3.0696 C   0  0  0  0  0  0  0  0  0  0  0  0
   -3.5824   -0.1502   -2.6188 C   0  0  1  0  0  0  0  0  0  0  0  0
   -4.5168    0.8287   -2.9622 O   0  0  0  0  0  0  0  0  0  0  0  0
   -5.1154    0.5791   -4.1965 C   0  0  0  0  0  0  0  0  0  0  0  0
   -6.0940    1.6916   -4.4341 C   0  0  0  0  0  0  0  0  0  0  0  0
   -5.4243    3.0361   -4.4799 C   0  0  0  0  0  0  0  0  0  0  0  0
   -4.4065    3.1445   -5.6181 C   0  0  0  0  0  0  0  0  0  0  0  0
   -3.8476    4.5382   -5.5312 C   0  0  0  0  0  0  0  0  0  0  0  0
   -2.8373    4.8801   -6.5731 C   0  0  0  0  0  0  0  0  0  0  0  0
   -1.6103    4.0355   -6.6017 C   0  0  0  0  0  0  0  0  0  0  0  0
   -0.7412    4.5928   -7.7439 C   0  0  0  0  0  0  0  0  0  0  0  0
    0.5262    3.7975   -7.8510 C   0  0  0  0  0  0  0  0  0  0  0  0
    1.4198    4.3312   -8.9693 C   0  0  0  0  0  0  0  0  0  0  0  0
   -2.2769    0.5088   -2.3756 C   0  0  2  0  0  0  0  0  0  0  0  0
   -1.2790    0.0149   -3.2243 O   0  0  0  0  0  0  0  0  0  0  0  0
    0.9796    3.2536   -2.7565 O   0  0  0  0  0  0  0  0  0  0  0  0
    1.6426    4.4651   -2.6816 C   0  0  2  0  0  0  0  0  0  0  0  0
    2.5016    4.7225   -3.9001 C   0  0  0  0  0  0  0  0  0  0  0  0
    3.1485    5.9550   -3.8852 O   0  0  0  0  0  0  0  0  0  0  0  0
    2.2387    7.0120   -3.8669 C   0  0  0  0  0  0  0  0  0  0  0  0
    2.3481    4.7315   -1.4231 C   0  0  1  0  0  0  0  0  0  0  0  0
    1.4739    5.3519   -0.5061 O   0  0  0  0  0  0  0  0  0  0  0  0
    2.1115    6.7824    0.0956 P   0  0  0  0  0  0  0  0  0  0  0  0
    3.3784    7.3404   -0.8749 O   0  0  0  0  0  0  0  0  0  0  0  0
    2.6628    6.4955    1.6793 O   0  0  0  0  0  0  0  0  0  0  0  0
    1.0697    7.8722    0.2041 O   0  0  0  0  0  0  0  0  0  0  0  0
    3.0809    3.5846   -0.7682 C   0  0  2  0  0  0  0  0  0  0  0  0
    4.4302    3.6794   -0.8289 O   0  0  0  0  0  0  0  0  0  0  0  0
    5.0110    3.7928    0.4071 C   0  0  0  0  0  0  0  0  0  0  0  0
    4.7746    2.6919    1.3849 C   0  0  0  0  0  0  0  0  0  0  0  0
    5.5128    2.9374    2.6975 C   0  0  1  0  0  0  0  0  0  0  0  0
    5.2942    1.8785    3.7137 C   0  0  0  0  0  0  0  0  0  0  0  0
    5.7021    0.4951    3.3490 C   0  0  0  0  0  0  0  0  0  0  0  0
    7.1559    0.3169    3.0163 C   0  0  0  0  0  0  0  0  0  0  0  0
    7.4210   -1.1334    2.6697 C   0  0  0  0  0  0  0  0  0  0  0  0
    7.1114   -2.0918    3.7943 C   0  0  0  0  0  0  0  0  0  0  0  0
    7.4392   -3.4912    3.2427 C   0  0  0  0  0  0  0  0  0  0  0  0
    7.1815   -4.5575    4.2626 C   0  0  0  0  0  0  0  0  0  0  0  0
    6.8602    3.1181    2.5001 O   0  0  0  0  0  0  0  0  0  0  0  0
    7.2760    4.3936    2.8767 C   0  0  0  0  0  0  0  0  0  0  0  0
    2.4393    3.3321    5.2919 H   0  0  0  0  0  0  0  0  0  0  0  0
    0.3045    1.3712    6.4250 H   0  0  0  0  0  0  0  0  0  0  0  0
    0.7060    3.0056    7.0094 H   0  0  0  0  0  0  0  0  0  0  0  0
    2.7918    0.7440    6.9093 H   0  0  0  0  0  0  0  0  0  0  0  0
    3.0238    2.3928    7.4715 H   0  0  0  0  0  0  0  0  0  0  0  0
    1.1181    0.2292    8.6218 H   0  0  0  0  0  0  0  0  0  0  0  0
    2.6564    0.7089    9.3290 H   0  0  0  0  0  0  0  0  0  0  0  0
    0.1951    2.5109    8.8967 H   0  0  0  0  0  0  0  0  0  0  0  0
    0.7973    1.8639   10.4958 H   0  0  0  0  0  0  0  0  0  0  0  0
    1.4919    4.1951   10.2149 H   0  0  0  0  0  0  0  0  0  0  0  0
    2.2399    3.8296    8.6587 H   0  0  0  0  0  0  0  0  0  0  0  0
    3.9919    2.4714    9.7501 H   0  0  0  0  0  0  0  0  0  0  0  0
    3.0521    2.5585   11.3484 H   0  0  0  0  0  0  0  0  0  0  0  0
    3.7772    4.0222   10.6246 H   0  0  0  0  0  0  0  0  0  0  0  0
    1.8694    2.4437    3.1954 H   0  0  0  0  0  0  0  0  0  0  0  0
   -0.2795    1.4398    2.8492 H   0  0  0  0  0  0  0  0  0  0  0  0
   -0.1286    0.5764    4.4296 H   0  0  0  0  0  0  0  0  0  0  0  0
    1.9212   -0.5310    3.5082 H   0  0  0  0  0  0  0  0  0  0  0  0
    1.7069    0.3813    1.9923 H   0  0  0  0  0  0  0  0  0  0  0  0
   -0.4509   -0.5463    1.5467 H   0  0  0  0  0  0  0  0  0  0  0  0
   -0.6061   -1.3759    3.0969 H   0  0  0  0  0  0  0  0  0  0  0  0
   -0.2132   -2.9126    1.2782 H   0  0  0  0  0  0  0  0  0  0  0  0
    1.3553   -2.9449    2.2186 H   0  0  0  0  0  0  0  0  0  0  0  0
    2.2535   -1.2014    0.8407 H   0  0  0  0  0  0  0  0  0  0  0  0
    0.8380   -1.1767   -0.2105 H   0  0  0  0  0  0  0  0  0  0  0  0
    1.0026   -3.4531   -0.8470 H   0  0  0  0  0  0  0  0  0  0  0  0
    2.3279   -3.8605    0.2311 H   0  0  0  0  0  0  0  0  0  0  0  0
    2.9419   -3.6196   -2.1842 H   0  0  0  0  0  0  0  0  0  0  0  0
    2.2321   -2.0160   -2.2374 H   0  0  0  0  0  0  0  0  0  0  0  0
    4.8599   -3.0151   -0.9888 H   0  0  0  0  0  0  0  0  0  0  0  0
    4.6055   -2.0100   -2.4021 H   0  0  0  0  0  0  0  0  0  0  0  0
    5.6384   -0.8111   -0.7499 H   0  0  0  0  0  0  0  0  0  0  0  0
    4.4446   -0.9451    0.4915 H   0  0  0  0  0  0  0  0  0  0  0  0
    3.8380    0.7971   -3.2996 H   0  0  0  0  0  0  0  0  0  0  0  0
    3.0573    2.2975   -2.4165 H   0  0  0  0  0  0  0  0  0  0  0  0
    0.6218    3.2016   -0.8045 H   0  0  0  0  0  0  0  0  0  0  0  0
   -1.2996    2.5878   -0.8763 H   0  0  0  0  0  0  0  0  0  0  0  0
   -0.4609    1.4984    0.2524 H   0  0  0  0  0  0  0  0  0  0  0  0
   -1.3486   -0.4692   -0.6883 H   0  0  0  0  0  0  0  0  0  0  0  0
   -4.6718    1.1402   -0.8306 H   0  0  0  0  0  0  0  0  0  0  0  0
   -6.5877    0.4029    3.0725 H   0  0  0  0  0  0  0  0  0  0  0  0
   -5.8028    2.7705    2.1892 H   0  0  0  0  0  0  0  0  0  0  0  0
   -5.2400   -0.9625   -1.6044 H   0  0  0  0  0  0  0  0  0  0  0  0
   -2.6822   -1.4136    1.4924 H   0  0  0  0  0  0  0  0  0  0  0  0
   -1.3848   -4.0634   -0.4489 H   0  0  0  0  0  0  0  0  0  0  0  0
   -2.8993   -4.7973    0.1253 H   0  0  0  0  0  0  0  0  0  0  0  0
   -2.2589   -6.4386   -1.7512 H   0  0  0  0  0  0  0  0  0  0  0  0
   -0.9746   -5.4168   -2.4244 H   0  0  0  0  0  0  0  0  0  0  0  0
   -1.9446   -6.9623   -4.0107 H   0  0  0  0  0  0  0  0  0  0  0  0
   -2.0449   -5.2789   -4.5887 H   0  0  0  0  0  0  0  0  0  0  0  0
   -4.0551   -6.5381   -5.0727 H   0  0  0  0  0  0  0  0  0  0  0  0
   -4.4185   -5.2295   -3.8707 H   0  0  0  0  0  0  0  0  0  0  0  0
   -3.9382   -8.2552   -3.3731 H   0  0  0  0  0  0  0  0  0  0  0  0
   -4.1418   -7.0846   -2.0697 H   0  0  0  0  0  0  0  0  0  0  0  0
   -6.0041   -7.6333   -4.4541 H   0  0  0  0  0  0  0  0  0  0  0  0
   -6.3516   -6.4317   -3.1138 H   0  0  0  0  0  0  0  0  0  0  0  0
   -6.0992   -9.4635   -2.6887 H   0  0  0  0  0  0  0  0  0  0  0  0
   -7.6281   -8.4864   -2.7836 H   0  0  0  0  0  0  0  0  0  0  0  0
   -6.9359   -7.1638   -0.9139 H   0  0  0  0  0  0  0  0  0  0  0  0
   -5.3529   -7.9981   -0.7876 H   0  0  0  0  0  0  0  0  0  0  0  0
   -6.5975  -10.1147   -0.3715 H   0  0  0  0  0  0  0  0  0  0  0  0
   -8.1583   -9.2056   -0.4331 H   0  0  0  0  0  0  0  0  0  0  0  0
   -7.2752   -9.5436    1.9576 H   0  0  0  0  0  0  0  0  0  0  0  0
   -5.7984   -8.6827    1.5134 H   0  0  0  0  0  0  0  0  0  0  0  0
   -6.8802   -6.6332    1.0318 H   0  0  0  0  0  0  0  0  0  0  0  0
   -8.5422   -7.3472    1.4217 H   0  0  0  0  0  0  0  0  0  0  0  0
   -7.5106   -6.0688    3.2675 H   0  0  0  0  0  0  0  0  0  0  0  0
   -7.8484   -7.7574    3.7172 H   0  0  0  0  0  0  0  0  0  0  0  0
   -6.1571   -7.2710    3.3379 H   0  0  0  0  0  0  0  0  0  0  0  0
   -3.5652   -0.8897   -3.4481 H   0  0  0  0  0  0  0  0  0  0  0  0
   -5.6673   -0.3718   -4.1029 H   0  0  0  0  0  0  0  0  0  0  0  0
   -4.3453    0.4860   -4.9890 H   0  0  0  0  0  0  0  0  0  0  0  0
   -6.7529    1.7192   -3.5192 H   0  0  0  0  0  0  0  0  0  0  0  0
   -6.7375    1.5192   -5.3307 H   0  0  0  0  0  0  0  0  0  0  0  0
   -4.8972    3.1540   -3.5009 H   0  0  0  0  0  0  0  0  0  0  0  0
   -6.1812    3.8496   -4.5442 H   0  0  0  0  0  0  0  0  0  0  0  0
   -3.6662    2.3566   -5.4662 H   0  0  0  0  0  0  0  0  0  0  0  0
   -4.9528    2.9649   -6.5609 H   0  0  0  0  0  0  0  0  0  0  0  0
   -3.3585    4.6935   -4.5355 H   0  0  0  0  0  0  0  0  0  0  0  0
   -4.6948    5.2418   -5.5386 H   0  0  0  0  0  0  0  0  0  0  0  0
   -2.5250    5.9520   -6.5067 H   0  0  0  0  0  0  0  0  0  0  0  0
   -3.3080    4.7873   -7.5935 H   0  0  0  0  0  0  0  0  0  0  0  0
   -0.9803    4.1615   -5.6777 H   0  0  0  0  0  0  0  0  0  0  0  0
   -1.8124    2.9862   -6.8464 H   0  0  0  0  0  0  0  0  0  0  0  0
   -0.4255    5.6416   -7.4764 H   0  0  0  0  0  0  0  0  0  0  0  0
   -1.3022    4.6874   -8.6809 H   0  0  0  0  0  0  0  0  0  0  0  0
    0.3294    2.7122   -7.9738 H   0  0  0  0  0  0  0  0  0  0  0  0
    1.0966    3.9190   -6.9159 H   0  0  0  0  0  0  0  0  0  0  0  0
    2.4644    4.1455   -8.6831 H   0  0  0  0  0  0  0  0  0  0  0  0
    1.1005    3.7918   -9.8954 H   0  0  0  0  0  0  0  0  0  0  0  0
    1.2233    5.4198   -9.1449 H   0  0  0  0  0  0  0  0  0  0  0  0
   -2.3332    1.6070   -2.6508 H   0  0  0  0  0  0  0  0  0  0  0  0
   -1.6530   -0.8041   -3.6395 H   0  0  0  0  0  0  0  0  0  0  0  0
    0.8040    5.2227   -2.7685 H   0  0  0  0  0  0  0  0  0  0  0  0
    3.3221    3.9796   -4.0333 H   0  0  0  0  0  0  0  0  0  0  0  0
    1.8813    4.7214   -4.8324 H   0  0  0  0  0  0  0  0  0  0  0  0
    2.8584    7.9288   -3.8675 H   0  0  0  0  0  0  0  0  0  0  0  0
    1.6100    7.0609   -2.9785 H   0  0  0  0  0  0  0  0  0  0  0  0
    1.6691    7.0122   -4.8297 H   0  0  0  0  0  0  0  0  0  0  0  0
    3.1519    5.5065   -1.6019 H   0  0  0  0  0  0  0  0  0  0  0  0
    3.3258    8.3417   -0.9518 H   0  0  0  0  0  0  0  0  0  0  0  0
    2.4427    5.5670    1.9324 H   0  0  0  0  0  0  0  0  0  0  0  0
    2.7480    3.5816    0.2822 H   0  0  0  0  0  0  0  0  0  0  0  0
    4.7213    4.7400    0.9340 H   0  0  0  0  0  0  0  0  0  0  0  0
    6.1159    3.9026    0.2638 H   0  0  0  0  0  0  0  0  0  0  0  0
    3.7149    2.4657    1.6028 H   0  0  0  0  0  0  0  0  0  0  0  0
    5.2153    1.7588    0.9566 H   0  0  0  0  0  0  0  0  0  0  0  0
    5.1019    3.8851    3.1117 H   0  0  0  0  0  0  0  0  0  0  0  0
    5.9185    2.1689    4.6104 H   0  0  0  0  0  0  0  0  0  0  0  0
    4.2504    1.8769    4.1213 H   0  0  0  0  0  0  0  0  0  0  0  0
    5.1114    0.1517    2.4833 H   0  0  0  0  0  0  0  0  0  0  0  0
    5.5193   -0.1598    4.2542 H   0  0  0  0  0  0  0  0  0  0  0  0
    7.8440    0.6037    3.8267 H   0  0  0  0  0  0  0  0  0  0  0  0
    7.4334    0.8983    2.0904 H   0  0  0  0  0  0  0  0  0  0  0  0
    8.4494   -1.3186    2.3316 H   0  0  0  0  0  0  0  0  0  0  0  0
    6.7220   -1.4352    1.8340 H   0  0  0  0  0  0  0  0  0  0  0  0
    6.0624   -2.0634    4.1202 H   0  0  0  0  0  0  0  0  0  0  0  0
    7.8230   -1.9513    4.6552 H   0  0  0  0  0  0  0  0  0  0  0  0
    6.7783   -3.7107    2.3566 H   0  0  0  0  0  0  0  0  0  0  0  0
    8.4671   -3.5756    2.8942 H   0  0  0  0  0  0  0  0  0  0  0  0
    8.0838   -4.8111    4.8598 H   0  0  0  0  0  0  0  0  0  0  0  0
    6.8867   -5.4865    3.7350 H   0  0  0  0  0  0  0  0  0  0  0  0
    6.3283   -4.2587    4.8972 H   0  0  0  0  0  0  0  0  0  0  0  0
    7.0772    4.6008    3.9674 H   0  0  0  0  0  0  0  0  0  0  0  0
    6.8368    5.1311    2.1993 H   0  0  0  0  0  0  0  0  0  0  0  0
    8.3764    4.4181    2.7253 H   0  0  0  0  0  0  0  0  0  0  0  0
  1  2  1  0
  2  3  1  0
  3  4  1  0
  4  5  1  0
  5  6  1  0
  6  7  1  0
  1  8  2  0
  8  9  1  0
  9 10  1  0
 10 11  1  0
 11 12  1  0
 12 13  1  0
 13 14  1  0
 14 15  1  0
 15 16  1  0
 16 17  1  0
 17 18  1  0
 18 19  1  0
 18 20  2  3
 20 21  1  0
 21 22  1  0
 22 23  1  0
 23 24  1  0
 24 25  1  0
 25 26  1  0
 26 27  1  0
 27 28  1  0
 28 29  1  0
 29 30  1  0
 29 31  1  0
 29 32  2  0
 27 33  1  0
 33 34  1  0
 34 35  2  3
 35 36  1  0
 35 37  1  0
 37 38  1  0
 38 39  2  0
 38 40  1  0
 40 41  1  0
 41 42  1  0
 42 43  1  0
 43 44  1  0
 44 45  1  0
 45 46  1  0
 46 47  1  0
 47 48  1  0
 48 49  1  0
 49 50  1  0
 33 51  1  0
 51 52  1  0
 52 53  1  0
 53 54  1  0
 54 55  1  0
 55 56  1  0
 56 57  1  0
 57 58  1  0
 58 59  1  0
 59 60  1  0
 60 61  1  0
 61 62  1  0
 51 63  1  0
 63 64  1  0
 22 65  1  0
 65 66  1  0
 66 67  1  0
 67 68  1  0
 68 69  1  0
 66 70  1  0
 70 71  1  0
 71 72  1  0
 72 73  1  0
 72 74  1  0
 72 75  2  0
 70 76  1  0
 76 77  1  0
 77 78  1  0
 78 79  1  0
 79 80  1  0
 80 81  1  0
 81 82  1  0
 82 83  1  0
 83 84  1  0
 84 85  1  0
 85 86  1  0
 86 87  1  0
 80 88  1  0
 88 89  1  0
 76 21  1  0
 63 25  1  0
  1 90  1  0
  2 91  1  0
  2 92  1  0
  3 93  1  0
  3 94  1  0
  4 95  1  0
  4 96  1  0
  5 97  1  0
  5 98  1  0
  6 99  1  0
  6100  1  0
  7101  1  0
  7102  1  0
  7103  1  0
  8104  1  0
  9105  1  0
  9106  1  0
 10107  1  0
 10108  1  0
 11109  1  0
 11110  1  0
 12111  1  0
 12112  1  0
 13113  1  0
 13114  1  0
 14115  1  0
 14116  1  0
 15117  1  0
 15118  1  0
 16119  1  0
 16120  1  0
 17121  1  0
 17122  1  0
 19123  1  0
 21124  1  6
 22125  1  1
 24126  1  0
 24127  1  0
 25128  1  1
 27129  1  6
 30130  1  0
 31131  1  0
 33132  1  6
 36133  1  0
 37134  1  0
 37135  1  0
 40136  1  0
 40137  1  0
 41138  1  0
 41139  1  0
 42140  1  0
 42141  1  0
 43142  1  0
 43143  1  0
 44144  1  0
 44145  1  0
 45146  1  0
 45147  1  0
 46148  1  0
 46149  1  0
 47150  1  0
 47151  1  0
 48152  1  0
 48153  1  0
 49154  1  0
 49155  1  0
 50156  1  0
 50157  1  0
 50158  1  0
 51159  1  6
 53160  1  0
 53161  1  0
 54162  1  0
 54163  1  0
 55164  1  0
 55165  1  0
 56166  1  0
 56167  1  0
 57168  1  0
 57169  1  0
 58170  1  0
 58171  1  0
 59172  1  0
 59173  1  0
 60174  1  0
 60175  1  0
 61176  1  0
 61177  1  0
 62178  1  0
 62179  1  0
 62180  1  0
 63181  1  6
 64182  1  0
 66183  1  6
 67184  1  0
 67185  1  0
 69186  1  0
 69187  1  0
 69188  1  0
 70189  1  6
 73190  1  0
 74191  1  0
 76192  1  1
 78193  1  0
 78194  1  0
 79195  1  0
 79196  1  0
 80197  1  1
 81198  1  0
 81199  1  0
 82200  1  0
 82201  1  0
 83202  1  0
 83203  1  0
 84204  1  0
 84205  1  0
 85206  1  0
 85207  1  0
 86208  1  0
 86209  1  0
 87210  1  0
 87211  1  0
 87212  1  0
 89213  1  0
 89214  1  0
 89215  1  0
M  END
$$$$
