@<TRIPOS>MOLECULE
*****
 215 216 0 0 0
SMALL
GASTEIGER

@<TRIPOS>ATOM
      1 C           1.7021    2.5413    5.2286 C.2     1  UNL1       -0.0879
      2 C           1.1157    2.0914    6.5308 C.3     1  UNL1       -0.0348
      3 C           2.2569    1.6000    7.3785 C.3     1  UNL1       -0.0496
      4 C           1.7982    1.1055    8.7274 C.3     1  UNL1       -0.0528
      5 C           1.0902    2.1999    9.4743 C.3     1  UNL1       -0.0533
      6 C           2.0148    3.3792    9.6343 C.3     1  UNL1       -0.0559
      7 C           3.2739    3.0370   10.3866 C.3     1  UNL1       -0.0653
      8 C           1.3546    2.0218    4.0780 C.2     1  UNL1       -0.0879
      9 C           0.4517    1.0016    3.5702 C.3     1  UNL1       -0.0348
     10 C           1.1644   -0.1456    2.8284 C.3     1  UNL1       -0.0496
     11 C           0.1574   -1.1219    2.3165 C.3     1  UNL1       -0.0528
     12 C           0.6646   -2.3238    1.6019 C.3     1  UNL1       -0.0530
     13 C           1.5110   -1.8463    0.4006 C.3     1  UNL1       -0.0531
     14 C           1.9602   -3.0154   -0.4042 C.3     1  UNL1       -0.0530
     15 C           2.8301   -2.6844   -1.5344 C.3     1  UNL1       -0.0526
     16 C           4.1745   -2.1551   -1.3376 C.3     1  UNL1       -0.0447
     17 C           4.4780   -0.9191   -0.6258 C.3     1  UNL1        0.0230
     18 C           3.8893    0.3157   -1.2045 C.2     1  UNL1        0.1829
     19 O           4.3805    0.5958   -2.4667 O.2     1  UNL1       -0.4956
     20 N           3.0196    1.1438   -0.7347 N.2     1  UNL1       -0.2436
     21 C           2.5508    2.2969   -1.4011 C.3     1  UNL1        0.1333
     22 C           1.0914    2.5194   -1.5480 C.3     1  UNL1        0.1844
     23 O           0.2714    1.4125   -1.6330 O.3     1  UNL1       -0.3464
     24 C          -0.8230    1.6149   -0.7948 C.3     1  UNL1        0.0795
     25 C          -1.8625    0.4778   -0.9401 C.3     1  UNL1        0.1134
     26 O          -2.8651    0.8057   -0.0709 O.3     1  UNL1       -0.3404
     27 C          -4.1056    0.2885   -0.3246 C.3     1  UNL1        0.1952
     28 O          -4.8797    0.0170    0.7991 O.3     1  UNL1       -0.2545
     29 P          -6.2089    1.0152    0.9180 P.3     1  UNL1        0.4746
     30 O          -7.1267    0.4733    2.2479 O.3     1  UNL1       -0.3025
     31 O          -5.7372    2.6084    1.2181 O.3     1  UNL1       -0.3025
     32 O          -7.1146    0.9220   -0.2886 O.2     1  UNL1       -0.2274
     33 C          -4.1319   -0.8177   -1.3410 C.3     1  UNL1        0.1338
     34 N          -3.5180   -2.0233   -1.0498 N.2     1  UNL1       -0.2433
     35 C          -3.0644   -2.7063   -0.1338 C.2     1  UNL1        0.1902
     36 O          -3.0534   -2.3336    1.1965 O.2     1  UNL1       -0.4953
     37 C          -2.4944   -4.0267   -0.5600 C.3     1  UNL1        0.0814
     38 C          -2.7399   -4.3272   -1.9938 C.2     1  UNL1        0.1422
     39 O          -3.4224   -3.5313   -2.6397 O.2     1  UNL1       -0.2969
     40 C          -2.0930   -5.5959   -2.4239 C.3     1  UNL1        0.0063
     41 C          -2.4230   -5.9734   -3.8412 C.3     1  UNL1       -0.0464
     42 C          -3.9134   -6.1754   -4.0379 C.3     1  UNL1       -0.0527
     43 C          -4.4178   -7.2798   -3.1092 C.3     1  UNL1       -0.0530
     44 C          -5.8956   -7.4327   -3.3551 C.3     1  UNL1       -0.0531
     45 C          -6.5696   -8.4733   -2.5243 C.3     1  UNL1       -0.0531
     46 C          -6.4182   -8.1365   -1.0685 C.3     1  UNL1       -0.0531
     47 C          -7.0958   -9.1542   -0.1766 C.3     1  UNL1       -0.0531
     48 C          -6.8943   -8.7502    1.2645 C.3     1  UNL1       -0.0533
     49 C          -7.4693   -7.3988    1.5996 C.3     1  UNL1       -0.0559
     50 C          -7.2136   -7.1219    3.0696 C.3     1  UNL1       -0.0653
     51 C          -3.5824   -0.1502   -2.6188 C.3     1  UNL1        0.1140
     52 O          -4.5168    0.8287   -2.9622 O.3     1  UNL1       -0.3716
     53 C          -5.1154    0.5791   -4.1965 C.3     1  UNL1        0.0482
     54 C          -6.0940    1.6916   -4.4341 C.3     1  UNL1       -0.0294
     55 C          -5.4243    3.0361   -4.4799 C.3     1  UNL1       -0.0510
     56 C          -4.4065    3.1445   -5.6181 C.3     1  UNL1       -0.0530
     57 C          -3.8476    4.5382   -5.5312 C.3     1  UNL1       -0.0531
     58 C          -2.8373    4.8801   -6.5731 C.3     1  UNL1       -0.0531
     59 C          -1.6103    4.0355   -6.6017 C.3     1  UNL1       -0.0531
     60 C          -0.7412    4.5928   -7.7439 C.3     1  UNL1       -0.0533
     61 C           0.5262    3.7975   -7.8510 C.3     1  UNL1       -0.0559
     62 C           1.4198    4.3312   -8.9693 C.3     1  UNL1       -0.0653
     63 C          -2.2769    0.5088   -2.3756 C.3     1  UNL1        0.1117
     64 O          -1.2790    0.0149   -3.2243 O.3     1  UNL1       -0.3865
     65 O           0.9796    3.2536   -2.7565 O.3     1  UNL1       -0.3409
     66 C           1.6426    4.4651   -2.6816 C.3     1  UNL1        0.1141
     67 C           2.5016    4.7225   -3.9001 C.3     1  UNL1        0.0761
     68 O           3.1485    5.9550   -3.8852 O.3     1  UNL1       -0.3803
     69 C           2.2387    7.0120   -3.8669 C.3     1  UNL1        0.0366
     70 C           2.3481    4.7315   -1.4231 C.3     1  UNL1        0.1265
     71 O           1.4739    5.3519   -0.5061 O.3     1  UNL1       -0.2781
     72 P           2.1115    6.7824    0.0956 P.3     1  UNL1        0.4728
     73 O           3.3784    7.3404   -0.8749 O.3     1  UNL1       -0.3026
     74 O           2.6628    6.4955    1.6793 O.3     1  UNL1       -0.3026
     75 O           1.0697    7.8722    0.2041 O.2     1  UNL1       -0.2275
     76 C           3.0809    3.5846   -0.7682 C.3     1  UNL1        0.1148
     77 O           4.4302    3.6794   -0.8289 O.3     1  UNL1       -0.3715
     78 C           5.0110    3.7928    0.4071 C.3     1  UNL1        0.0506
     79 C           4.7746    2.6919    1.3849 C.3     1  UNL1       -0.0031
     80 C           5.5128    2.9374    2.6975 C.3     1  UNL1        0.0604
     81 C           5.2942    1.8785    3.7137 C.3     1  UNL1       -0.0265
     82 C           5.7021    0.4951    3.3490 C.3     1  UNL1       -0.0507
     83 C           7.1559    0.3169    3.0163 C.3     1  UNL1       -0.0530
     84 C           7.4210   -1.1334    2.6697 C.3     1  UNL1       -0.0531
     85 C           7.1114   -2.0918    3.7943 C.3     1  UNL1       -0.0533
     86 C           7.4392   -3.4912    3.2427 C.3     1  UNL1       -0.0559
     87 C           7.1815   -4.5575    4.2626 C.3     1  UNL1       -0.0653
     88 O           6.8602    3.1181    2.5001 O.3     1  UNL1       -0.3797
     89 C           7.2760    4.3936    2.8767 C.3     1  UNL1        0.0368
     90 H           2.4393    3.3321    5.2919 H       1  UNL1        0.0569
     91 H           0.3045    1.3712    6.4250 H       1  UNL1        0.0307
     92 H           0.7060    3.0056    7.0094 H       1  UNL1        0.0307
     93 H           2.7918    0.7440    6.9093 H       1  UNL1        0.0268
     94 H           3.0238    2.3928    7.4715 H       1  UNL1        0.0268
     95 H           1.1181    0.2292    8.6218 H       1  UNL1        0.0265
     96 H           2.6564    0.7089    9.3290 H       1  UNL1        0.0265
     97 H           0.1951    2.5109    8.8967 H       1  UNL1        0.0265
     98 H           0.7973    1.8639   10.4958 H       1  UNL1        0.0265
     99 H           1.4919    4.1951   10.2149 H       1  UNL1        0.0263
    100 H           2.2399    3.8296    8.6587 H       1  UNL1        0.0263
    101 H           3.9919    2.4714    9.7501 H       1  UNL1        0.0230
    102 H           3.0521    2.5585   11.3484 H       1  UNL1        0.0230
    103 H           3.7772    4.0222   10.6246 H       1  UNL1        0.0230
    104 H           1.8694    2.4437    3.1954 H       1  UNL1        0.0569
    105 H          -0.2795    1.4398    2.8492 H       1  UNL1        0.0307
    106 H          -0.1286    0.5764    4.4296 H       1  UNL1        0.0307
    107 H           1.9212   -0.5310    3.5082 H       1  UNL1        0.0268
    108 H           1.7069    0.3813    1.9923 H       1  UNL1        0.0268
    109 H          -0.4509   -0.5463    1.5467 H       1  UNL1        0.0265
    110 H          -0.6061   -1.3759    3.0969 H       1  UNL1        0.0265
    111 H          -0.2132   -2.9126    1.2782 H       1  UNL1        0.0265
    112 H           1.3553   -2.9449    2.2186 H       1  UNL1        0.0265
    113 H           2.2535   -1.2014    0.8407 H       1  UNL1        0.0265
    114 H           0.8380   -1.1767   -0.2105 H       1  UNL1        0.0265
    115 H           1.0026   -3.4531   -0.8470 H       1  UNL1        0.0265
    116 H           2.3279   -3.8605    0.2311 H       1  UNL1        0.0265
    117 H           2.9419   -3.6196   -2.1842 H       1  UNL1        0.0265
    118 H           2.2321   -2.0160   -2.2374 H       1  UNL1        0.0265
    119 H           4.8599   -3.0151   -0.9888 H       1  UNL1        0.0270
    120 H           4.6055   -2.0100   -2.4021 H       1  UNL1        0.0270
    121 H           5.6384   -0.8111   -0.7499 H       1  UNL1        0.0359
    122 H           4.4446   -0.9451    0.4915 H       1  UNL1        0.0359
    123 H           3.8380    0.7971   -3.2996 H       1  UNL1        0.2934
    124 H           3.0573    2.2975   -2.4165 H       1  UNL1        0.0623
    125 H           0.6218    3.2016   -0.8045 H       1  UNL1        0.0933
    126 H          -1.2996    2.5878   -0.8763 H       1  UNL1        0.0587
    127 H          -0.4609    1.4984    0.2524 H       1  UNL1        0.0587
    128 H          -1.3486   -0.4692   -0.6883 H       1  UNL1        0.0647
    129 H          -4.6718    1.1402   -0.8306 H       1  UNL1        0.0938
    130 H          -6.5877    0.4029    3.0725 H       1  UNL1        0.2220
    131 H          -5.8028    2.7705    2.1892 H       1  UNL1        0.2220
    132 H          -5.2400   -0.9625   -1.6044 H       1  UNL1        0.0623
    133 H          -2.6822   -1.4136    1.4924 H       1  UNL1        0.2934
    134 H          -1.3848   -4.0634   -0.4489 H       1  UNL1        0.0437
    135 H          -2.8993   -4.7973    0.1253 H       1  UNL1        0.0437
    136 H          -2.2589   -6.4386   -1.7512 H       1  UNL1        0.0342
    137 H          -0.9746   -5.4168   -2.4244 H       1  UNL1        0.0342
    138 H          -1.9446   -6.9623   -4.0107 H       1  UNL1        0.0269
    139 H          -2.0449   -5.2789   -4.5887 H       1  UNL1        0.0269
    140 H          -4.0551   -6.5381   -5.0727 H       1  UNL1        0.0265
    141 H          -4.4185   -5.2295   -3.8707 H       1  UNL1        0.0265
    142 H          -3.9382   -8.2552   -3.3731 H       1  UNL1        0.0265
    143 H          -4.1418   -7.0846   -2.0697 H       1  UNL1        0.0265
    144 H          -6.0041   -7.6333   -4.4541 H       1  UNL1        0.0265
    145 H          -6.3516   -6.4317   -3.1138 H       1  UNL1        0.0265
    146 H          -6.0992   -9.4635   -2.6887 H       1  UNL1        0.0265
    147 H          -7.6281   -8.4864   -2.7836 H       1  UNL1        0.0265
    148 H          -6.9359   -7.1638   -0.9139 H       1  UNL1        0.0265
    149 H          -5.3529   -7.9981   -0.7876 H       1  UNL1        0.0265
    150 H          -6.5975  -10.1147   -0.3715 H       1  UNL1        0.0265
    151 H          -8.1583   -9.2056   -0.4331 H       1  UNL1        0.0265
    152 H          -7.2752   -9.5436    1.9576 H       1  UNL1        0.0265
    153 H          -5.7984   -8.6827    1.5134 H       1  UNL1        0.0265
    154 H          -6.8802   -6.6332    1.0318 H       1  UNL1        0.0263
    155 H          -8.5422   -7.3472    1.4217 H       1  UNL1        0.0263
    156 H          -7.5106   -6.0688    3.2675 H       1  UNL1        0.0230
    157 H          -7.8484   -7.7574    3.7172 H       1  UNL1        0.0230
    158 H          -6.1571   -7.2710    3.3379 H       1  UNL1        0.0230
    159 H          -3.5652   -0.8897   -3.4481 H       1  UNL1        0.0646
    160 H          -5.6673   -0.3718   -4.1029 H       1  UNL1        0.0560
    161 H          -4.3453    0.4860   -4.9890 H       1  UNL1        0.0560
    162 H          -6.7529    1.7192   -3.5192 H       1  UNL1        0.0287
    163 H          -6.7375    1.5192   -5.3307 H       1  UNL1        0.0287
    164 H          -4.8972    3.1540   -3.5009 H       1  UNL1        0.0266
    165 H          -6.1812    3.8496   -4.5442 H       1  UNL1        0.0266
    166 H          -3.6662    2.3566   -5.4662 H       1  UNL1        0.0265
    167 H          -4.9528    2.9649   -6.5609 H       1  UNL1        0.0265
    168 H          -3.3585    4.6935   -4.5355 H       1  UNL1        0.0265
    169 H          -4.6948    5.2418   -5.5386 H       1  UNL1        0.0265
    170 H          -2.5250    5.9520   -6.5067 H       1  UNL1        0.0265
    171 H          -3.3080    4.7873   -7.5935 H       1  UNL1        0.0265
    172 H          -0.9803    4.1615   -5.6777 H       1  UNL1        0.0265
    173 H          -1.8124    2.9862   -6.8464 H       1  UNL1        0.0265
    174 H          -0.4255    5.6416   -7.4764 H       1  UNL1        0.0265
    175 H          -1.3022    4.6874   -8.6809 H       1  UNL1        0.0265
    176 H           0.3294    2.7122   -7.9738 H       1  UNL1        0.0263
    177 H           1.0966    3.9190   -6.9159 H       1  UNL1        0.0263
    178 H           2.4644    4.1455   -8.6831 H       1  UNL1        0.0230
    179 H           1.1005    3.7918   -9.8954 H       1  UNL1        0.0230
    180 H           1.2233    5.4198   -9.1449 H       1  UNL1        0.0230
    181 H          -2.3332    1.6070   -2.6508 H       1  UNL1        0.0647
    182 H          -1.6530   -0.8041   -3.6395 H       1  UNL1        0.2100
    183 H           0.8040    5.2227   -2.7685 H       1  UNL1        0.0647
    184 H           3.3221    3.9796   -4.0333 H       1  UNL1        0.0586
    185 H           1.8813    4.7214   -4.8324 H       1  UNL1        0.0586
    186 H           2.8584    7.9288   -3.8675 H       1  UNL1        0.0524
    187 H           1.6100    7.0609   -2.9785 H       1  UNL1        0.0524
    188 H           1.6691    7.0122   -4.8297 H       1  UNL1        0.0524
    189 H           3.1519    5.5065   -1.6019 H       1  UNL1        0.0655
    190 H           3.3258    8.3417   -0.9518 H       1  UNL1        0.2220
    191 H           2.4427    5.5670    1.9324 H       1  UNL1        0.2220
    192 H           2.7480    3.5816    0.2822 H       1  UNL1        0.0646
    193 H           4.7213    4.7400    0.9340 H       1  UNL1        0.0561
    194 H           6.1159    3.9026    0.2638 H       1  UNL1        0.0561
    195 H           3.7149    2.4657    1.6028 H       1  UNL1        0.0312
    196 H           5.2153    1.7588    0.9566 H       1  UNL1        0.0312
    197 H           5.1019    3.8851    3.1117 H       1  UNL1        0.0596
    198 H           5.9185    2.1689    4.6104 H       1  UNL1        0.0290
    199 H           4.2504    1.8769    4.1213 H       1  UNL1        0.0290
    200 H           5.1114    0.1517    2.4833 H       1  UNL1        0.0266
    201 H           5.5193   -0.1598    4.2542 H       1  UNL1        0.0266
    202 H           7.8440    0.6037    3.8267 H       1  UNL1        0.0265
    203 H           7.4334    0.8983    2.0904 H       1  UNL1        0.0265
    204 H           8.4494   -1.3186    2.3316 H       1  UNL1        0.0265
    205 H           6.7220   -1.4352    1.8340 H       1  UNL1        0.0265
    206 H           6.0624   -2.0634    4.1202 H       1  UNL1        0.0265
    207 H           7.8230   -1.9513    4.6552 H       1  UNL1        0.0265
    208 H           6.7783   -3.7107    2.3566 H       1  UNL1        0.0263
    209 H           8.4671   -3.5756    2.8942 H       1  UNL1        0.0263
    210 H           8.0838   -4.8111    4.8598 H       1  UNL1        0.0230
    211 H           6.8867   -5.4865    3.7350 H       1  UNL1        0.0230
    212 H           6.3283   -4.2587    4.8972 H       1  UNL1        0.0230
    213 H           7.0772    4.6008    3.9674 H       1  UNL1        0.0524
    214 H           6.8368    5.1311    2.1993 H       1  UNL1        0.0524
    215 H           8.3764    4.4181    2.7253 H       1  UNL1        0.0524
@<TRIPOS>BOND
     1     1     2    1
     2     2     3    1
     3     3     4    1
     4     4     5    1
     5     5     6    1
     6     6     7    1
     7     1     8    2
     8     8     9    1
     9     9    10    1
    10    10    11    1
    11    11    12    1
    12    12    13    1
    13    13    14    1
    14    14    15    1
    15    15    16    1
    16    16    17    1
    17    17    18    1
    18    18    19    1
    19    18    20    2
    20    20    21    1
    21    21    22    1
    22    22    23    1
    23    23    24    1
    24    24    25    1
    25    25    26    1
    26    26    27    1
    27    27    28    1
    28    28    29    1
    29    29    30    1
    30    29    31    1
    31    29    32    2
    32    27    33    1
    33    33    34    1
    34    34    35    2
    35    35    36    1
    36    35    37    1
    37    37    38    1
    38    38    39    2
    39    38    40    1
    40    40    41    1
    41    41    42    1
    42    42    43    1
    43    43    44    1
    44    44    45    1
    45    45    46    1
    46    46    47    1
    47    47    48    1
    48    48    49    1
    49    49    50    1
    50    33    51    1
    51    51    52    1
    52    52    53    1
    53    53    54    1
    54    54    55    1
    55    55    56    1
    56    56    57    1
    57    57    58    1
    58    58    59    1
    59    59    60    1
    60    60    61    1
    61    61    62    1
    62    51    63    1
    63    63    64    1
    64    22    65    1
    65    65    66    1
    66    66    67    1
    67    67    68    1
    68    68    69    1
    69    66    70    1
    70    70    71    1
    71    71    72    1
    72    72    73    1
    73    72    74    1
    74    72    75    2
    75    70    76    1
    76    76    77    1
    77    77    78    1
    78    78    79    1
    79    79    80    1
    80    80    81    1
    81    81    82    1
    82    82    83    1
    83    83    84    1
    84    84    85    1
    85    85    86    1
    86    86    87    1
    87    80    88    1
    88    88    89    1
    89    76    21    1
    90    63    25    1
    91     1    90    1
    92     2    91    1
    93     2    92    1
    94     3    93    1
    95     3    94    1
    96     4    95    1
    97     4    96    1
    98     5    97    1
    99     5    98    1
   100     6    99    1
   101     6   100    1
   102     7   101    1
   103     7   102    1
   104     7   103    1
   105     8   104    1
   106     9   105    1
   107     9   106    1
   108    10   107    1
   109    10   108    1
   110    11   109    1
   111    11   110    1
   112    12   111    1
   113    12   112    1
   114    13   113    1
   115    13   114    1
   116    14   115    1
   117    14   116    1
   118    15   117    1
   119    15   118    1
   120    16   119    1
   121    16   120    1
   122    17   121    1
   123    17   122    1
   124    19   123    1
   125    21   124    1
   126    22   125    1
   127    24   126    1
   128    24   127    1
   129    25   128    1
   130    27   129    1
   131    30   130    1
   132    31   131    1
   133    33   132    1
   134    36   133    1
   135    37   134    1
   136    37   135    1
   137    40   136    1
   138    40   137    1
   139    41   138    1
   140    41   139    1
   141    42   140    1
   142    42   141    1
   143    43   142    1
   144    43   143    1
   145    44   144    1
   146    44   145    1
   147    45   146    1
   148    45   147    1
   149    46   148    1
   150    46   149    1
   151    47   150    1
   152    47   151    1
   153    48   152    1
   154    48   153    1
   155    49   154    1
   156    49   155    1
   157    50   156    1
   158    50   157    1
   159    50   158    1
   160    51   159    1
   161    53   160    1
   162    53   161    1
   163    54   162    1
   164    54   163    1
   165    55   164    1
   166    55   165    1
   167    56   166    1
   168    56   167    1
   169    57   168    1
   170    57   169    1
   171    58   170    1
   172    58   171    1
   173    59   172    1
   174    59   173    1
   175    60   174    1
   176    60   175    1
   177    61   176    1
   178    61   177    1
   179    62   178    1
   180    62   179    1
   181    62   180    1
   182    63   181    1
   183    64   182    1
   184    66   183    1
   185    67   184    1
   186    67   185    1
   187    69   186    1
   188    69   187    1
   189    69   188    1
   190    70   189    1
   191    73   190    1
   192    74   191    1
   193    76   192    1
   194    78   193    1
   195    78   194    1
   196    79   195    1
   197    79   196    1
   198    80   197    1
   199    81   198    1
   200    81   199    1
   201    82   200    1
   202    82   201    1
   203    83   202    1
   204    83   203    1
   205    84   204    1
   206    84   205    1
   207    85   206    1
   208    85   207    1
   209    86   208    1
   210    86   209    1
   211    87   210    1
   212    87   211    1
   213    87   212    1
   214    89   213    1
   215    89   214    1
   216    89   215    1
