@<TRIPOS>MOLECULE
*****
 56 60 0 0 0
SMALL
GASTEIGER

@<TRIPOS>ATOM
      1 O          -6.2906   -0.7241   -0.5557 O.2     1  UNL1       -0.1744
      2 S          -5.2736   -1.0204    0.4899 S.O2    1  UNL1       -0.0310
      3 O          -5.8129   -1.6969    1.6896 O.2     1  UNL1       -0.1744
      4 C          -4.3737    0.4817    0.9443 C.3     1  UNL1        0.0663
      5 C          -3.4682    0.7384   -0.2497 C.3     1  UNL1       -0.0274
      6 C          -2.2405   -0.1516   -0.2748 C.3     1  UNL1       -0.0180
      7 C          -1.9361   -0.3161   -1.7594 C.3     1  UNL1       -0.0468
      8 C          -0.7245   -1.1296   -1.9556 C.3     1  UNL1       -0.0502
      9 C           0.4489   -0.3827   -1.3793 C.3     1  UNL1       -0.0227
     10 C           0.2957    0.1592   -0.0040 C.3     1  UNL1        0.1301
     11 S           1.1310   -1.0392    1.0850 S.O2    1  UNL1        0.0072
     12 O           0.9466   -0.5419    2.5167 O.2     1  UNL1       -0.1685
     13 O           0.5043   -2.3736    1.0317 O.2     1  UNL1       -0.1685
     14 C           2.8151   -1.2070    0.7007 C.ar    1  UNL1        0.0893
     15 C           3.7336   -0.3423    1.2813 C.ar    1  UNL1       -0.0355
     16 C           5.0874   -0.4429    1.0241 C.ar    1  UNL1       -0.0416
     17 C           5.5650   -1.4064    0.1821 C.ar    1  UNL1        0.0411
     18 CL          7.3035   -1.5223   -0.1376 Cl      1  UNL1       -0.0835
     19 C           4.6800   -2.2748   -0.4058 C.ar    1  UNL1       -0.0416
     20 C           3.3316   -2.1672   -0.1435 C.ar    1  UNL1       -0.0355
     21 C           1.1944    1.3371    0.1147 C.ar    1  UNL1        0.0600
     22 C           2.3696    1.4714   -0.6298 C.ar    1  UNL1        0.1323
     23 F           2.7246    0.5761   -1.5624 F       1  UNL1       -0.2050
     24 C           3.2370    2.5424   -0.4665 C.ar    1  UNL1       -0.0232
     25 C           2.9648    3.5282    0.4511 C.ar    1  UNL1       -0.0201
     26 C           1.8171    3.4326    1.2012 C.ar    1  UNL1        0.1653
     27 F           1.4864    4.3590    2.1251 F       1  UNL1       -0.2016
     28 C           0.9510    2.3374    1.0172 C.ar    1  UNL1        0.1635
     29 O          -0.2214    2.2011    1.7431 O.3     1  UNL1       -0.4883
     30 C          -1.3690    1.8126    0.9481 C.3     1  UNL1        0.0954
     31 C          -1.0694    0.3992    0.4880 C.3     1  UNL1        0.0287
     32 C          -2.6262   -1.5223    0.2197 C.3     1  UNL1       -0.0274
     33 C          -3.9714   -1.9897   -0.2854 C.3     1  UNL1        0.0663
     34 H          -3.8412    0.1823    1.8578 H       1  UNL1        0.0500
     35 H          -5.0443    1.3336    1.0441 H       1  UNL1        0.0500
     36 H          -3.2628    1.8076   -0.3919 H       1  UNL1        0.0286
     37 H          -4.1236    0.5031   -1.1517 H       1  UNL1        0.0286
     38 H          -1.7576    0.6906   -2.1839 H       1  UNL1        0.0271
     39 H          -2.8003   -0.7350   -2.2648 H       1  UNL1        0.0271
     40 H          -0.7478   -2.1790   -1.6791 H       1  UNL1        0.0266
     41 H          -0.5377   -1.1459   -3.0778 H       1  UNL1        0.0266
     42 H           1.2762   -1.1116   -1.4765 H       1  UNL1        0.0290
     43 H           0.5602    0.5131   -2.0594 H       1  UNL1        0.0290
     44 H           3.4182    0.4411    1.9565 H       1  UNL1        0.0637
     45 H           5.8123    0.2341    1.4779 H       1  UNL1        0.0633
     46 H           5.0373   -3.0374   -1.0695 H       1  UNL1        0.0633
     47 H           2.6436   -2.8650   -0.6155 H       1  UNL1        0.0637
     48 H           4.1495    2.5839   -1.0898 H       1  UNL1        0.0647
     49 H           3.6438    4.3541    0.5717 H       1  UNL1        0.0648
     50 H          -2.1736    1.8386    1.7193 H       1  UNL1        0.0700
     51 H          -1.5306    2.5274    0.1458 H       1  UNL1        0.0700
     52 H          -1.1432   -0.1581    1.4915 H       1  UNL1        0.0364
     53 H          -1.9270   -2.3111   -0.0715 H       1  UNL1        0.0286
     54 H          -2.6824   -1.5300    1.3316 H       1  UNL1        0.0286
     55 H          -4.0725   -2.0402   -1.3622 H       1  UNL1        0.0500
     56 H          -4.1065   -3.0217    0.1111 H       1  UNL1        0.0500
@<TRIPOS>BOND
     1     1     2    2
     2     2     3    2
     3     2     4    1
     4     4     5    1
     5     5     6    1
     6     6     7    1
     7     7     8    1
     8     8     9    1
     9     9    10    1
    10    10    11    1
    11    11    12    2
    12    11    13    2
    13    11    14    1
    14    14    15   ar
    15    15    16   ar
    16    16    17   ar
    17    17    18    1
    18    17    19   ar
    19    19    20   ar
    20    10    21    1
    21    21    22   ar
    22    22    23    1
    23    22    24   ar
    24    24    25   ar
    25    25    26   ar
    26    26    27    1
    27    26    28   ar
    28    28    29    1
    29    29    30    1
    30    30    31    1
    31     6    32    1
    32    32    33    1
    33    33     2    1
    34    31     6    1
    35    31    10    1
    36    20    14   ar
    37    28    21   ar
    38     4    34    1
    39     4    35    1
    40     5    36    1
    41     5    37    1
    42     7    38    1
    43     7    39    1
    44     8    40    1
    45     8    41    1
    46     9    42    1
    47     9    43    1
    48    15    44    1
    49    16    45    1
    50    19    46    1
    51    20    47    1
    52    24    48    1
    53    25    49    1
    54    30    50    1
    55    30    51    1
    56    31    52    1
    57    32    53    1
    58    32    54    1
    59    33    55    1
    60    33    56    1
