
     RDKit          3D

 56 60  0  0  0  0  0  0  0  0999 V2000
   -6.2906   -0.7241   -0.5557 O   0  0  0  0  0  0  0  0  0  0  0  0
   -5.2736   -1.0204    0.4899 S   0  0  0  0  0  6  0  0  0  0  0  0
   -5.8129   -1.6969    1.6896 O   0  0  0  0  0  0  0  0  0  0  0  0
   -4.3737    0.4817    0.9443 C   0  0  0  0  0  0  0  0  0  0  0  0
   -3.4682    0.7384   -0.2497 C   0  0  0  0  0  0  0  0  0  0  0  0
   -2.2405   -0.1516   -0.2748 C   0  0  0  0  0  0  0  0  0  0  0  0
   -1.9361   -0.3161   -1.7594 C   0  0  0  0  0  0  0  0  0  0  0  0
   -0.7245   -1.1296   -1.9556 C   0  0  0  0  0  0  0  0  0  0  0  0
    0.4489   -0.3827   -1.3793 C   0  0  0  0  0  0  0  0  0  0  0  0
    0.2957    0.1592   -0.0040 C   0  0  1  0  0  0  0  0  0  0  0  0
    1.1310   -1.0392    1.0850 S   0  0  0  0  0  6  0  0  0  0  0  0
    0.9466   -0.5419    2.5167 O   0  0  0  0  0  0  0  0  0  0  0  0
    0.5043   -2.3736    1.0317 O   0  0  0  0  0  0  0  0  0  0  0  0
    2.8151   -1.2070    0.7007 C   0  0  0  0  0  0  0  0  0  0  0  0
    3.7336   -0.3423    1.2813 C   0  0  0  0  0  0  0  0  0  0  0  0
    5.0874   -0.4429    1.0241 C   0  0  0  0  0  0  0  0  0  0  0  0
    5.5650   -1.4064    0.1821 C   0  0  0  0  0  0  0  0  0  0  0  0
    7.3035   -1.5223   -0.1376 Cl  0  0  0  0  0  0  0  0  0  0  0  0
    4.6800   -2.2748   -0.4058 C   0  0  0  0  0  0  0  0  0  0  0  0
    3.3316   -2.1672   -0.1435 C   0  0  0  0  0  0  0  0  0  0  0  0
    1.1944    1.3371    0.1147 C   0  0  0  0  0  0  0  0  0  0  0  0
    2.3696    1.4714   -0.6298 C   0  0  0  0  0  0  0  0  0  0  0  0
    2.7246    0.5761   -1.5624 F   0  0  0  0  0  0  0  0  0  0  0  0
    3.2370    2.5424   -0.4665 C   0  0  0  0  0  0  0  0  0  0  0  0
    2.9648    3.5282    0.4511 C   0  0  0  0  0  0  0  0  0  0  0  0
    1.8171    3.4326    1.2012 C   0  0  0  0  0  0  0  0  0  0  0  0
    1.4864    4.3590    2.1251 F   0  0  0  0  0  0  0  0  0  0  0  0
    0.9510    2.3374    1.0172 C   0  0  0  0  0  0  0  0  0  0  0  0
   -0.2214    2.2011    1.7431 O   0  0  0  0  0  0  0  0  0  0  0  0
   -1.3690    1.8126    0.9481 C   0  0  0  0  0  0  0  0  0  0  0  0
   -1.0694    0.3992    0.4880 C   0  0  1  0  0  0  0  0  0  0  0  0
   -2.6262   -1.5223    0.2197 C   0  0  0  0  0  0  0  0  0  0  0  0
   -3.9714   -1.9897   -0.2854 C   0  0  0  0  0  0  0  0  0  0  0  0
   -3.8412    0.1823    1.8578 H   0  0  0  0  0  0  0  0  0  0  0  0
   -5.0443    1.3336    1.0441 H   0  0  0  0  0  0  0  0  0  0  0  0
   -3.2628    1.8076   -0.3919 H   0  0  0  0  0  0  0  0  0  0  0  0
   -4.1236    0.5031   -1.1517 H   0  0  0  0  0  0  0  0  0  0  0  0
   -1.7576    0.6906   -2.1839 H   0  0  0  0  0  0  0  0  0  0  0  0
   -2.8003   -0.7350   -2.2648 H   0  0  0  0  0  0  0  0  0  0  0  0
   -0.7478   -2.1790   -1.6791 H   0  0  0  0  0  0  0  0  0  0  0  0
   -0.5377   -1.1459   -3.0778 H   0  0  0  0  0  0  0  0  0  0  0  0
    1.2762   -1.1116   -1.4765 H   0  0  0  0  0  0  0  0  0  0  0  0
    0.5602    0.5131   -2.0594 H   0  0  0  0  0  0  0  0  0  0  0  0
    3.4182    0.4411    1.9565 H   0  0  0  0  0  0  0  0  0  0  0  0
    5.8123    0.2341    1.4779 H   0  0  0  0  0  0  0  0  0  0  0  0
    5.0373   -3.0374   -1.0695 H   0  0  0  0  0  0  0  0  0  0  0  0
    2.6436   -2.8650   -0.6155 H   0  0  0  0  0  0  0  0  0  0  0  0
    4.1495    2.5839   -1.0898 H   0  0  0  0  0  0  0  0  0  0  0  0
    3.6438    4.3541    0.5717 H   0  0  0  0  0  0  0  0  0  0  0  0
   -2.1736    1.8386    1.7193 H   0  0  0  0  0  0  0  0  0  0  0  0
   -1.5306    2.5274    0.1458 H   0  0  0  0  0  0  0  0  0  0  0  0
   -1.1432   -0.1581    1.4915 H   0  0  0  0  0  0  0  0  0  0  0  0
   -1.9270   -2.3111   -0.0715 H   0  0  0  0  0  0  0  0  0  0  0  0
   -2.6824   -1.5300    1.3316 H   0  0  0  0  0  0  0  0  0  0  0  0
   -4.0725   -2.0402   -1.3622 H   0  0  0  0  0  0  0  0  0  0  0  0
   -4.1065   -3.0217    0.1111 H   0  0  0  0  0  0  0  0  0  0  0  0
  1  2  2  0
  2  3  2  0
  2  4  1  0
  4  5  1  0
  5  6  1  0
  6  7  1  0
  7  8  1  0
  8  9  1  0
  9 10  1  0
 10 11  1  1
 11 12  2  0
 11 13  2  0
 11 14  1  0
 14 15  2  0
 15 16  1  0
 16 17  2  0
 17 18  1  0
 17 19  1  0
 19 20  2  0
 10 21  1  0
 21 22  2  0
 22 23  1  0
 22 24  1  0
 24 25  2  0
 25 26  1  0
 26 27  1  0
 26 28  2  0
 28 29  1  0
 29 30  1  0
 30 31  1  0
  6 32  1  0
 32 33  1  0
 33  2  1  0
 31  6  1  0
 31 10  1  0
 20 14  1  0
 28 21  1  0
  4 34  1  0
  4 35  1  0
  5 36  1  0
  5 37  1  0
  7 38  1  0
  7 39  1  0
  8 40  1  0
  8 41  1  0
  9 42  1  0
  9 43  1  0
 15 44  1  0
 16 45  1  0
 19 46  1  0
 20 47  1  0
 24 48  1  0
 25 49  1  0
 30 50  1  0
 30 51  1  0
 31 52  1  1
 32 53  1  0
 32 54  1  0
 33 55  1  0
 33 56  1  0
M  END
$$$$
