
     RDKit          3D

152153  0  0  0  0  0  0  0  0999 V2000
    1.9718   -2.2011   -0.4307 C   0  0  0  0  0  0  0  0  0  0  0  0
    3.2734   -1.7334    0.1954 C   0  0  0  0  0  0  0  0  0  0  0  0
    3.0874   -0.8908    1.4118 C   0  0  2  0  0  0  0  0  0  0  0  0
    2.3069   -1.5519    2.5195 C   0  0  0  0  0  0  0  0  0  0  0  0
    2.6697    0.5211    1.1857 C   0  0  2  0  0  0  0  0  0  0  0  0
    1.4107    0.5688    0.4108 N   0  0  0  0  0  0  0  0  0  0  0  0
    0.2008    0.9886    1.0343 C   0  0  0  0  0  0  0  0  0  0  0  0
    0.2768    1.2781    2.2519 O   0  0  0  0  0  0  0  0  0  0  0  0
   -1.1105    1.1110    0.3504 C   0  0  0  0  0  0  0  0  0  0  0  0
   -2.2872    1.2945    1.2122 C   0  0  2  0  0  0  0  0  0  0  0  0
   -2.0014    2.3995    2.0500 O   0  0  0  0  0  0  0  0  0  0  0  0
   -3.1171    0.2421    1.7407 C   0  0  2  0  0  0  0  0  0  0  0  0
   -2.8907   -0.4333    3.0246 C   0  0  0  0  0  0  0  0  0  0  0  0
   -1.7206   -1.2143    3.3565 C   0  0  0  0  0  0  0  0  0  0  0  0
   -1.9220   -1.7547    4.8058 C   0  0  0  0  0  0  0  0  0  0  0  0
   -1.5041   -2.4737    2.5469 C   0  0  0  0  0  0  0  0  0  0  0  0
   -3.4472   -0.7846    0.6962 N   0  0  0  0  0  0  0  0  0  0  0  0
   -4.7836   -1.2056    0.4885 C   0  0  0  0  0  0  0  0  0  0  0  0
   -5.7028   -0.6941    1.2300 O   0  0  0  0  0  0  0  0  0  0  0  0
   -5.1376   -2.1891   -0.5156 C   0  0  2  0  0  0  0  0  0  0  0  0
   -4.6132   -2.1737   -1.8772 C   0  0  0  0  0  0  0  0  0  0  0  0
   -4.7868   -1.1434   -2.8752 C   0  0  0  0  0  0  0  0  0  0  0  0
   -4.2911    0.2097   -2.7493 C   0  0  0  0  0  0  0  0  0  0  0  0
   -4.8008    1.2201   -3.6441 N   0  0  0  0  0  0  0  0  0  0  0  0
   -3.4437    0.5880   -1.9230 O   0  0  0  0  0  0  0  0  0  0  0  0
   -6.4904   -2.6567   -0.3837 N   0  0  0  0  0  0  0  0  0  0  0  0
   -6.5610   -4.0235    0.2720 C   0  0  0  0  0  0  0  0  0  0  0  0
   -7.6933   -2.1245   -0.7272 C   0  0  0  0  0  0  0  0  0  0  0  0
   -8.7162   -2.9223   -0.3885 O   0  0  0  0  0  0  0  0  0  0  0  0
   -8.1947   -0.9012   -1.3824 C   0  0  2  0  0  0  0  0  0  0  0  0
   -7.6279    0.3886   -0.9952 C   0  0  0  0  0  0  0  0  0  0  0  0
   -8.0466    1.6372   -1.6758 C   0  0  0  0  0  0  0  0  0  0  0  0
   -9.4393    2.0962   -1.6380 C   0  0  0  0  0  0  0  0  0  0  0  0
   -7.0765    2.7304   -1.1479 C   0  0  0  0  0  0  0  0  0  0  0  0
   -9.6702   -0.9080   -1.3540 N   0  0  0  0  0  0  0  0  0  0  0  0
  -10.4170   -1.0671   -0.1436 C   0  0  0  0  0  0  0  0  0  0  0  0
   -9.7714   -1.1971    0.9650 O   0  0  0  0  0  0  0  0  0  0  0  0
  -11.8767   -1.0851   -0.1754 C   0  0  2  0  0  0  0  0  0  0  0  0
  -12.2382   -1.2798   -1.5620 O   0  0  0  0  0  0  0  0  0  0  0  0
  -12.5801    0.1278    0.2120 C   0  0  1  0  0  0  0  0  0  0  0  0
  -14.1219   -0.1176    0.1251 C   0  0  0  0  0  0  0  0  0  0  0  0
  -12.2765    0.9341    1.4083 C   0  0  0  0  0  0  0  0  0  0  0  0
  -10.9520    1.6086    1.5209 C   0  0  0  0  0  0  0  0  0  0  0  0
    3.7347    1.2907    0.4963 C   0  0  0  0  0  0  0  0  0  0  0  0
    3.7991    1.2758   -0.7351 O   0  0  0  0  0  0  0  0  0  0  0  0
    4.6831    2.0796    1.2194 N   0  0  0  0  0  0  0  0  0  0  0  0
    5.7079    2.8898    0.7036 C   0  0  0  0  0  0  0  0  0  0  0  0
    6.8680    2.2986    0.0946 C   0  0  0  0  0  0  0  0  0  0  0  0
    7.6583    3.1820   -0.5019 O   0  0  0  0  0  0  0  0  0  0  0  0
    7.3427    0.9853    0.0102 N   0  0  0  0  0  0  0  0  0  0  0  0
    6.6713   -0.0881    0.6612 C   0  0  0  0  0  0  0  0  0  0  0  0
    8.5691    0.7533   -0.8027 C   0  0  2  0  0  0  0  0  0  0  0  0
    8.2901   -0.2777   -1.8349 C   0  0  0  0  0  0  0  0  0  0  0  0
    9.4112   -0.6348   -2.7300 C   0  0  0  0  0  0  0  0  0  0  0  0
    9.6264   -0.0065   -3.9375 C   0  0  0  0  0  0  0  0  0  0  0  0
   10.6444   -0.3255   -4.7954 C   0  0  0  0  0  0  0  0  0  0  0  0
   11.4937   -1.3381   -4.4102 C   0  0  0  0  0  0  0  0  0  0  0  0
   11.3005   -1.9831   -3.2074 C   0  0  0  0  0  0  0  0  0  0  0  0
   10.2730   -1.6502   -2.3581 C   0  0  0  0  0  0  0  0  0  0  0  0
    9.6990    0.4249    0.1086 C   0  0  0  0  0  0  0  0  0  0  0  0
    9.4788   -0.2990    1.1055 O   0  0  0  0  0  0  0  0  0  0  0  0
   11.0190    0.8988   -0.0972 N   0  0  0  0  0  0  0  0  0  0  0  0
   11.4223    1.7639   -1.1847 C   0  0  0  0  0  0  0  0  0  0  0  0
   12.7716    1.1888   -1.5675 C   0  0  0  0  0  0  0  0  0  0  0  0
   13.3070    0.5815   -0.2881 C   0  0  0  0  0  0  0  0  0  0  0  0
   12.1772    0.6554    0.7053 C   0  0  1  0  0  0  0  0  0  0  0  0
   12.4393    1.8525    1.5881 C   0  0  0  0  0  0  0  0  0  0  0  0
   11.6484    2.8585    1.5175 O   0  0  0  0  0  0  0  0  0  0  0  0
   13.4846    1.9379    2.4738 O   0  0  0  0  0  0  0  0  0  0  0  0
   13.6867    3.0922    3.2780 C   0  0  0  0  0  0  0  0  0  0  0  0
    1.1024   -1.8526    0.1609 H   0  0  0  0  0  0  0  0  0  0  0  0
    1.9047   -1.8257   -1.4507 H   0  0  0  0  0  0  0  0  0  0  0  0
    1.9793   -3.3155   -0.5096 H   0  0  0  0  0  0  0  0  0  0  0  0
    3.9069   -2.6231    0.3732 H   0  0  0  0  0  0  0  0  0  0  0  0
    3.7936   -1.1726   -0.6231 H   0  0  0  0  0  0  0  0  0  0  0  0
    4.1632   -0.8642    1.8715 H   0  0  0  0  0  0  0  0  0  0  0  0
    1.2130   -1.5405    2.3505 H   0  0  0  0  0  0  0  0  0  0  0  0
    2.6809   -2.5731    2.7501 H   0  0  0  0  0  0  0  0  0  0  0  0
    2.4750   -0.9592    3.4651 H   0  0  0  0  0  0  0  0  0  0  0  0
    2.4242    0.9896    2.1749 H   0  0  0  0  0  0  0  0  0  0  0  0
    1.3959    0.3222   -0.5803 H   0  0  0  0  0  0  0  0  0  0  0  0
   -0.9894    2.0393   -0.2834 H   0  0  0  0  0  0  0  0  0  0  0  0
   -1.2312    0.3074   -0.4235 H   0  0  0  0  0  0  0  0  0  0  0  0
   -3.0331    1.8620    0.4546 H   0  0  0  0  0  0  0  0  0  0  0  0
   -1.3028    2.9680    1.6832 H   0  0  0  0  0  0  0  0  0  0  0  0
   -4.1646    0.7128    1.8978 H   0  0  0  0  0  0  0  0  0  0  0  0
   -3.8001   -1.1113    3.1798 H   0  0  0  0  0  0  0  0  0  0  0  0
   -3.0776    0.3484    3.8268 H   0  0  0  0  0  0  0  0  0  0  0  0
   -0.7405   -0.7301    3.4491 H   0  0  0  0  0  0  0  0  0  0  0  0
   -1.6857   -0.9794    5.5373 H   0  0  0  0  0  0  0  0  0  0  0  0
   -1.3212   -2.6776    4.9388 H   0  0  0  0  0  0  0  0  0  0  0  0
   -2.9888   -2.0500    4.8398 H   0  0  0  0  0  0  0  0  0  0  0  0
   -2.3296   -3.1796    2.5721 H   0  0  0  0  0  0  0  0  0  0  0  0
   -0.6403   -2.9997    3.0595 H   0  0  0  0  0  0  0  0  0  0  0  0
   -1.1094   -2.2131    1.5686 H   0  0  0  0  0  0  0  0  0  0  0  0
   -2.7046   -1.1843    0.1269 H   0  0  0  0  0  0  0  0  0  0  0  0
   -4.5413   -3.1538   -0.0606 H   0  0  0  0  0  0  0  0  0  0  0  0
   -3.4891   -2.4273   -1.7820 H   0  0  0  0  0  0  0  0  0  0  0  0
   -4.9701   -3.1762   -2.3416 H   0  0  0  0  0  0  0  0  0  0  0  0
   -5.8626   -1.0865   -3.2764 H   0  0  0  0  0  0  0  0  0  0  0  0
   -4.2927   -1.5883   -3.8440 H   0  0  0  0  0  0  0  0  0  0  0  0
   -4.8477    2.1914   -3.2858 H   0  0  0  0  0  0  0  0  0  0  0  0
   -5.0955    0.9360   -4.5903 H   0  0  0  0  0  0  0  0  0  0  0  0
   -6.3794   -3.9389    1.3406 H   0  0  0  0  0  0  0  0  0  0  0  0
   -7.5235   -4.4847    0.0854 H   0  0  0  0  0  0  0  0  0  0  0  0
   -5.7716   -4.6562   -0.1714 H   0  0  0  0  0  0  0  0  0  0  0  0
   -7.9850   -1.0861   -2.4874 H   0  0  0  0  0  0  0  0  0  0  0  0
   -6.5205    0.3346   -1.1047 H   0  0  0  0  0  0  0  0  0  0  0  0
   -7.7361    0.5534    0.1495 H   0  0  0  0  0  0  0  0  0  0  0  0
   -7.7579    1.6035   -2.7847 H   0  0  0  0  0  0  0  0  0  0  0  0
   -9.5053    2.8455   -0.7679 H   0  0  0  0  0  0  0  0  0  0  0  0
  -10.2264    1.3676   -1.5118 H   0  0  0  0  0  0  0  0  0  0  0  0
   -9.6620    2.7903   -2.5189 H   0  0  0  0  0  0  0  0  0  0  0  0
   -7.2881    2.8141   -0.0539 H   0  0  0  0  0  0  0  0  0  0  0  0
   -7.1747    3.6686   -1.6877 H   0  0  0  0  0  0  0  0  0  0  0  0
   -6.0680    2.2791   -1.2384 H   0  0  0  0  0  0  0  0  0  0  0  0
  -10.2127   -0.8098   -2.2344 H   0  0  0  0  0  0  0  0  0  0  0  0
  -12.2949   -1.9627    0.3857 H   0  0  0  0  0  0  0  0  0  0  0  0
  -11.7614   -2.0658   -1.8998 H   0  0  0  0  0  0  0  0  0  0  0  0
  -12.4755    0.9000   -0.6633 H   0  0  0  0  0  0  0  0  0  0  0  0
  -14.5766    0.8848    0.2417 H   0  0  0  0  0  0  0  0  0  0  0  0
  -14.3987   -0.8063    0.9309 H   0  0  0  0  0  0  0  0  0  0  0  0
  -14.2929   -0.4703   -0.8971 H   0  0  0  0  0  0  0  0  0  0  0  0
  -13.0838    1.7337    1.5321 H   0  0  0  0  0  0  0  0  0  0  0  0
  -12.4175    0.2548    2.3160 H   0  0  0  0  0  0  0  0  0  0  0  0
  -10.1628    1.2146    0.8849 H   0  0  0  0  0  0  0  0  0  0  0  0
  -11.1077    2.7186    1.2300 H   0  0  0  0  0  0  0  0  0  0  0  0
  -10.5656    1.6113    2.5890 H   0  0  0  0  0  0  0  0  0  0  0  0
    4.5551    2.0098    2.2771 H   0  0  0  0  0  0  0  0  0  0  0  0
    6.0527    3.6314    1.5306 H   0  0  0  0  0  0  0  0  0  0  0  0
    5.2237    3.6138   -0.0835 H   0  0  0  0  0  0  0  0  0  0  0  0
    6.1759    0.2630    1.6160 H   0  0  0  0  0  0  0  0  0  0  0  0
    7.3159   -0.9269    1.0009 H   0  0  0  0  0  0  0  0  0  0  0  0
    5.8855   -0.5339    0.0389 H   0  0  0  0  0  0  0  0  0  0  0  0
    8.8156    1.7182   -1.2601 H   0  0  0  0  0  0  0  0  0  0  0  0
    7.4539    0.0336   -2.5281 H   0  0  0  0  0  0  0  0  0  0  0  0
    7.9047   -1.2412   -1.4025 H   0  0  0  0  0  0  0  0  0  0  0  0
    8.9470    0.8074   -4.2476 H   0  0  0  0  0  0  0  0  0  0  0  0
   10.7427    0.2241   -5.7360 H   0  0  0  0  0  0  0  0  0  0  0  0
   12.3035   -1.5947   -5.0879 H   0  0  0  0  0  0  0  0  0  0  0  0
   11.9778   -2.7737   -2.9247 H   0  0  0  0  0  0  0  0  0  0  0  0
   10.1607   -2.1889   -1.4177 H   0  0  0  0  0  0  0  0  0  0  0  0
   10.7312    1.8174   -2.0240 H   0  0  0  0  0  0  0  0  0  0  0  0
   11.5757    2.8251   -0.8025 H   0  0  0  0  0  0  0  0  0  0  0  0
   13.4632    1.9721   -1.9367 H   0  0  0  0  0  0  0  0  0  0  0  0
   12.6462    0.3778   -2.2889 H   0  0  0  0  0  0  0  0  0  0  0  0
   14.1803    1.1825    0.0735 H   0  0  0  0  0  0  0  0  0  0  0  0
   13.5865   -0.4892   -0.3960 H   0  0  0  0  0  0  0  0  0  0  0  0
   12.1155   -0.2562    1.3408 H   0  0  0  0  0  0  0  0  0  0  0  0
   13.0648    3.0416    4.2042 H   0  0  0  0  0  0  0  0  0  0  0  0
   13.3807    4.0283    2.7697 H   0  0  0  0  0  0  0  0  0  0  0  0
   14.7745    3.1476    3.5525 H   0  0  0  0  0  0  0  0  0  0  0  0
  1  2  1  0
  2  3  1  0
  3  4  1  0
  3  5  1  0
  5  6  1  0
  6  7  1  0
  7  8  2  0
  7  9  1  0
  9 10  1  0
 10 11  1  0
 10 12  1  0
 12 13  1  0
 13 14  1  0
 14 15  1  0
 14 16  1  0
 12 17  1  0
 17 18  1  0
 18 19  2  0
 18 20  1  0
 20 21  1  0
 21 22  1  0
 22 23  1  0
 23 24  1  0
 23 25  2  0
 20 26  1  0
 26 27  1  0
 26 28  1  0
 28 29  2  0
 28 30  1  0
 30 31  1  0
 31 32  1  0
 32 33  1  0
 32 34  1  0
 30 35  1  0
 35 36  1  0
 36 37  2  0
 36 38  1  0
 38 39  1  0
 38 40  1  0
 40 41  1  0
 40 42  1  0
 42 43  1  0
  5 44  1  0
 44 45  2  0
 44 46  1  0
 46 47  1  0
 47 48  1  0
 48 49  2  0
 48 50  1  0
 50 51  1  0
 50 52  1  0
 52 53  1  0
 53 54  1  0
 54 55  2  0
 55 56  1  0
 56 57  2  0
 57 58  1  0
 58 59  2  0
 52 60  1  0
 60 61  2  0
 60 62  1  0
 62 63  1  0
 63 64  1  0
 64 65  1  0
 65 66  1  0
 66 67  1  0
 67 68  2  0
 67 69  1  0
 69 70  1  0
 59 54  1  0
 66 62  1  0
  1 71  1  0
  1 72  1  0
  1 73  1  0
  2 74  1  0
  2 75  1  0
  3 76  1  1
  4 77  1  0
  4 78  1  0
  4 79  1  0
  5 80  1  1
  6 81  1  0
  9 82  1  0
  9 83  1  0
 10 84  1  6
 11 85  1  0
 12 86  1  1
 13 87  1  0
 13 88  1  0
 14 89  1  0
 15 90  1  0
 15 91  1  0
 15 92  1  0
 16 93  1  0
 16 94  1  0
 16 95  1  0
 17 96  1  0
 20 97  1  1
 21 98  1  0
 21 99  1  0
 22100  1  0
 22101  1  0
 24102  1  0
 24103  1  0
 27104  1  0
 27105  1  0
 27106  1  0
 30107  1  6
 31108  1  0
 31109  1  0
 32110  1  0
 33111  1  0
 33112  1  0
 33113  1  0
 34114  1  0
 34115  1  0
 34116  1  0
 35117  1  0
 38118  1  1
 39119  1  0
 40120  1  6
 41121  1  0
 41122  1  0
 41123  1  0
 42124  1  0
 42125  1  0
 43126  1  0
 43127  1  0
 43128  1  0
 46129  1  0
 47130  1  0
 47131  1  0
 51132  1  0
 51133  1  0
 51134  1  0
 52135  1  6
 53136  1  0
 53137  1  0
 55138  1  0
 56139  1  0
 57140  1  0
 58141  1  0
 59142  1  0
 63143  1  0
 63144  1  0
 64145  1  0
 64146  1  0
 65147  1  0
 65148  1  0
 66149  1  1
 70150  1  0
 70151  1  0
 70152  1  0
M  END
$$$$
