@<TRIPOS>MOLECULE
*****
 152 153 0 0 0
SMALL
GASTEIGER

@<TRIPOS>ATOM
      1 C           1.9718   -2.2011   -0.4307 C.3     1  UNL1       -0.0650
      2 C           3.2734   -1.7334    0.1954 C.3     1  UNL1       -0.0512
      3 C           3.0874   -0.8908    1.4118 C.3     1  UNL1       -0.0171
      4 C           2.3069   -1.5519    2.5195 C.3     1  UNL1       -0.0603
      5 C           2.6697    0.5211    1.1857 C.3     1  UNL1        0.1019
      6 N           1.4107    0.5688    0.4108 N.am    1  UNL1       -0.3037
      7 C           0.2008    0.9886    1.0343 C.2     1  UNL1        0.2161
      8 O           0.2768    1.2781    2.2519 O.2     1  UNL1       -0.2757
      9 C          -1.1105    1.1110    0.3504 C.3     1  UNL1        0.0517
     10 C          -2.2872    1.2945    1.2122 C.3     1  UNL1        0.0817
     11 O          -2.0014    2.3995    2.0500 O.3     1  UNL1       -0.3895
     12 C          -3.1171    0.2421    1.7407 C.3     1  UNL1        0.0498
     13 C          -2.8907   -0.4333    3.0246 C.3     1  UNL1       -0.0297
     14 C          -1.7206   -1.2143    3.3565 C.3     1  UNL1       -0.0450
     15 C          -1.9220   -1.7547    4.8058 C.3     1  UNL1       -0.0626
     16 C          -1.5041   -2.4737    2.5469 C.3     1  UNL1       -0.0626
     17 N          -3.4472   -0.7846    0.6962 N.am    1  UNL1       -0.3084
     18 C          -4.7836   -1.2056    0.4885 C.2     1  UNL1        0.2339
     19 O          -5.7028   -0.6941    1.2300 O.2     1  UNL1       -0.2738
     20 C          -5.1376   -2.1891   -0.5156 C.3     1  UNL1        0.1023
     21 C          -4.6132   -2.1737   -1.8772 C.3     1  UNL1       -0.0175
     22 C          -4.7868   -1.1434   -2.8752 C.3     1  UNL1        0.0259
     23 C          -4.2911    0.2097   -2.7493 C.2     1  UNL1        0.2106
     24 N          -4.8008    1.2201   -3.6441 N.am    1  UNL1       -0.3293
     25 O          -3.4437    0.5880   -1.9230 O.2     1  UNL1       -0.2760
     26 N          -6.4904   -2.6567   -0.3837 N.am    1  UNL1       -0.2914
     27 C          -6.5610   -4.0235    0.2720 C.3     1  UNL1        0.0040
     28 C          -7.6933   -2.1245   -0.7272 C.2     1  UNL1        0.2363
     29 O          -8.7162   -2.9223   -0.3885 O.2     1  UNL1       -0.2736
     30 C          -8.1947   -0.9012   -1.3824 C.3     1  UNL1        0.0999
     31 C          -7.6279    0.3886   -0.9952 C.3     1  UNL1       -0.0236
     32 C          -8.0466    1.6372   -1.6758 C.3     1  UNL1       -0.0446
     33 C          -9.4393    2.0962   -1.6380 C.3     1  UNL1       -0.0626
     34 C          -7.0765    2.7304   -1.1479 C.3     1  UNL1       -0.0626
     35 N          -9.6702   -0.9080   -1.3540 N.am    1  UNL1       -0.3019
     36 C         -10.4170   -1.0671   -0.1436 C.2     1  UNL1        0.2425
     37 O          -9.7714   -1.1971    0.9650 O.2     1  UNL1       -0.2730
     38 C         -11.8767   -1.0851   -0.1754 C.3     1  UNL1        0.1334
     39 O         -12.2382   -1.2798   -1.5620 O.3     1  UNL1       -0.3823
     40 C         -12.5801    0.1278    0.2120 C.3     1  UNL1       -0.0095
     41 C         -14.1219   -0.1176    0.1251 C.3     1  UNL1       -0.0596
     42 C         -12.2765    0.9341    1.4083 C.3     1  UNL1       -0.0505
     43 C         -10.9520    1.6086    1.5209 C.3     1  UNL1       -0.0649
     44 C           3.7347    1.2907    0.4963 C.2     1  UNL1        0.2340
     45 O           3.7991    1.2758   -0.7351 O.2     1  UNL1       -0.2738
     46 N           4.6831    2.0796    1.2194 N.am    1  UNL1       -0.3052
     47 C           5.7079    2.8898    0.7036 C.3     1  UNL1        0.0884
     48 C           6.8680    2.2986    0.0946 C.2     1  UNL1        0.2331
     49 O           7.6583    3.1820   -0.5019 O.2     1  UNL1       -0.2739
     50 N           7.3427    0.9853    0.0102 N.am    1  UNL1       -0.2914
     51 C           6.6713   -0.0881    0.6612 C.3     1  UNL1        0.0040
     52 C           8.5691    0.7533   -0.8027 C.3     1  UNL1        0.1060
     53 C           8.2901   -0.2777   -1.8349 C.3     1  UNL1       -0.0005
     54 C           9.4112   -0.6348   -2.7300 C.ar    1  UNL1       -0.0451
     55 C           9.6264   -0.0065   -3.9375 C.ar    1  UNL1       -0.0585
     56 C          10.6444   -0.3255   -4.7954 C.ar    1  UNL1       -0.0615
     57 C          11.4937   -1.3381   -4.4102 C.ar    1  UNL1       -0.0617
     58 C          11.3005   -1.9831   -3.2074 C.ar    1  UNL1       -0.0615
     59 C          10.2730   -1.6502   -2.3581 C.ar    1  UNL1       -0.0585
     60 C           9.6990    0.4249    0.1086 C.2     1  UNL1        0.2371
     61 O           9.4788   -0.2990    1.1055 O.2     1  UNL1       -0.2735
     62 N          11.0190    0.8988   -0.0972 N.am    1  UNL1       -0.2865
     63 C          11.4223    1.7639   -1.1847 C.3     1  UNL1        0.0157
     64 C          12.7716    1.1888   -1.5675 C.3     1  UNL1       -0.0349
     65 C          13.3070    0.5815   -0.2881 C.3     1  UNL1       -0.0225
     66 C          12.1772    0.6554    0.7053 C.3     1  UNL1        0.1230
     67 C          12.4393    1.8525    1.5881 C.2     1  UNL1        0.3276
     68 O          11.6484    2.8585    1.5175 O.2     1  UNL1       -0.2487
     69 O          13.4846    1.9379    2.4738 O.3     1  UNL1       -0.4666
     70 C          13.6867    3.0922    3.2780 C.3     1  UNL1        0.0817
     71 H           1.1024   -1.8526    0.1609 H       1  UNL1        0.0230
     72 H           1.9047   -1.8257   -1.4507 H       1  UNL1        0.0230
     73 H           1.9793   -3.3155   -0.5096 H       1  UNL1        0.0230
     74 H           3.9069   -2.6231    0.3732 H       1  UNL1        0.0266
     75 H           3.7936   -1.1726   -0.6231 H       1  UNL1        0.0266
     76 H           4.1632   -0.8642    1.8715 H       1  UNL1        0.0321
     77 H           1.2130   -1.5405    2.3505 H       1  UNL1        0.0233
     78 H           2.6809   -2.5731    2.7501 H       1  UNL1        0.0233
     79 H           2.4750   -0.9592    3.4651 H       1  UNL1        0.0233
     80 H           2.4242    0.9896    2.1749 H       1  UNL1        0.0597
     81 H           1.3959    0.3222   -0.5803 H       1  UNL1        0.1495
     82 H          -0.9894    2.0393   -0.2834 H       1  UNL1        0.0384
     83 H          -1.2312    0.3074   -0.4235 H       1  UNL1        0.0384
     84 H          -3.0331    1.8620    0.4546 H       1  UNL1        0.0616
     85 H          -1.3028    2.9680    1.6832 H       1  UNL1        0.2099
     86 H          -4.1646    0.7128    1.8978 H       1  UNL1        0.0524
     87 H          -3.8001   -1.1113    3.1798 H       1  UNL1        0.0286
     88 H          -3.0776    0.3484    3.8268 H       1  UNL1        0.0286
     89 H          -0.7405   -0.7301    3.4491 H       1  UNL1        0.0296
     90 H          -1.6857   -0.9794    5.5373 H       1  UNL1        0.0232
     91 H          -1.3212   -2.6776    4.9388 H       1  UNL1        0.0232
     92 H          -2.9888   -2.0500    4.8398 H       1  UNL1        0.0232
     93 H          -2.3296   -3.1796    2.5721 H       1  UNL1        0.0232
     94 H          -0.6403   -2.9997    3.0595 H       1  UNL1        0.0232
     95 H          -1.1094   -2.2131    1.5686 H       1  UNL1        0.0232
     96 H          -2.7046   -1.1843    0.1269 H       1  UNL1        0.1491
     97 H          -4.5413   -3.1538   -0.0606 H       1  UNL1        0.0597
     98 H          -3.4891   -2.4273   -1.7820 H       1  UNL1        0.0292
     99 H          -4.9701   -3.1762   -2.3416 H       1  UNL1        0.0292
    100 H          -5.8626   -1.0865   -3.2764 H       1  UNL1        0.0359
    101 H          -4.2927   -1.5883   -3.8440 H       1  UNL1        0.0359
    102 H          -4.8477    2.1914   -3.2858 H       1  UNL1        0.1449
    103 H          -5.0955    0.9360   -4.5903 H       1  UNL1        0.1449
    104 H          -6.3794   -3.9389    1.3406 H       1  UNL1        0.0429
    105 H          -7.5235   -4.4847    0.0854 H       1  UNL1        0.0429
    106 H          -5.7716   -4.6562   -0.1714 H       1  UNL1        0.0429
    107 H          -7.9850   -1.0861   -2.4874 H       1  UNL1        0.0595
    108 H          -6.5205    0.3346   -1.1047 H       1  UNL1        0.0290
    109 H          -7.7361    0.5534    0.1495 H       1  UNL1        0.0290
    110 H          -7.7579    1.6035   -2.7847 H       1  UNL1        0.0296
    111 H          -9.5053    2.8455   -0.7679 H       1  UNL1        0.0232
    112 H         -10.2264    1.3676   -1.5118 H       1  UNL1        0.0232
    113 H          -9.6620    2.7903   -2.5189 H       1  UNL1        0.0232
    114 H          -7.2881    2.8141   -0.0539 H       1  UNL1        0.0232
    115 H          -7.1747    3.6686   -1.6877 H       1  UNL1        0.0232
    116 H          -6.0680    2.2791   -1.2384 H       1  UNL1        0.0232
    117 H         -10.2127   -0.8098   -2.2344 H       1  UNL1        0.1495
    118 H         -12.2949   -1.9627    0.3857 H       1  UNL1        0.0693
    119 H         -11.7614   -2.0658   -1.8998 H       1  UNL1        0.2104
    120 H         -12.4755    0.9000   -0.6633 H       1  UNL1        0.0328
    121 H         -14.5766    0.8848    0.2417 H       1  UNL1        0.0233
    122 H         -14.3987   -0.8063    0.9309 H       1  UNL1        0.0233
    123 H         -14.2929   -0.4703   -0.8971 H       1  UNL1        0.0233
    124 H         -13.0838    1.7337    1.5321 H       1  UNL1        0.0266
    125 H         -12.4175    0.2548    2.3160 H       1  UNL1        0.0266
    126 H         -10.1628    1.2146    0.8849 H       1  UNL1        0.0230
    127 H         -11.1077    2.7186    1.2300 H       1  UNL1        0.0230
    128 H         -10.5656    1.6113    2.5890 H       1  UNL1        0.0230
    129 H           4.5551    2.0098    2.2771 H       1  UNL1        0.1492
    130 H           6.0527    3.6314    1.5306 H       1  UNL1        0.0558
    131 H           5.2237    3.6138   -0.0835 H       1  UNL1        0.0558
    132 H           6.1759    0.2630    1.6160 H       1  UNL1        0.0429
    133 H           7.3159   -0.9269    1.0009 H       1  UNL1        0.0429
    134 H           5.8855   -0.5339    0.0389 H       1  UNL1        0.0429
    135 H           8.8156    1.7182   -1.2601 H       1  UNL1        0.0600
    136 H           7.4539    0.0336   -2.5281 H       1  UNL1        0.0336
    137 H           7.9047   -1.2412   -1.4025 H       1  UNL1        0.0336
    138 H           8.9470    0.8074   -4.2476 H       1  UNL1        0.0620
    139 H          10.7427    0.2241   -5.7360 H       1  UNL1        0.0618
    140 H          12.3035   -1.5947   -5.0879 H       1  UNL1        0.0618
    141 H          11.9778   -2.7737   -2.9247 H       1  UNL1        0.0618
    142 H          10.1607   -2.1889   -1.4177 H       1  UNL1        0.0620
    143 H          10.7312    1.8174   -2.0240 H       1  UNL1        0.0465
    144 H          11.5757    2.8251   -0.8025 H       1  UNL1        0.0465
    145 H          13.4632    1.9721   -1.9367 H       1  UNL1        0.0281
    146 H          12.6462    0.3778   -2.2889 H       1  UNL1        0.0281
    147 H          14.1803    1.1825    0.0735 H       1  UNL1        0.0289
    148 H          13.5865   -0.4892   -0.3960 H       1  UNL1        0.0289
    149 H          12.1155   -0.2562    1.3408 H       1  UNL1        0.0616
    150 H          13.0648    3.0416    4.2042 H       1  UNL1        0.0661
    151 H          13.3807    4.0283    2.7697 H       1  UNL1        0.0661
    152 H          14.7745    3.1476    3.5525 H       1  UNL1        0.0661
@<TRIPOS>BOND
     1     1     2    1
     2     2     3    1
     3     3     4    1
     4     3     5    1
     5     5     6    1
     6     6     7   am
     7     7     8    2
     8     7     9    1
     9     9    10    1
    10    10    11    1
    11    10    12    1
    12    12    13    1
    13    13    14    1
    14    14    15    1
    15    14    16    1
    16    12    17    1
    17    17    18   am
    18    18    19    2
    19    18    20    1
    20    20    21    1
    21    21    22    1
    22    22    23    1
    23    23    24   am
    24    23    25    2
    25    20    26    1
    26    26    27    1
    27    26    28   am
    28    28    29    2
    29    28    30    1
    30    30    31    1
    31    31    32    1
    32    32    33    1
    33    32    34    1
    34    30    35    1
    35    35    36   am
    36    36    37    2
    37    36    38    1
    38    38    39    1
    39    38    40    1
    40    40    41    1
    41    40    42    1
    42    42    43    1
    43     5    44    1
    44    44    45    2
    45    44    46   am
    46    46    47    1
    47    47    48    1
    48    48    49    2
    49    48    50   am
    50    50    51    1
    51    50    52    1
    52    52    53    1
    53    53    54    1
    54    54    55   ar
    55    55    56   ar
    56    56    57   ar
    57    57    58   ar
    58    58    59   ar
    59    52    60    1
    60    60    61    2
    61    60    62   am
    62    62    63    1
    63    63    64    1
    64    64    65    1
    65    65    66    1
    66    66    67    1
    67    67    68    2
    68    67    69    1
    69    69    70    1
    70    59    54   ar
    71    66    62    1
    72     1    71    1
    73     1    72    1
    74     1    73    1
    75     2    74    1
    76     2    75    1
    77     3    76    1
    78     4    77    1
    79     4    78    1
    80     4    79    1
    81     5    80    1
    82     6    81    1
    83     9    82    1
    84     9    83    1
    85    10    84    1
    86    11    85    1
    87    12    86    1
    88    13    87    1
    89    13    88    1
    90    14    89    1
    91    15    90    1
    92    15    91    1
    93    15    92    1
    94    16    93    1
    95    16    94    1
    96    16    95    1
    97    17    96    1
    98    20    97    1
    99    21    98    1
   100    21    99    1
   101    22   100    1
   102    22   101    1
   103    24   102    1
   104    24   103    1
   105    27   104    1
   106    27   105    1
   107    27   106    1
   108    30   107    1
   109    31   108    1
   110    31   109    1
   111    32   110    1
   112    33   111    1
   113    33   112    1
   114    33   113    1
   115    34   114    1
   116    34   115    1
   117    34   116    1
   118    35   117    1
   119    38   118    1
   120    39   119    1
   121    40   120    1
   122    41   121    1
   123    41   122    1
   124    41   123    1
   125    42   124    1
   126    42   125    1
   127    43   126    1
   128    43   127    1
   129    43   128    1
   130    46   129    1
   131    47   130    1
   132    47   131    1
   133    51   132    1
   134    51   133    1
   135    51   134    1
   136    52   135    1
   137    53   136    1
   138    53   137    1
   139    55   138    1
   140    56   139    1
   141    57   140    1
   142    58   141    1
   143    59   142    1
   144    63   143    1
   145    63   144    1
   146    64   145    1
   147    64   146    1
   148    65   147    1
   149    65   148    1
   150    66   149    1
   151    70   150    1
   152    70   151    1
   153    70   152    1
