@<TRIPOS>MOLECULE
*****
 126 133 0 0 0
SMALL
GASTEIGER

@<TRIPOS>ATOM
      1 C           9.3916   -3.8101    2.1785 C.3     1  UNL1       -0.0437
      2 C           9.9388   -2.7187    1.3375 C.2     1  UNL1       -0.0739
      3 C          11.1279   -2.2114    1.5766 C.2     1  UNL1       -0.0812
      4 C          11.3163   -0.7696    1.2888 C.3     1  UNL1       -0.0122
      5 C          12.0280   -0.4562    0.0217 C.3     1  UNL1       -0.0055
      6 C          11.0896   -0.1558   -1.0956 C.ar    1  UNL1        0.0248
      7 N          11.6778    0.2271   -2.2511 N.ar    1  UNL1       -0.3259
      8 C          10.9210    0.4862   -3.3301 C.ar    1  UNL1        0.2489
      9 O          11.4969    0.8427   -4.3945 O.2     1  UNL1       -0.2679
     10 C           9.5531    0.3788   -3.3187 C.ar    1  UNL1        0.0031
     11 C           8.9493   -0.0163   -2.1254 C.ar    1  UNL1       -0.0498
     12 C           9.7400   -0.2701   -1.0492 C.ar    1  UNL1       -0.0039
     13 C           9.0950   -0.7052    0.2401 C.3     1  UNL1        0.0710
     14 C           9.1330   -2.2067    0.2089 C.3     1  UNL1       -0.0059
     15 C           9.9596   -0.1433    1.3651 C.3     1  UNL1       -0.0083
     16 C          10.0569    1.3313    1.2371 C.3     1  UNL1       -0.0460
     17 C           8.7254    2.0416    1.2340 C.3     1  UNL1       -0.0368
     18 C           7.7531    1.3583    0.2978 C.3     1  UNL1        0.0156
     19 N           7.8232   -0.0904    0.4220 N.am    1  UNL1       -0.2910
     20 C           6.6338   -0.7581    0.7378 C.2     1  UNL1        0.2175
     21 O           6.4392   -1.9776    0.9093 O.2     1  UNL1       -0.2755
     22 C           5.3530    0.0676    0.9124 C.3     1  UNL1        0.0369
     23 C           4.1651   -0.8061    1.1960 C.3     1  UNL1        0.0069
     24 N           2.9581    0.0140    1.3894 N.3     1  UNL1       -0.3049
     25 C           1.8070   -0.7321    1.6274 C.3     1  UNL1       -0.0127
     26 C           3.0098    1.1910    0.6708 C.3     1  UNL1       -0.0014
     27 C           1.9013    2.1520    0.7807 C.3     1  UNL1       -0.0402
     28 C           0.5692    1.7111    0.3448 C.3     1  UNL1       -0.0519
     29 C           0.5821    1.2255   -1.0994 C.3     1  UNL1       -0.0530
     30 C          -0.8886    0.8783   -1.4177 C.3     1  UNL1       -0.0530
     31 C          -1.0233    0.3377   -2.7884 C.3     1  UNL1       -0.0519
     32 C          -2.3939   -0.0219   -3.2234 C.3     1  UNL1       -0.0402
     33 C          -3.2945    1.1702   -3.2931 C.3     1  UNL1       -0.0014
     34 N          -3.4677    1.8135   -2.0558 N.3     1  UNL1       -0.3049
     35 C          -4.2178    3.0826   -2.2778 C.3     1  UNL1       -0.0127
     36 C          -4.2117    1.0206   -1.1145 C.3     1  UNL1        0.0069
     37 C          -5.6589    0.9211   -1.5437 C.3     1  UNL1        0.0369
     38 C          -6.4448    0.1560   -0.5349 C.2     1  UNL1        0.2175
     39 O          -5.8817   -0.3417    0.4504 O.2     1  UNL1       -0.2755
     40 N          -7.8364    0.0200   -0.7310 N.am    1  UNL1       -0.2910
     41 C          -8.4935    0.5658   -1.9266 C.3     1  UNL1        0.0156
     42 C          -9.7281    1.3534   -1.5744 C.3     1  UNL1       -0.0368
     43 C         -10.7135    0.5318   -0.7868 C.3     1  UNL1       -0.0460
     44 C         -10.0719   -0.8014   -0.4766 C.3     1  UNL1       -0.0083
     45 C         -10.9556   -1.6333    0.4353 C.3     1  UNL1       -0.0122
     46 C         -10.4147   -3.0390    0.3114 C.2     1  UNL1       -0.0812
     47 C          -9.0905   -3.1186    0.3134 C.2     1  UNL1       -0.0739
     48 C          -8.4567   -4.4373   -0.0508 C.3     1  UNL1       -0.0437
     49 C          -8.2447   -1.9741    0.6571 C.3     1  UNL1       -0.0059
     50 C          -8.7250   -0.6320    0.2164 C.3     1  UNL1        0.0710
     51 C          -9.0147    0.2827    1.3609 C.ar    1  UNL1       -0.0039
     52 C          -8.2956    1.4098    1.6147 C.ar    1  UNL1       -0.0498
     53 C          -8.6488    2.2020    2.7064 C.ar    1  UNL1        0.0031
     54 C          -9.7151    1.8219    3.4965 C.ar    1  UNL1        0.2489
     55 O         -10.0261    2.5520    4.4872 O.2     1  UNL1       -0.2679
     56 N         -10.4023    0.7204    3.2314 N.ar    1  UNL1       -0.3259
     57 C         -10.0733   -0.0636    2.1726 C.ar    1  UNL1        0.0248
     58 C         -10.8549   -1.2762    1.8817 C.3     1  UNL1       -0.0055
     59 H           9.9687   -4.7408    1.9031 H       1  UNL1        0.0274
     60 H           9.4756   -3.6163    3.2697 H       1  UNL1        0.0274
     61 H           8.3502   -4.0331    1.8729 H       1  UNL1        0.0274
     62 H          11.9118   -2.8358    1.9719 H       1  UNL1        0.0575
     63 H          11.9131   -0.2998    2.1300 H       1  UNL1        0.0350
     64 H          12.7749    0.3563    0.1538 H       1  UNL1        0.0333
     65 H          12.6053   -1.3630   -0.2886 H       1  UNL1        0.0333
     66 H          12.7097    0.3293   -2.3318 H       1  UNL1        0.1686
     67 H           8.9099    0.5770   -4.1599 H       1  UNL1        0.0672
     68 H           7.8461   -0.1289   -2.1023 H       1  UNL1        0.0623
     69 H           9.7478   -2.5318   -0.7171 H       1  UNL1        0.0334
     70 H           8.2003   -2.7280    0.0497 H       1  UNL1        0.0334
     71 H           9.5297   -0.4013    2.3592 H       1  UNL1        0.0331
     72 H          10.7008    1.7000    0.4342 H       1  UNL1        0.0269
     73 H          10.5723    1.6908    2.1875 H       1  UNL1        0.0269
     74 H           8.8977    3.0603    0.8313 H       1  UNL1        0.0280
     75 H           8.3682    2.1422    2.2590 H       1  UNL1        0.0280
     76 H           6.7417    1.7484    0.5020 H       1  UNL1        0.0465
     77 H           8.0219    1.6693   -0.7083 H       1  UNL1        0.0465
     78 H           5.1670    0.5893   -0.0528 H       1  UNL1        0.0371
     79 H           5.5303    0.7322    1.7715 H       1  UNL1        0.0371
     80 H           4.0146   -1.5068    0.3623 H       1  UNL1        0.0431
     81 H           4.2805   -1.3925    2.1329 H       1  UNL1        0.0431
     82 H           1.1826   -0.9545    0.7312 H       1  UNL1        0.0391
     83 H           1.1474   -0.3785    2.4750 H       1  UNL1        0.0391
     84 H           2.1512   -1.7481    2.0307 H       1  UNL1        0.0391
     85 H           3.2401    0.9326   -0.4092 H       1  UNL1        0.0426
     86 H           3.9738    1.7746    0.9547 H       1  UNL1        0.0426
     87 H           2.1979    3.0733    0.2000 H       1  UNL1        0.0278
     88 H           1.8220    2.4831    1.8744 H       1  UNL1        0.0278
     89 H          -0.0912    2.6532    0.3338 H       1  UNL1        0.0266
     90 H           0.0363    1.0457    1.0271 H       1  UNL1        0.0266
     91 H           0.8695    2.0435   -1.7685 H       1  UNL1        0.0265
     92 H           1.2265    0.3588   -1.2660 H       1  UNL1        0.0265
     93 H          -1.2630    0.1564   -0.6670 H       1  UNL1        0.0265
     94 H          -1.4390    1.8327   -1.3060 H       1  UNL1        0.0265
     95 H          -0.3786   -0.5809   -2.9189 H       1  UNL1        0.0266
     96 H          -0.5532    1.0909   -3.4997 H       1  UNL1        0.0266
     97 H          -2.7784   -0.7936   -2.4964 H       1  UNL1        0.0278
     98 H          -2.3853   -0.5831   -4.2106 H       1  UNL1        0.0278
     99 H          -4.2675    0.8016   -3.7414 H       1  UNL1        0.0426
    100 H          -2.9279    1.8820   -4.0995 H       1  UNL1        0.0426
    101 H          -3.4707    3.8138   -2.5846 H       1  UNL1        0.0391
    102 H          -5.0217    2.9168   -3.0220 H       1  UNL1        0.0391
    103 H          -4.6121    3.3483   -1.2841 H       1  UNL1        0.0391
    104 H          -3.8410   -0.0095   -0.9924 H       1  UNL1        0.0431
    105 H          -4.1400    1.4791   -0.1015 H       1  UNL1        0.0431
    106 H          -5.7289    0.3647   -2.4782 H       1  UNL1        0.0371
    107 H          -6.1027    1.9435   -1.5705 H       1  UNL1        0.0371
    108 H          -7.7629    1.2185   -2.4222 H       1  UNL1        0.0465
    109 H          -8.7273   -0.2543   -2.6444 H       1  UNL1        0.0465
    110 H          -9.4241    2.2760   -1.0332 H       1  UNL1        0.0280
    111 H         -10.1839    1.6742   -2.5292 H       1  UNL1        0.0280
    112 H         -10.9926    1.0993    0.1071 H       1  UNL1        0.0269
    113 H         -11.6089    0.3414   -1.3867 H       1  UNL1        0.0269
    114 H          -9.9155   -1.3408   -1.4101 H       1  UNL1        0.0331
    115 H         -11.9780   -1.6018    0.0494 H       1  UNL1        0.0350
    116 H         -11.0780   -3.8863    0.2319 H       1  UNL1        0.0575
    117 H          -8.3909   -4.4757   -1.1504 H       1  UNL1        0.0274
    118 H          -7.4590   -4.4808    0.3964 H       1  UNL1        0.0274
    119 H          -9.1021   -5.2472    0.3375 H       1  UNL1        0.0274
    120 H          -8.1213   -1.9367    1.7759 H       1  UNL1        0.0334
    121 H          -7.2274   -2.1660    0.2438 H       1  UNL1        0.0334
    122 H          -7.4663    1.7511    1.0250 H       1  UNL1        0.0623
    123 H          -8.0743    3.1052    2.9098 H       1  UNL1        0.0672
    124 H         -11.2026    0.4858    3.8702 H       1  UNL1        0.1686
    125 H         -10.4277   -2.0987    2.5241 H       1  UNL1        0.0333
    126 H         -11.8924   -1.1269    2.3079 H       1  UNL1        0.0333
@<TRIPOS>BOND
     1     1     2    1
     2     2     3    2
     3     3     4    1
     4     4     5    1
     5     5     6    1
     6     6     7   ar
     7     7     8   ar
     8     8     9    2
     9     8    10   ar
    10    10    11   ar
    11    11    12   ar
    12    12    13    1
    13    13    14    1
    14    13    15    1
    15    15    16    1
    16    16    17    1
    17    17    18    1
    18    18    19    1
    19    19    20   am
    20    20    21    2
    21    20    22    1
    22    22    23    1
    23    23    24    1
    24    24    25    1
    25    24    26    1
    26    26    27    1
    27    27    28    1
    28    28    29    1
    29    29    30    1
    30    30    31    1
    31    31    32    1
    32    32    33    1
    33    33    34    1
    34    34    35    1
    35    34    36    1
    36    36    37    1
    37    37    38    1
    38    38    39    2
    39    38    40   am
    40    40    41    1
    41    41    42    1
    42    42    43    1
    43    43    44    1
    44    44    45    1
    45    45    46    1
    46    46    47    2
    47    47    48    1
    48    47    49    1
    49    49    50    1
    50    50    51    1
    51    51    52   ar
    52    52    53   ar
    53    53    54   ar
    54    54    55    2
    55    54    56   ar
    56    56    57   ar
    57    57    58    1
    58    14     2    1
    59    50    40    1
    60    57    51   ar
    61    15     4    1
    62    50    44    1
    63    12     6   ar
    64    13    19    1
    65    58    45    1
    66     1    59    1
    67     1    60    1
    68     1    61    1
    69     3    62    1
    70     4    63    1
    71     5    64    1
    72     5    65    1
    73     7    66    1
    74    10    67    1
    75    11    68    1
    76    14    69    1
    77    14    70    1
    78    15    71    1
    79    16    72    1
    80    16    73    1
    81    17    74    1
    82    17    75    1
    83    18    76    1
    84    18    77    1
    85    22    78    1
    86    22    79    1
    87    23    80    1
    88    23    81    1
    89    25    82    1
    90    25    83    1
    91    25    84    1
    92    26    85    1
    93    26    86    1
    94    27    87    1
    95    27    88    1
    96    28    89    1
    97    28    90    1
    98    29    91    1
    99    29    92    1
   100    30    93    1
   101    30    94    1
   102    31    95    1
   103    31    96    1
   104    32    97    1
   105    32    98    1
   106    33    99    1
   107    33   100    1
   108    35   101    1
   109    35   102    1
   110    35   103    1
   111    36   104    1
   112    36   105    1
   113    37   106    1
   114    37   107    1
   115    41   108    1
   116    41   109    1
   117    42   110    1
   118    42   111    1
   119    43   112    1
   120    43   113    1
   121    44   114    1
   122    45   115    1
   123    46   116    1
   124    48   117    1
   125    48   118    1
   126    48   119    1
   127    49   120    1
   128    49   121    1
   129    52   122    1
   130    53   123    1
   131    56   124    1
   132    58   125    1
   133    58   126    1
