@<TRIPOS>MOLECULE
*****
 69 73 0 0 0
SMALL
GASTEIGER

@<TRIPOS>ATOM
      1 C          10.2086   -1.3582   -1.5090 C.3     1  UNL1        0.0790
      2 O           9.8562   -0.5292   -0.4385 O.3     1  UNL1       -0.4915
      3 C           8.5851   -0.2844    0.0231 C.ar    1  UNL1        0.1616
      4 C           7.4940   -0.8707   -0.5611 C.ar    1  UNL1       -0.0146
      5 C           6.2362   -0.5834   -0.0486 C.ar    1  UNL1       -0.0367
      6 C           6.0439    0.2525    1.0052 C.ar    1  UNL1        0.0401
      7 N           4.8153    0.5982    1.5905 N.am    1  UNL1       -0.2507
      8 C           3.5402    0.1365    1.2031 C.2     1  UNL1        0.4099
      9 O           3.4042   -0.6595    0.2565 O.2     1  UNL1       -0.2257
     10 O           2.3759    0.5536    1.8659 O.3     1  UNL1       -0.4113
     11 C           1.1607    0.0560    1.4273 C.ar    1  UNL1        0.1336
     12 C           0.6748   -1.1098    1.9747 C.ar    1  UNL1       -0.0174
     13 C          -0.5349   -1.6265    1.5547 C.ar    1  UNL1       -0.0369
     14 C          -1.2666   -0.9769    0.5820 C.ar    1  UNL1        0.0347
     15 C          -0.7962    0.2090    0.0089 C.ar    1  UNL1       -0.0139
     16 C           0.4208    0.6912    0.4595 C.ar    1  UNL1       -0.0136
     17 C          -1.7832    0.6901   -1.0083 C.3     1  UNL1        0.0279
     18 C          -1.3451    0.4012   -2.4169 C.3     1  UNL1       -0.0525
     19 C          -2.1987    2.1144   -0.7802 C.3     1  UNL1       -0.0277
     20 C          -3.5001    2.0348   -0.0123 C.3     1  UNL1        0.0015
     21 N          -3.8555    0.6791    0.1175 N.3     1  UNL1       -0.2833
     22 C          -5.2118    0.3282    0.2492 C.3     1  UNL1        0.0046
     23 C          -5.9455    0.6049   -1.0484 C.3     1  UNL1       -0.0148
     24 C          -7.3722    0.2497   -0.9648 C.ar    1  UNL1       -0.0462
     25 C          -8.2988    1.1732   -0.5590 C.ar    1  UNL1       -0.0585
     26 C          -9.6584    0.8459   -0.4736 C.ar    1  UNL1       -0.0615
     27 C         -10.0373   -0.4284   -0.8085 C.ar    1  UNL1       -0.0617
     28 C          -9.1279   -1.3771   -1.2197 C.ar    1  UNL1       -0.0615
     29 C          -7.7733   -1.0197   -1.2953 C.ar    1  UNL1       -0.0585
     30 C          -3.0064   -0.1370   -0.6605 C.3     1  UNL1        0.0863
     31 N          -2.5161   -1.3139    0.0055 N.pl3   1  UNL1       -0.3161
     32 C          -3.1757   -2.5981    0.0723 C.3     1  UNL1        0.0022
     33 C           7.1968    0.8164    1.5538 C.ar    1  UNL1        0.0050
     34 C           8.4553    0.5742    1.0966 C.ar    1  UNL1        0.1632
     35 O           9.5365    1.1706    1.6943 O.3     1  UNL1       -0.4914
     36 C           9.4363    2.0441    2.7807 C.3     1  UNL1        0.0790
     37 H           9.5030   -2.2372   -1.5066 H       1  UNL1        0.0660
     38 H          10.1040   -0.8613   -2.4785 H       1  UNL1        0.0660
     39 H          11.2589   -1.7252   -1.4322 H       1  UNL1        0.0660
     40 H           7.5835   -1.5542   -1.4140 H       1  UNL1        0.0656
     41 H           5.3810   -1.0502   -0.5166 H       1  UNL1        0.0637
     42 H           4.8169    1.2741    2.4099 H       1  UNL1        0.1582
     43 H           1.2715   -1.6000    2.7384 H       1  UNL1        0.0655
     44 H          -0.8933   -2.5340    1.9940 H       1  UNL1        0.0637
     45 H           0.7920    1.6043    0.0243 H       1  UNL1        0.0658
     46 H          -1.5444    1.2528   -3.0975 H       1  UNL1        0.0239
     47 H          -1.8516   -0.5196   -2.8144 H       1  UNL1        0.0239
     48 H          -0.2570    0.1903   -2.4096 H       1  UNL1        0.0239
     49 H          -2.3232    2.6064   -1.7760 H       1  UNL1        0.0287
     50 H          -1.4675    2.7049   -0.2165 H       1  UNL1        0.0287
     51 H          -3.4344    2.5847    0.9577 H       1  UNL1        0.0427
     52 H          -4.2517    2.5768   -0.6145 H       1  UNL1        0.0427
     53 H          -5.6781    0.9490    1.0741 H       1  UNL1        0.0430
     54 H          -5.3852   -0.7172    0.5913 H       1  UNL1        0.0430
     55 H          -5.4400    0.1024   -1.8930 H       1  UNL1        0.0326
     56 H          -5.9149    1.6923   -1.2961 H       1  UNL1        0.0326
     57 H          -8.0523    2.1936   -0.2831 H       1  UNL1        0.0620
     58 H         -10.3929    1.5662   -0.1557 H       1  UNL1        0.0618
     59 H         -11.0718   -0.7041   -0.7514 H       1  UNL1        0.0618
     60 H          -9.4829   -2.3639   -1.4707 H       1  UNL1        0.0618
     61 H          -7.1101   -1.8080   -1.6244 H       1  UNL1        0.0620
     62 H          -3.5048   -0.4095   -1.6106 H       1  UNL1        0.0680
     63 H          -4.0053   -2.6649   -0.6628 H       1  UNL1        0.0428
     64 H          -3.5274   -2.7929    1.1147 H       1  UNL1        0.0428
     65 H          -2.4830   -3.4441   -0.1942 H       1  UNL1        0.0428
     66 H           7.1027    1.4893    2.3940 H       1  UNL1        0.0674
     67 H           8.9004    1.6034    3.6616 H       1  UNL1        0.0660
     68 H          10.4656    2.3504    3.0683 H       1  UNL1        0.0660
     69 H           8.8551    2.9428    2.4736 H       1  UNL1        0.0660
@<TRIPOS>BOND
     1     1     2    1
     2     2     3    1
     3     3     4   ar
     4     4     5   ar
     5     5     6   ar
     6     6     7    1
     7     7     8   am
     8     8     9    2
     9     8    10    1
    10    10    11    1
    11    11    12   ar
    12    12    13   ar
    13    13    14   ar
    14    14    15   ar
    15    15    16   ar
    16    15    17    1
    17    17    18    1
    18    17    19    1
    19    19    20    1
    20    20    21    1
    21    21    22    1
    22    22    23    1
    23    23    24    1
    24    24    25   ar
    25    25    26   ar
    26    26    27   ar
    27    27    28   ar
    28    28    29   ar
    29    21    30    1
    30    30    31    1
    31    31    32    1
    32     6    33   ar
    33    33    34   ar
    34    34    35    1
    35    35    36    1
    36    34     3   ar
    37    16    11   ar
    38    30    17    1
    39    31    14    1
    40    29    24   ar
    41     1    37    1
    42     1    38    1
    43     1    39    1
    44     4    40    1
    45     5    41    1
    46     7    42    1
    47    12    43    1
    48    13    44    1
    49    16    45    1
    50    18    46    1
    51    18    47    1
    52    18    48    1
    53    19    49    1
    54    19    50    1
    55    20    51    1
    56    20    52    1
    57    22    53    1
    58    22    54    1
    59    23    55    1
    60    23    56    1
    61    25    57    1
    62    26    58    1
    63    27    59    1
    64    28    60    1
    65    29    61    1
    66    30    62    1
    67    32    63    1
    68    32    64    1
    69    32    65    1
    70    33    66    1
    71    36    67    1
    72    36    68    1
    73    36    69    1
