
     RDKit          3D

 87 95  0  0  0  0  0  0  0  0999 V2000
   -4.2026    0.1709   -3.0715 C   0  0  0  0  0  0  0  0  0  0  0  0
   -2.8482    0.4289   -2.5546 C   0  0  0  0  0  0  0  0  0  0  0  0
   -2.7636    1.8322   -1.9511 C   0  0  0  0  0  0  0  0  0  0  0  0
   -2.7640    2.9234   -2.9201 C   0  0  0  0  0  0  0  0  0  0  0  0
   -3.5723    3.9776   -3.1921 C   0  0  0  0  0  0  0  0  0  0  0  0
   -1.4066    1.7623   -1.2627 C   0  0  0  0  0  0  0  0  0  0  0  0
   -0.7711    2.9220   -0.9599 C   0  0  0  0  0  0  0  0  0  0  0  0
    0.5396    2.5997   -0.3460 C   0  0  0  0  0  0  0  0  0  0  0  0
    1.4786    3.5862   -0.4453 C   0  0  0  0  0  0  0  0  0  0  0  0
    1.3977    5.0469   -0.6394 C   0  0  0  0  0  0  0  0  0  0  0  0
    2.6408    2.8543   -0.3169 C   0  0  0  0  0  0  0  0  0  0  0  0
    3.9799    3.5497   -0.3679 C   0  0  0  0  0  0  0  0  0  0  0  0
    4.2406    4.2659    0.9137 C   0  0  0  0  0  0  0  0  0  0  0  0
    5.5391    4.9494    0.9005 C   0  0  0  0  0  0  0  0  0  0  0  0
    6.6005    5.7110    1.2916 O   0  0  0  0  0  0  0  0  0  0  0  0
    5.6125    4.4123   -0.2338 O   0  0  0  0  0  0  0  0  0  0  0  0
    2.2772    1.5080   -0.1483 C   0  0  0  0  0  0  0  0  0  0  0  0
    3.3615    0.5417    0.0731 C   0  0  0  0  0  0  0  0  0  0  0  0
    2.9044   -0.7239    0.3620 C   0  0  0  0  0  0  0  0  0  0  0  0
    1.6403   -1.0319    0.4434 N   0  0  0  0  0  0  0  0  0  0  0  0
    1.7417   -2.0960    1.2531 C   0  0  0  0  0  0  0  0  0  0  0  0
    0.7902   -2.7904    1.8883 C   0  0  0  0  0  0  0  0  0  0  0  0
   -0.6160   -2.3690    1.6577 C   0  0  0  0  0  0  0  0  0  0  0  0
   -1.6781   -3.0442    2.1680 C   0  0  0  0  0  0  0  0  0  0  0  0
   -1.6474   -4.2327    3.0978 C   0  0  0  0  0  0  0  0  0  0  0  0
   -2.7536   -2.4325    1.5994 C   0  0  0  0  0  0  0  0  0  0  0  0
   -4.1169   -2.7024    1.9980 C   0  0  0  0  0  0  0  0  0  0  0  0
   -4.4933   -3.3445    3.1603 C   0  0  0  0  0  0  0  0  0  0  0  0
   -2.2327   -1.4737    0.8074 C   0  0  0  0  0  0  0  0  0  0  0  0
   -0.8922   -1.3806    0.8273 N   0  0  0  0  0  0  0  0  0  0  0  0
    0.2127   -0.2936   -0.1298 Fe  0  0  0  0  0  4  0  0  0  0  0  0
    0.9420    1.3774   -0.1589 N   0  0  0  0  0  0  0  0  0  0  0  0
   -1.2320    0.3257   -0.9616 N   0  0  0  0  0  0  0  0  0  0  0  0
   -2.5247   -0.2168   -1.2241 C   0  0  0  0  0  0  0  0  0  0  0  0
   -3.1526   -0.9044   -0.2203 C   0  0  0  0  0  0  0  0  0  0  0  0
   -4.6167   -1.1301   -0.3806 C   0  0  0  0  0  0  0  0  0  0  0  0
   -5.1268   -2.4070   -0.6549 C   0  0  0  0  0  0  0  0  0  0  0  0
   -6.4422   -2.7463   -0.7902 C   0  0  0  0  0  0  0  0  0  0  0  0
   -7.3834   -1.7199   -0.6418 C   0  0  0  0  0  0  0  0  0  0  0  0
   -6.9216   -0.4568   -0.3722 C   0  0  0  0  0  0  0  0  0  0  0  0
   -5.5862   -0.1600   -0.2441 C   0  0  0  0  0  0  0  0  0  0  0  0
    3.0227   -2.4189    1.6097 C   0  0  0  0  0  0  0  0  0  0  0  0
    3.6207   -3.5184    2.4522 C   0  0  0  0  0  0  0  0  0  0  0  0
    3.8136   -1.4829    0.9959 C   0  0  0  0  0  0  0  0  0  0  0  0
    5.2971   -1.5305    1.0675 C   0  0  0  0  0  0  0  0  0  0  0  0
    5.9540   -2.2511   -0.0608 C   0  0  0  0  0  0  0  0  0  0  0  0
    5.7438   -1.7141   -1.4074 C   0  0  0  0  0  0  0  0  0  0  0  0
    6.4257   -2.5660   -2.2982 O   0  0  0  0  0  0  0  0  0  0  0  0
    5.2110   -0.8130   -2.1008 O   0  0  0  0  0  0  0  0  0  0  0  0
   -4.9133    0.9743   -2.7666 H   0  0  0  0  0  0  0  0  0  0  0  0
   -4.1296    0.3263   -4.1966 H   0  0  0  0  0  0  0  0  0  0  0  0
   -4.5432   -0.8482   -2.9643 H   0  0  0  0  0  0  0  0  0  0  0  0
   -2.0680    0.3096   -3.2927 H   0  0  0  0  0  0  0  0  0  0  0  0
   -3.5531    1.9109   -1.1903 H   0  0  0  0  0  0  0  0  0  0  0  0
   -1.8814    2.8467   -3.5798 H   0  0  0  0  0  0  0  0  0  0  0  0
   -3.3757    4.6954   -3.9871 H   0  0  0  0  0  0  0  0  0  0  0  0
   -4.4019    3.9027   -2.4585 H   0  0  0  0  0  0  0  0  0  0  0  0
   -1.2335    3.8780   -1.1664 H   0  0  0  0  0  0  0  0  0  0  0  0
    2.2727    5.3221   -1.2575 H   0  0  0  0  0  0  0  0  0  0  0  0
    1.2919    5.6183    0.2747 H   0  0  0  0  0  0  0  0  0  0  0  0
    0.5193    5.2459   -1.3212 H   0  0  0  0  0  0  0  0  0  0  0  0
    3.9977    4.2163   -1.2444 H   0  0  0  0  0  0  0  0  0  0  0  0
    4.7370    2.7685   -0.5423 H   0  0  0  0  0  0  0  0  0  0  0  0
    4.2402    3.5374    1.7684 H   0  0  0  0  0  0  0  0  0  0  0  0
    3.4094    4.9819    1.1394 H   0  0  0  0  0  0  0  0  0  0  0  0
    7.4323    5.7552    0.7367 H   0  0  0  0  0  0  0  0  0  0  0  0
    4.4366    0.8232   -0.0094 H   0  0  0  0  0  0  0  0  0  0  0  0
    0.9762   -3.6495    2.5703 H   0  0  0  0  0  0  0  0  0  0  0  0
   -2.3807   -4.9653    2.7659 H   0  0  0  0  0  0  0  0  0  0  0  0
   -0.6430   -4.7583    2.9244 H   0  0  0  0  0  0  0  0  0  0  0  0
   -1.6101   -3.9145    4.1221 H   0  0  0  0  0  0  0  0  0  0  0  0
   -5.1501   -2.7978    2.1031 H   0  0  0  0  0  0  0  0  0  0  0  0
   -3.9644   -3.7577    3.9812 H   0  0  0  0  0  0  0  0  0  0  0  0
   -3.8958   -3.7340    3.9335 H   0  0  0  0  0  0  0  0  0  0  0  0
   -4.4706   -3.2650   -0.7901 H   0  0  0  0  0  0  0  0  0  0  0  0
   -6.8139   -3.7307   -0.9987 H   0  0  0  0  0  0  0  0  0  0  0  0
   -8.4513   -1.8185   -0.7194 H   0  0  0  0  0  0  0  0  0  0  0  0
   -7.6244    0.3752   -0.2497 H   0  0  0  0  0  0  0  0  0  0  0  0
   -5.2825    0.8317   -0.0262 H   0  0  0  0  0  0  0  0  0  0  0  0
    4.1247   -3.0842    3.3400 H   0  0  0  0  0  0  0  0  0  0  0  0
    4.3156   -4.0777    1.7861 H   0  0  0  0  0  0  0  0  0  0  0  0
    2.8607   -4.2193    2.7753 H   0  0  0  0  0  0  0  0  0  0  0  0
    5.6936   -0.4793    1.1440 H   0  0  0  0  0  0  0  0  0  0  0  0
    5.5946   -2.0002    2.0212 H   0  0  0  0  0  0  0  0  0  0  0  0
    5.6930   -3.3409   -0.0205 H   0  0  0  0  0  0  0  0  0  0  0  0
    7.0549   -2.2512    0.1672 H   0  0  0  0  0  0  0  0  0  0  0  0
    6.4929   -2.4214   -3.2831 H   0  0  0  0  0  0  0  0  0  0  0  0
  1  2  1  0
  2  3  1  0
  3  4  1  0
  4  5  2  0
  3  6  1  0
  6  7  2  0
  7  8  1  0
  8  9  2  0
  9 10  1  0
  9 11  1  0
 11 12  1  0
 12 13  1  0
 13 14  1  0
 14 15  1  0
 14 16  2  0
 11 17  2  0
 17 18  1  0
 18 19  2  0
 19 20  1  0
 20 21  1  0
 21 22  2  0
 22 23  1  0
 23 24  2  0
 24 25  1  0
 24 26  1  0
 26 27  1  0
 27 28  2  0
 26 29  2  0
 29 30  1  0
 30 31  1  0
 31 32  1  0
 31 33  1  0
 33 34  1  0
 34 35  2  0
 35 36  1  0
 36 37  2  0
 37 38  1  0
 38 39  2  0
 39 40  1  0
 40 41  2  0
 21 42  1  0
 42 43  1  0
 42 44  2  0
 44 45  1  0
 45 46  1  0
 46 47  1  0
 47 48  1  0
 47 49  2  0
 34  2  1  0
 41 36  1  0
 33  6  1  0
 32  8  1  0
 32 17  1  0
 44 19  1  0
 31 20  1  0
 30 23  1  0
 35 29  1  0
  1 50  1  0
  1 51  1  0
  1 52  1  0
  2 53  1  0
  3 54  1  0
  4 55  1  0
  5 56  1  0
  5 57  1  0
  7 58  1  0
 10 59  1  0
 10 60  1  0
 10 61  1  0
 12 62  1  0
 12 63  1  0
 13 64  1  0
 13 65  1  0
 15 66  1  0
 18 67  1  0
 22 68  1  0
 25 69  1  0
 25 70  1  0
 25 71  1  0
 27 72  1  0
 28 73  1  0
 28 74  1  0
 37 75  1  0
 38 76  1  0
 39 77  1  0
 40 78  1  0
 41 79  1  0
 43 80  1  0
 43 81  1  0
 43 82  1  0
 45 83  1  0
 45 84  1  0
 46 85  1  0
 46 86  1  0
 48 87  1  0
M  CHG  1  31   2
M  END
$$$$
