@<TRIPOS>MOLECULE
*****
 73 80 0 0 0
SMALL
GASTEIGER

@<TRIPOS>ATOM
      1 O         -10.2922   -1.9690    3.3604 O.2     1  UNL1       -0.2446
      2 C          -9.6066   -1.3472    2.4983 C.ar    1  UNL1        0.3485
      3 N         -10.0641   -0.4625    1.5922 N.ar    1  UNL1       -0.2260
      4 N          -9.0377   -0.0316    0.8714 N.ar    1  UNL1       -0.1508
      5 C          -7.9545   -0.6498    1.3338 C.ar    1  UNL1        0.1708
      6 C          -6.6409   -0.5380    0.9128 C.ar    1  UNL1        0.0456
      7 C          -6.2889    0.3008   -0.1218 C.ar    1  UNL1       -0.0392
      8 C          -4.9590    0.3831   -0.5128 C.ar    1  UNL1        0.0088
      9 C          -4.5681    1.2524   -1.5902 C.ar    1  UNL1       -0.0158
     10 C          -4.7786    2.5998   -1.4962 C.ar    1  UNL1       -0.0540
     11 C          -4.4204    3.4774   -2.5042 C.ar    1  UNL1       -0.0612
     12 C          -3.8356    2.9988   -3.6389 C.ar    1  UNL1       -0.0617
     13 C          -3.6113    1.6455   -3.7611 C.ar    1  UNL1       -0.0612
     14 C          -3.9793    0.7659   -2.7313 C.ar    1  UNL1       -0.0540
     15 C          -3.9952   -0.3652    0.1245 C.ar    1  UNL1        0.0794
     16 C          -2.6186   -0.2340   -0.3332 C.ar    1  UNL1        0.0010
     17 C          -1.9754   -1.3440   -0.8411 C.ar    1  UNL1       -0.0522
     18 C          -0.6741   -1.2365   -1.2786 C.ar    1  UNL1       -0.0567
     19 C           0.0371   -0.0449   -1.2338 C.ar    1  UNL1       -0.0333
     20 C           1.4296    0.0091   -1.7209 C.3     1  UNL1        0.0240
     21 N           2.4297   -0.2759   -0.7563 N.3     1  UNL1       -0.2981
     22 C           2.3422   -1.5595   -0.1532 C.3     1  UNL1       -0.0001
     23 C           3.6472   -1.8838    0.5390 C.3     1  UNL1       -0.0304
     24 C           3.8405   -0.9123    1.6601 C.3     1  UNL1        0.0212
     25 C           5.2996   -0.7887    1.9383 C.ar    1  UNL1        0.1344
     26 N           5.9278   -1.1462    3.0724 N.ar    1  UNL1       -0.1339
     27 N           7.2309   -0.8851    2.9438 N.ar    1  UNL1       -0.1278
     28 C           7.4532   -0.3649    1.7449 C.ar    1  UNL1        0.1800
     29 C           8.7240    0.0693    1.1740 C.ar    1  UNL1        0.1077
     30 C           8.8068    0.5969   -0.0994 C.ar    1  UNL1       -0.0326
     31 C          10.0044    1.0080   -0.6428 C.ar    1  UNL1       -0.0582
     32 C          11.1537    0.8915    0.1010 C.ar    1  UNL1       -0.0436
     33 C          11.0678    0.3618    1.3785 C.ar    1  UNL1        0.0284
     34 N           9.8775   -0.0279    1.8715 N.ar    1  UNL1       -0.2519
     35 N           6.2617   -0.3061    1.1264 N.ar    1  UNL1       -0.3237
     36 C           3.1820    0.4130    1.4765 C.3     1  UNL1       -0.0304
     37 C           2.8863    0.7907    0.0548 C.3     1  UNL1       -0.0001
     38 C          -0.6527    1.0323   -0.7176 C.ar    1  UNL1       -0.0567
     39 C          -1.9387    0.9663   -0.2750 C.ar    1  UNL1       -0.0522
     40 N          -4.3742   -1.1717    1.1283 N.ar    1  UNL1       -0.2459
     41 C          -5.6559   -1.2720    1.5290 C.ar    1  UNL1        0.0766
     42 C          -5.9992   -2.1284    2.5819 C.ar    1  UNL1       -0.0189
     43 C          -7.3189   -2.2070    2.9666 C.ar    1  UNL1        0.0182
     44 N          -8.2566   -1.4774    2.3447 N.ar    1  UNL1       -0.2504
     45 H         -11.0552   -0.1338    1.4392 H       1  UNL1        0.1937
     46 H          -7.0461    0.8890   -0.6230 H       1  UNL1        0.0632
     47 H          -5.2369    3.0057   -0.6155 H       1  UNL1        0.0624
     48 H          -4.5961    4.5488   -2.4115 H       1  UNL1        0.0618
     49 H          -3.5408    3.6743   -4.4560 H       1  UNL1        0.0618
     50 H          -3.1470    1.2969   -4.6704 H       1  UNL1        0.0618
     51 H          -3.7972   -0.2891   -2.8420 H       1  UNL1        0.0624
     52 H          -2.4928   -2.3149   -0.8997 H       1  UNL1        0.0624
     53 H          -0.2003   -2.1443   -1.6753 H       1  UNL1        0.0621
     54 H           1.5024   -0.7256   -2.5757 H       1  UNL1        0.0476
     55 H           1.6733    0.9932   -2.1911 H       1  UNL1        0.0476
     56 H           1.5045   -1.6833    0.5497 H       1  UNL1        0.0427
     57 H           2.2433   -2.3137   -0.9880 H       1  UNL1        0.0427
     58 H           3.5381   -2.9282    0.9453 H       1  UNL1        0.0284
     59 H           4.4760   -1.8726   -0.1980 H       1  UNL1        0.0284
     60 H           3.3531   -1.3775    2.5679 H       1  UNL1        0.0380
     61 H           7.8670    0.6708   -0.6543 H       1  UNL1        0.0640
     62 H          10.0720    1.4197   -1.6354 H       1  UNL1        0.0619
     63 H          12.1308    1.1941   -0.2615 H       1  UNL1        0.0633
     64 H          11.9555    0.2602    1.9814 H       1  UNL1        0.0830
     65 H           6.0457    0.0530    0.1514 H       1  UNL1        0.1686
     66 H           3.8998    1.1916    1.8698 H       1  UNL1        0.0284
     67 H           2.2687    0.5437    2.1012 H       1  UNL1        0.0284
     68 H           2.1168    1.5891    0.0836 H       1  UNL1        0.0427
     69 H           3.7785    1.2829   -0.4349 H       1  UNL1        0.0427
     70 H          -0.1196    1.9755   -0.6726 H       1  UNL1        0.0621
     71 H          -2.4647    1.8338    0.1302 H       1  UNL1        0.0624
     72 H          -5.2125   -2.7065    3.0647 H       1  UNL1        0.0654
     73 H          -7.6214   -2.8657    3.7851 H       1  UNL1        0.0815
@<TRIPOS>BOND
     1     1     2    2
     2     2     3   ar
     3     3     4   ar
     4     4     5   ar
     5     5     6   ar
     6     6     7   ar
     7     7     8   ar
     8     8     9    1
     9     9    10   ar
    10    10    11   ar
    11    11    12   ar
    12    12    13   ar
    13    13    14   ar
    14     8    15   ar
    15    15    16    1
    16    16    17   ar
    17    17    18   ar
    18    18    19   ar
    19    19    20    1
    20    20    21    1
    21    21    22    1
    22    22    23    1
    23    23    24    1
    24    24    25    1
    25    25    26   ar
    26    26    27   ar
    27    27    28   ar
    28    28    29    1
    29    29    30   ar
    30    30    31   ar
    31    31    32   ar
    32    32    33   ar
    33    33    34   ar
    34    28    35   ar
    35    24    36    1
    36    36    37    1
    37    19    38   ar
    38    38    39   ar
    39    15    40   ar
    40    40    41   ar
    41    41    42   ar
    42    42    43   ar
    43    43    44   ar
    44    44     2   ar
    45    44     5   ar
    46    41     6   ar
    47    14     9   ar
    48    39    16   ar
    49    37    21    1
    50    35    25   ar
    51    34    29   ar
    52     3    45    1
    53     7    46    1
    54    10    47    1
    55    11    48    1
    56    12    49    1
    57    13    50    1
    58    14    51    1
    59    17    52    1
    60    18    53    1
    61    20    54    1
    62    20    55    1
    63    22    56    1
    64    22    57    1
    65    23    58    1
    66    23    59    1
    67    24    60    1
    68    30    61    1
    69    31    62    1
    70    32    63    1
    71    33    64    1
    72    35    65    1
    73    36    66    1
    74    36    67    1
    75    37    68    1
    76    37    69    1
    77    38    70    1
    78    39    71    1
    79    42    72    1
    80    43    73    1
