
     RDKit          3D

 39 41  0  0  0  0  0  0  0  0999 V2000
    4.8675    1.1705   -1.1221 N   0  0  0  0  0  0  0  0  0  0  0  0
    4.2800   -0.1208   -0.8014 C   0  0  0  0  0  0  0  0  0  0  0  0
    4.0712   -0.1493    0.6979 C   0  0  0  0  0  0  0  0  0  0  0  0
    2.7316    0.4716    0.9836 C   0  0  0  0  0  0  0  0  0  0  0  0
    1.5890   -0.4410    0.5238 C   0  0  0  0  0  0  0  0  0  0  0  0
    0.3924    0.3404    0.5546 N   0  0  0  0  0  0  0  0  0  0  0  0
   -0.7906   -0.3391    0.1570 C   0  0  1  0  0  0  0  0  0  0  0  0
   -1.3275   -1.5301    0.8188 C   0  0  0  0  0  0  0  0  0  0  0  0
   -1.9787   -0.2388    1.1339 C   0  0  2  0  0  0  0  0  0  0  0  0
   -3.2845    0.1318    0.5239 C   0  0  0  0  0  0  0  0  0  0  0  0
   -3.6569   -0.3119   -0.7260 C   0  0  0  0  0  0  0  0  0  0  0  0
   -4.8825    0.0414   -1.2880 C   0  0  0  0  0  0  0  0  0  0  0  0
   -5.7651    0.8513   -0.6046 C   0  0  0  0  0  0  0  0  0  0  0  0
   -7.4488    1.3364   -1.3770 Br  0  0  0  0  0  0  0  0  0  0  0  0
   -5.3860    1.2918    0.6460 C   0  0  0  0  0  0  0  0  0  0  0  0
   -4.1684    0.9399    1.2025 C   0  0  0  0  0  0  0  0  0  0  0  0
    1.9378   -1.0125   -0.8028 C   0  0  0  0  0  0  0  0  0  0  0  0
    2.9751   -0.2104   -1.5516 C   0  0  0  0  0  0  0  0  0  0  0  0
    4.6151    1.9021   -0.4213 H   0  0  0  0  0  0  0  0  0  0  0  0
    4.6522    1.4492   -2.1033 H   0  0  0  0  0  0  0  0  0  0  0  0
    4.9935   -0.9049   -1.0762 H   0  0  0  0  0  0  0  0  0  0  0  0
    4.1681   -1.1807    1.1077 H   0  0  0  0  0  0  0  0  0  0  0  0
    4.8346    0.4609    1.2128 H   0  0  0  0  0  0  0  0  0  0  0  0
    2.6552    1.3770    0.3229 H   0  0  0  0  0  0  0  0  0  0  0  0
    2.5821    0.7533    2.0307 H   0  0  0  0  0  0  0  0  0  0  0  0
    1.4941   -1.2688    1.2550 H   0  0  0  0  0  0  0  0  0  0  0  0
    0.2819    0.7320    1.5037 H   0  0  0  0  0  0  0  0  0  0  0  0
   -1.0693   -0.2270   -0.9290 H   0  0  0  0  0  0  0  0  0  0  0  0
   -1.8968   -2.2737    0.2159 H   0  0  0  0  0  0  0  0  0  0  0  0
   -0.7387   -2.0448    1.6298 H   0  0  0  0  0  0  0  0  0  0  0  0
   -1.7618    0.1631    2.1441 H   0  0  0  0  0  0  0  0  0  0  0  0
   -2.9507   -0.9473   -1.2483 H   0  0  0  0  0  0  0  0  0  0  0  0
   -5.1283   -0.3311   -2.2692 H   0  0  0  0  0  0  0  0  0  0  0  0
   -6.0767    1.9248    1.1791 H   0  0  0  0  0  0  0  0  0  0  0  0
   -3.8792    1.2985    2.2006 H   0  0  0  0  0  0  0  0  0  0  0  0
    1.0372   -1.0585   -1.4446 H   0  0  0  0  0  0  0  0  0  0  0  0
    2.2939   -2.0742   -0.7123 H   0  0  0  0  0  0  0  0  0  0  0  0
    2.5564    0.7732   -1.8242 H   0  0  0  0  0  0  0  0  0  0  0  0
    3.1817   -0.7441   -2.5033 H   0  0  0  0  0  0  0  0  0  0  0  0
  1  2  1  0
  2  3  1  0
  3  4  1  0
  4  5  1  0
  5  6  1  0
  6  7  1  0
  7  8  1  0
  8  9  1  0
  9 10  1  0
 10 11  2  0
 11 12  1  0
 12 13  2  0
 13 14  1  0
 13 15  1  0
 15 16  2  0
  5 17  1  0
 17 18  1  0
 18  2  1  0
  9  7  1  0
 16 10  1  0
  1 19  1  0
  1 20  1  0
  2 21  1  0
  3 22  1  0
  3 23  1  0
  4 24  1  0
  4 25  1  0
  5 26  1  0
  6 27  1  0
  7 28  1  6
  8 29  1  0
  8 30  1  0
  9 31  1  1
 11 32  1  0
 12 33  1  0
 15 34  1  0
 16 35  1  0
 17 36  1  0
 17 37  1  0
 18 38  1  0
 18 39  1  0
M  END
$$$$
