@<TRIPOS>MOLECULE
*****
 39 41 0 0 0
SMALL
GASTEIGER

@<TRIPOS>ATOM
      1 N           4.8675    1.1705   -1.1221 N.3     1  UNL1       -0.3272
      2 C           4.2800   -0.1208   -0.8014 C.3     1  UNL1        0.0049
      3 C           4.0712   -0.1493    0.6979 C.3     1  UNL1       -0.0363
      4 C           2.7316    0.4716    0.9836 C.3     1  UNL1       -0.0361
      5 C           1.5890   -0.4410    0.5238 C.3     1  UNL1        0.0080
      6 N           0.3924    0.3404    0.5546 N.3     1  UNL1       -0.3099
      7 C          -0.7906   -0.3391    0.1570 C.3     1  UNL1        0.0153
      8 C          -1.3275   -1.5301    0.8188 C.3     1  UNL1       -0.0287
      9 C          -1.9787   -0.2388    1.1339 C.3     1  UNL1        0.0010
     10 C          -3.2845    0.1318    0.5239 C.ar    1  UNL1       -0.0427
     11 C          -3.6569   -0.3119   -0.7260 C.ar    1  UNL1       -0.0572
     12 C          -4.8825    0.0414   -1.2880 C.ar    1  UNL1       -0.0475
     13 C          -5.7651    0.8513   -0.6046 C.ar    1  UNL1        0.0179
     14 BR         -7.4488    1.3364   -1.3770 Br      1  UNL1       -0.0503
     15 C          -5.3860    1.2918    0.6460 C.ar    1  UNL1       -0.0475
     16 C          -4.1684    0.9399    1.2025 C.ar    1  UNL1       -0.0572
     17 C           1.9378   -1.0125   -0.8028 C.3     1  UNL1       -0.0361
     18 C           2.9751   -0.2104   -1.5516 C.3     1  UNL1       -0.0363
     19 H           4.6151    1.9021   -0.4213 H       1  UNL1        0.1185
     20 H           4.6522    1.4492   -2.1033 H       1  UNL1        0.1185
     21 H           4.9935   -0.9049   -1.0762 H       1  UNL1        0.0458
     22 H           4.1681   -1.1807    1.1077 H       1  UNL1        0.0281
     23 H           4.8346    0.4609    1.2128 H       1  UNL1        0.0281
     24 H           2.6552    1.3770    0.3229 H       1  UNL1        0.0281
     25 H           2.5821    0.7533    2.0307 H       1  UNL1        0.0281
     26 H           1.4941   -1.2688    1.2550 H       1  UNL1        0.0460
     27 H           0.2819    0.7320    1.5037 H       1  UNL1        0.1225
     28 H          -1.0693   -0.2270   -0.9290 H       1  UNL1        0.0466
     29 H          -1.8968   -2.2737    0.2159 H       1  UNL1        0.0287
     30 H          -0.7387   -2.0448    1.6298 H       1  UNL1        0.0287
     31 H          -1.7618    0.1631    2.1441 H       1  UNL1        0.0364
     32 H          -2.9507   -0.9473   -1.2483 H       1  UNL1        0.0621
     33 H          -5.1283   -0.3311   -2.2692 H       1  UNL1        0.0629
     34 H          -6.0767    1.9248    1.1791 H       1  UNL1        0.0629
     35 H          -3.8792    1.2985    2.2006 H       1  UNL1        0.0621
     36 H           1.0372   -1.0585   -1.4446 H       1  UNL1        0.0281
     37 H           2.2939   -2.0742   -0.7123 H       1  UNL1        0.0281
     38 H           2.5564    0.7732   -1.8242 H       1  UNL1        0.0281
     39 H           3.1817   -0.7441   -2.5033 H       1  UNL1        0.0281
@<TRIPOS>BOND
     1     1     2    1
     2     2     3    1
     3     3     4    1
     4     4     5    1
     5     5     6    1
     6     6     7    1
     7     7     8    1
     8     8     9    1
     9     9    10    1
    10    10    11   ar
    11    11    12   ar
    12    12    13   ar
    13    13    14    1
    14    13    15   ar
    15    15    16   ar
    16     5    17    1
    17    17    18    1
    18    18     2    1
    19     9     7    1
    20    16    10   ar
    21     1    19    1
    22     1    20    1
    23     2    21    1
    24     3    22    1
    25     3    23    1
    26     4    24    1
    27     4    25    1
    28     5    26    1
    29     6    27    1
    30     7    28    1
    31     8    29    1
    32     8    30    1
    33     9    31    1
    34    11    32    1
    35    12    33    1
    36    15    34    1
    37    16    35    1
    38    17    36    1
    39    17    37    1
    40    18    38    1
    41    18    39    1
