
     RDKit          3D

 29 31  0  0  0  0  0  0  0  0999 V2000
    4.4406   -2.5011    2.5671 Cl  0  0  0  0  0  0  0  0  0  0  0  0
    3.7262   -1.6662    1.2216 C   0  0  0  0  0  0  0  0  0  0  0  0
    4.2953   -1.7486   -0.0462 C   0  0  0  0  0  0  0  0  0  0  0  0
    3.7637   -1.1003   -1.1565 C   0  0  0  0  0  0  0  0  0  0  0  0
    2.6297   -0.3636   -0.9288 C   0  0  0  0  0  0  0  0  0  0  0  0
    1.9236    0.3401   -1.7708 O   0  0  0  0  0  0  0  0  0  0  0  0
    0.8962    0.9159   -1.1973 C   0  0  0  0  0  0  0  0  0  0  0  0
   -0.0681    1.7504   -1.8388 N   0  0  0  0  0  0  0  0  0  0  0  0
   -1.3231    2.3808   -0.8448 S   0  0  0  0  0  0  0  0  0  0  0  0
   -0.7588    3.2423    0.2580 O   0  0  0  0  0  0  0  0  0  0  0  0
   -2.2201    3.2160   -1.7103 O   0  0  0  0  0  0  0  0  0  0  0  0
   -2.2639    1.0687   -0.1691 C   0  0  0  0  0  0  0  0  0  0  0  0
   -2.3662    0.8917    1.2020 C   0  0  0  0  0  0  0  0  0  0  0  0
   -3.1103   -0.1458    1.7320 C   0  0  0  0  0  0  0  0  0  0  0  0
   -3.2106   -0.3297    3.4667 Cl  0  0  0  0  0  0  0  0  0  0  0  0
   -3.7423   -0.9916    0.8441 C   0  0  0  0  0  0  0  0  0  0  0  0
   -3.6664   -0.8508   -0.5358 C   0  0  0  0  0  0  0  0  0  0  0  0
   -2.9057    0.2085   -1.0256 C   0  0  0  0  0  0  0  0  0  0  0  0
   -2.7828    0.4234   -2.7548 Cl  0  0  0  0  0  0  0  0  0  0  0  0
    0.9311    0.5680    0.1019 N   0  0  0  0  0  0  0  0  0  0  0  0
    2.0144   -0.2392    0.3001 C   0  0  0  0  0  0  0  0  0  0  0  0
    2.5768   -0.9016    1.3803 C   0  0  0  0  0  0  0  0  0  0  0  0
    5.2033   -2.3625   -0.1321 H   0  0  0  0  0  0  0  0  0  0  0  0
    4.2620   -1.2142   -2.0989 H   0  0  0  0  0  0  0  0  0  0  0  0
    0.0098    1.9466   -2.8457 H   0  0  0  0  0  0  0  0  0  0  0  0
   -1.8452    1.5909    1.8620 H   0  0  0  0  0  0  0  0  0  0  0  0
   -4.3264   -1.8060    1.2577 H   0  0  0  0  0  0  0  0  0  0  0  0
   -4.1696   -1.5249   -1.2179 H   0  0  0  0  0  0  0  0  0  0  0  0
    2.0869   -0.7975    2.3383 H   0  0  0  0  0  0  0  0  0  0  0  0
  1  2  1  0
  2  3  2  0
  3  4  1  0
  4  5  2  0
  5  6  1  0
  6  7  1  0
  7  8  1  0
  8  9  1  0
  9 10  2  0
  9 11  2  0
  9 12  1  0
 12 13  2  0
 13 14  1  0
 14 15  1  0
 14 16  2  0
 16 17  1  0
 17 18  2  0
 18 19  1  0
  7 20  2  0
 20 21  1  0
 21 22  2  0
 22  2  1  0
 21  5  1  0
 18 12  1  0
  3 23  1  0
  4 24  1  0
  8 25  1  0
 13 26  1  0
 16 27  1  0
 17 28  1  0
 22 29  1  0
M  END
$$$$
