@<TRIPOS>MOLECULE
*****
 36 39 0 0 0
SMALL
GASTEIGER

@<TRIPOS>ATOM
      1 C          -4.0006   -0.6697   -0.9678 C.3     1  UNL1       -0.0059
      2 C          -3.3072   -0.6536    0.3343 C.ar    1  UNL1        0.1112
      3 N          -3.7907   -1.3001    1.4420 N.ar    1  UNL1       -0.2402
      4 C          -2.9458   -1.1781    2.4800 C.ar    1  UNL1        0.0511
      5 C          -1.8525   -0.4277    2.0759 C.ar    1  UNL1        0.0646
      6 C          -0.6315   -0.0478    2.8226 C.3     1  UNL1        0.0823
      7 N           0.5820   -0.2815    2.0835 N.2     1  UNL1       -0.2764
      8 C           0.9759   -0.0399    0.8736 C.2     1  UNL1        0.0779
      9 C           2.2722   -0.3554    0.2859 C.ar    1  UNL1        0.0357
     10 C           3.4471    0.3481    0.5595 C.ar    1  UNL1       -0.0498
     11 C           4.6512    0.0092   -0.0237 C.ar    1  UNL1       -0.0610
     12 C           4.7265   -1.0645   -0.9180 C.ar    1  UNL1       -0.0590
     13 C           3.5803   -1.7709   -1.2014 C.ar    1  UNL1       -0.0258
     14 C           2.4166   -1.4011   -0.6032 C.ar    1  UNL1        0.1325
     15 F           1.3368   -2.1736   -0.9574 F       1  UNL1       -0.2048
     16 C           0.0672    0.6424   -0.0825 C.ar    1  UNL1        0.0258
     17 C          -1.3203    0.6299   -0.0973 C.ar    1  UNL1        0.0573
     18 C          -2.1188    1.3308   -0.9793 C.ar    1  UNL1       -0.0358
     19 C          -1.4203    2.0991   -1.9221 C.ar    1  UNL1       -0.0414
     20 C          -0.0207    2.1359   -1.9424 C.ar    1  UNL1        0.0417
     21 CL          0.8541    3.0937   -3.1194 Cl      1  UNL1       -0.0835
     22 C           0.7405    1.4102   -1.0247 C.ar    1  UNL1       -0.0322
     23 N          -2.1417   -0.1452    0.7745 N.ar    1  UNL1       -0.2981
     24 H          -3.3418   -0.6695   -1.8633 H       1  UNL1        0.0308
     25 H          -4.9279   -0.1107   -1.0383 H       1  UNL1        0.0308
     26 H          -4.3828   -1.7479   -1.0418 H       1  UNL1        0.0308
     27 H          -3.0340   -1.5680    3.4835 H       1  UNL1        0.0848
     28 H          -0.6914    1.0290    3.0532 H       1  UNL1        0.0573
     29 H          -0.6209   -0.5998    3.7787 H       1  UNL1        0.0573
     30 H           3.3333    1.1804    1.2669 H       1  UNL1        0.0625
     31 H           5.4857    0.6493    0.2852 H       1  UNL1        0.0618
     32 H           5.7314   -1.2247   -1.3048 H       1  UNL1        0.0618
     33 H           3.6956   -2.5852   -1.8944 H       1  UNL1        0.0646
     34 H          -3.1785    1.4039   -1.0030 H       1  UNL1        0.0639
     35 H          -1.9729    2.6776   -2.6515 H       1  UNL1        0.0633
     36 H           1.8035    1.3757   -0.9630 H       1  UNL1        0.0639
@<TRIPOS>BOND
     1     1     2    1
     2     2     3   ar
     3     3     4   ar
     4     4     5   ar
     5     5     6    1
     6     6     7    1
     7     7     8    2
     8     8     9    1
     9     9    10   ar
    10    10    11   ar
    11    11    12   ar
    12    12    13   ar
    13    13    14   ar
    14    14    15    1
    15     8    16    1
    16    16    17   ar
    17    17    18   ar
    18    18    19   ar
    19    19    20   ar
    20    20    21    1
    21    20    22   ar
    22    17    23    1
    23    23     2   ar
    24    23     5   ar
    25    14     9   ar
    26    22    16   ar
    27     1    24    1
    28     1    25    1
    29     1    26    1
    30     4    27    1
    31     6    28    1
    32     6    29    1
    33    10    30    1
    34    11    31    1
    35    12    32    1
    36    13    33    1
    37    18    34    1
    38    19    35    1
    39    22    36    1
