@<TRIPOS>MOLECULE
*****
 77 80 0 0 0
SMALL
GASTEIGER

@<TRIPOS>ATOM
      1 C          -3.5459    2.7535   -4.2661 C.3     1  UNL1       -0.0496
      2 C          -3.5339    1.3472   -4.7993 C.3     1  UNL1        0.0063
      3 N          -4.2334    0.4821   -3.8801 N.pl3   1  UNL1       -0.3440
      4 C          -3.7039    0.2782   -2.5749 C.ar    1  UNL1        0.0296
      5 C          -2.5392    0.8771   -2.1553 C.ar    1  UNL1       -0.0286
      6 C          -2.0400    0.6620   -0.8915 C.ar    1  UNL1        0.0402
      7 C          -0.8184    1.3372   -0.4226 C.2     1  UNL1        0.2445
      8 O          -0.3480    2.3484   -1.0101 O.2     1  UNL1       -0.2702
      9 N          -0.1028    0.8879    0.7146 N.am    1  UNL1       -0.3057
     10 C           1.1026    1.5409    1.2232 C.3     1  UNL1        0.0545
     11 C           1.0901    1.7544    2.6865 C.3     1  UNL1       -0.0067
     12 C           2.3432    2.4449    3.1119 C.ar    1  UNL1       -0.0455
     13 C           2.3513    3.8465    3.0912 C.ar    1  UNL1       -0.0585
     14 C           3.4200    4.6119    3.4669 C.ar    1  UNL1       -0.0615
     15 C           4.5532    3.9366    3.8896 C.ar    1  UNL1       -0.0617
     16 C           4.5911    2.5676    3.9261 C.ar    1  UNL1       -0.0615
     17 C           3.4790    1.8272    3.5347 C.ar    1  UNL1       -0.0585
     18 C           2.3467    0.9338    0.6467 C.3     1  UNL1        0.0862
     19 O           2.2848    1.1455   -0.7367 O.3     1  UNL1       -0.3887
     20 C           2.5855   -0.4952    0.9792 C.3     1  UNL1        0.0240
     21 N           3.8376   -0.9909    0.4925 N.3     1  UNL1       -0.3095
     22 C           3.9701   -1.1235   -0.9087 C.3     1  UNL1        0.0228
     23 C           5.3150   -1.7076   -1.2165 C.ar    1  UNL1       -0.0143
     24 C           5.4895   -3.0637   -1.2978 C.ar    1  UNL1        0.0320
     25 N           6.7166   -3.5789   -1.5819 N.ar    1  UNL1       -0.2617
     26 C           7.7983   -2.8038   -1.7929 C.ar    1  UNL1        0.0449
     27 C           7.6675   -1.4238   -1.7201 C.ar    1  UNL1        0.0701
     28 C           8.7659   -0.5354   -1.9341 C.1     1  UNL1        0.1007
     29 N           9.6432    0.1946   -2.1178 N.1     1  UNL1       -0.1908
     30 C           6.4024   -0.9015   -1.4274 C.ar    1  UNL1       -0.0370
     31 C          -2.7432   -0.1754   -0.0539 C.ar    1  UNL1       -0.0269
     32 C          -3.9255   -0.8077   -0.4220 C.ar    1  UNL1        0.0533
     33 N          -4.6409   -1.6386    0.4536 N.pl3   1  UNL1       -0.2073
     34 C          -5.6332   -1.0708    1.3248 C.3     1  UNL1        0.0346
     35 C          -6.9096   -1.8501    1.1710 C.3     1  UNL1       -0.0340
     36 C          -6.7830   -3.2497    1.7307 C.3     1  UNL1       -0.0304
     37 C          -5.8817   -4.1275    0.9105 C.3     1  UNL1        0.0850
     38 S          -4.3524   -3.3188    0.5143 S.O2    1  UNL1        0.0455
     39 O          -3.7566   -3.8549   -0.7532 O.2     1  UNL1       -0.1550
     40 O          -3.3772   -3.6688    1.6348 O.2     1  UNL1       -0.1550
     41 C          -4.3924   -0.5677   -1.6929 C.ar    1  UNL1       -0.0182
     42 H          -2.5284    3.1947   -4.3812 H       1  UNL1        0.0245
     43 H          -3.9349    2.8134   -3.2346 H       1  UNL1        0.0245
     44 H          -4.2018    3.4204   -4.8948 H       1  UNL1        0.0245
     45 H          -2.4714    0.9948   -4.8153 H       1  UNL1        0.0458
     46 H          -3.9813    1.2903   -5.8226 H       1  UNL1        0.0458
     47 H          -5.1250   -0.0082   -4.1376 H       1  UNL1        0.1461
     48 H          -1.9724    1.5330   -2.8046 H       1  UNL1        0.0643
     49 H          -0.4341    0.0433    1.2395 H       1  UNL1        0.1494
     50 H           1.0577    2.5666    0.7284 H       1  UNL1        0.0527
     51 H           0.2521    2.4246    2.9584 H       1  UNL1        0.0332
     52 H           1.0527    0.7971    3.2644 H       1  UNL1        0.0332
     53 H           1.4626    4.3855    2.7595 H       1  UNL1        0.0620
     54 H           3.3680    5.7057    3.4318 H       1  UNL1        0.0618
     55 H           5.4084    4.5462    4.1927 H       1  UNL1        0.0618
     56 H           5.4721    2.0286    4.2554 H       1  UNL1        0.0618
     57 H           3.4938    0.7423    3.5655 H       1  UNL1        0.0620
     58 H           3.1986    1.5552    1.0068 H       1  UNL1        0.0624
     59 H           1.6664    0.4945   -1.1507 H       1  UNL1        0.2099
     60 H           1.7789   -1.0985    0.4693 H       1  UNL1        0.0450
     61 H           2.5019   -0.7332    2.0506 H       1  UNL1        0.0450
     62 H           4.6543   -0.4619    0.8738 H       1  UNL1        0.1223
     63 H           3.1767   -1.7426   -1.3665 H       1  UNL1        0.0474
     64 H           3.9445   -0.1540   -1.4646 H       1  UNL1        0.0474
     65 H           4.6944   -3.7615   -1.1459 H       1  UNL1        0.0833
     66 H           8.7700   -3.1954   -2.0187 H       1  UNL1        0.0842
     67 H           6.2973    0.1673   -1.3714 H       1  UNL1        0.0634
     68 H          -2.3924   -0.3772    0.9490 H       1  UNL1        0.0644
     69 H          -5.2926   -1.2299    2.3800 H       1  UNL1        0.0482
     70 H          -5.8219    0.0028    1.1226 H       1  UNL1        0.0482
     71 H          -7.6857   -1.3284    1.7671 H       1  UNL1        0.0281
     72 H          -7.2697   -1.9143    0.1374 H       1  UNL1        0.0281
     73 H          -7.8005   -3.6837    1.7010 H       1  UNL1        0.0282
     74 H          -6.4399   -3.2731    2.7693 H       1  UNL1        0.0282
     75 H          -6.4230   -4.4661    0.0166 H       1  UNL1        0.0518
     76 H          -5.6576   -5.0418    1.5067 H       1  UNL1        0.0518
     77 H          -5.3106   -1.0594   -1.9798 H       1  UNL1        0.0655
@<TRIPOS>BOND
     1     1     2    1
     2     2     3    1
     3     3     4    1
     4     4     5   ar
     5     5     6   ar
     6     6     7    1
     7     7     8    2
     8     7     9   am
     9     9    10    1
    10    10    11    1
    11    11    12    1
    12    12    13   ar
    13    13    14   ar
    14    14    15   ar
    15    15    16   ar
    16    16    17   ar
    17    10    18    1
    18    18    19    1
    19    18    20    1
    20    20    21    1
    21    21    22    1
    22    22    23    1
    23    23    24   ar
    24    24    25   ar
    25    25    26   ar
    26    26    27   ar
    27    27    28    1
    28    28    29    3
    29    27    30   ar
    30     6    31   ar
    31    31    32   ar
    32    32    33    1
    33    33    34    1
    34    34    35    1
    35    35    36    1
    36    36    37    1
    37    37    38    1
    38    38    39    2
    39    38    40    2
    40    32    41   ar
    41    41     4   ar
    42    17    12   ar
    43    30    23   ar
    44    38    33    1
    45     1    42    1
    46     1    43    1
    47     1    44    1
    48     2    45    1
    49     2    46    1
    50     3    47    1
    51     5    48    1
    52     9    49    1
    53    10    50    1
    54    11    51    1
    55    11    52    1
    56    13    53    1
    57    14    54    1
    58    15    55    1
    59    16    56    1
    60    17    57    1
    61    18    58    1
    62    19    59    1
    63    20    60    1
    64    20    61    1
    65    21    62    1
    66    22    63    1
    67    22    64    1
    68    24    65    1
    69    26    66    1
    70    30    67    1
    71    31    68    1
    72    34    69    1
    73    34    70    1
    74    35    71    1
    75    35    72    1
    76    36    73    1
    77    36    74    1
    78    37    75    1
    79    37    76    1
    80    41    77    1
