@<TRIPOS>MOLECULE
*****
 51 53 0 0 0
SMALL
GASTEIGER

@<TRIPOS>ATOM
      1 C           4.7336   -2.4473    0.0265 C.3     1  UNL1       -0.0375
      2 C           5.1994   -1.0381   -0.1160 C.ar    1  UNL1       -0.0187
      3 C           6.5134   -0.7911   -0.4945 C.ar    1  UNL1       -0.0378
      4 C           7.0090    0.4837   -0.6447 C.ar    1  UNL1        0.0701
      5 C           8.3742    0.7250   -1.0378 C.1     1  UNL1        0.1007
      6 N           9.4807    0.9412   -1.3552 N.1     1  UNL1       -0.1908
      7 C           6.1248    1.5126   -0.3974 C.ar    1  UNL1        0.0458
      8 N           4.8545    1.2837   -0.0316 N.ar    1  UNL1       -0.2488
      9 C           4.3571    0.0251    0.1190 C.ar    1  UNL1        0.1286
     10 C           2.9884   -0.2101    0.5131 C.2     1  UNL1        0.2668
     11 O           2.5797   -1.3862    0.6377 O.2     1  UNL1       -0.2682
     12 N           2.0564    0.8318    0.7741 N.am    1  UNL1       -0.2802
     13 C           0.7149    0.5580    1.1606 C.ar    1  UNL1        0.0345
     14 C           0.3142    0.4183    2.4701 C.ar    1  UNL1       -0.0348
     15 C          -0.9788    0.1535    2.8577 C.ar    1  UNL1       -0.0132
     16 C          -1.3639    0.0103    4.2977 C.3     1  UNL1       -0.0369
     17 C          -1.9198    0.0238    1.8389 C.ar    1  UNL1        0.1319
     18 F          -3.1739   -0.2452    2.2083 F       1  UNL1       -0.2048
     19 C          -1.5952    0.1505    0.5078 C.ar    1  UNL1        0.0198
     20 C          -2.6768   -0.0027   -0.5037 C.3     1  UNL1        0.1258
     21 C          -2.1434    0.1155   -1.9194 C.3     1  UNL1        0.1196
     22 F          -1.5598    1.3105   -2.1989 F       1  UNL1       -0.2462
     23 C          -3.6585    1.1280   -0.2971 C.3     1  UNL1        0.0251
     24 C          -5.0326    0.8575   -0.8106 C.3     1  UNL1        0.1998
     25 C          -5.4847    1.9714   -1.7134 C.3     1  UNL1        0.4266
     26 F          -5.4929    3.1567   -1.0067 F       1  UNL1       -0.1669
     27 F          -4.6062    2.1248   -2.7556 F       1  UNL1       -0.1669
     28 F          -6.7796    1.7587   -2.1475 F       1  UNL1       -0.1669
     29 O          -5.1852   -0.4062   -1.4267 O.2     1  UNL1       -0.4534
     30 C          -4.4863   -1.4660   -0.8675 C.2     1  UNL1        0.2766
     31 N          -5.0279   -2.7903   -0.7485 N.pl3   1  UNL1       -0.3134
     32 N          -3.2922   -1.3089   -0.4188 N.2     1  UNL1       -0.2228
     33 C          -0.2808    0.4158    0.1866 C.ar    1  UNL1       -0.0321
     34 H           5.5919   -3.1330   -0.2161 H       1  UNL1        0.0278
     35 H           4.4594   -2.6825    1.0772 H       1  UNL1        0.0278
     36 H           3.9384   -2.7088   -0.7082 H       1  UNL1        0.0278
     37 H           7.1765   -1.6163   -0.6796 H       1  UNL1        0.0634
     38 H           6.4410    2.5347   -0.4945 H       1  UNL1        0.0843
     39 H           2.3943    1.8139    0.6711 H       1  UNL1        0.1552
     40 H           1.0792    0.5268    3.2384 H       1  UNL1        0.0640
     41 H          -2.4053   -0.3326    4.3495 H       1  UNL1        0.0278
     42 H          -0.6556   -0.7596    4.7176 H       1  UNL1        0.0278
     43 H          -1.1882    0.9263    4.8707 H       1  UNL1        0.0278
     44 H          -1.4478   -0.7472   -2.1233 H       1  UNL1        0.0643
     45 H          -3.0076   -0.0438   -2.5959 H       1  UNL1        0.0643
     46 H          -3.6269    1.4159    0.7694 H       1  UNL1        0.0331
     47 H          -3.2024    2.0026   -0.8623 H       1  UNL1        0.0331
     48 H          -5.7245    0.8764    0.0780 H       1  UNL1        0.0826
     49 H          -4.8073   -3.4515   -1.5220 H       1  UNL1        0.1466
     50 H          -5.6001   -3.0028    0.0937 H       1  UNL1        0.1466
     51 H           0.0235    0.5174   -0.8343 H       1  UNL1        0.0640
@<TRIPOS>BOND
     1     1     2    1
     2     2     3   ar
     3     3     4   ar
     4     4     5    1
     5     5     6    3
     6     4     7   ar
     7     7     8   ar
     8     8     9   ar
     9     9    10    1
    10    10    11    2
    11    10    12   am
    12    12    13    1
    13    13    14   ar
    14    14    15   ar
    15    15    16    1
    16    15    17   ar
    17    17    18    1
    18    17    19   ar
    19    19    20    1
    20    20    21    1
    21    21    22    1
    22    20    23    1
    23    23    24    1
    24    24    25    1
    25    25    26    1
    26    25    27    1
    27    25    28    1
    28    24    29    1
    29    29    30    1
    30    30    31    1
    31    30    32    2
    32    19    33   ar
    33     9     2   ar
    34    33    13   ar
    35    32    20    1
    36     1    34    1
    37     1    35    1
    38     1    36    1
    39     3    37    1
    40     7    38    1
    41    12    39    1
    42    14    40    1
    43    16    41    1
    44    16    42    1
    45    16    43    1
    46    21    44    1
    47    21    45    1
    48    23    46    1
    49    23    47    1
    50    24    48    1
    51    31    49    1
    52    31    50    1
    53    33    51    1
