@<TRIPOS>MOLECULE
*****
 29 31 0 0 0
SMALL
GASTEIGER

@<TRIPOS>ATOM
      1 O          -1.7574    2.5805   -1.4177 O.2     1  UNL1       -0.2869
      2 C          -1.2240    1.5528   -0.9138 C.ar    1  UNL1        0.1966
      3 C           0.1532    1.4541   -0.8270 C.ar    1  UNL1        0.0288
      4 C           0.6970    0.3303   -0.2772 C.ar    1  UNL1        0.1392
      5 C           2.1611    0.2190   -0.1819 C.ar    1  UNL1        0.0174
      6 C           3.0336    1.1729   -0.6099 C.ar    1  UNL1       -0.0511
      7 C           4.4241    1.0020   -0.4884 C.ar    1  UNL1       -0.0611
      8 C           4.9558   -0.1340    0.0668 C.ar    1  UNL1       -0.0617
      9 C           4.0833   -1.1058    0.5034 C.ar    1  UNL1       -0.0611
     10 C           2.7252   -0.9350    0.3829 C.ar    1  UNL1       -0.0511
     11 O          -0.0511   -0.6524    0.1681 O.2     1  UNL1       -0.4544
     12 C          -1.3469   -0.5805    0.0964 C.ar    1  UNL1        0.1462
     13 C          -2.1547   -1.6268    0.5703 C.ar    1  UNL1        0.0231
     14 C          -3.5264   -1.5363    0.4875 C.ar    1  UNL1        0.1239
     15 O          -4.2869   -2.5923    0.9673 O.3     1  UNL1       -0.5065
     16 C          -4.1660   -0.4531   -0.0458 C.ar    1  UNL1        0.0223
     17 C          -3.3717    0.5813   -0.5144 C.ar    1  UNL1        0.1347
     18 O          -3.9300    1.7352   -1.0789 O.3     1  UNL1       -0.5058
     19 C          -2.0060    0.5123   -0.4420 C.ar    1  UNL1        0.1055
     20 H           0.7245    2.2805   -1.2032 H       1  UNL1        0.0693
     21 H           2.6452    2.0791   -1.0518 H       1  UNL1        0.0625
     22 H           5.0805    1.7790   -0.8387 H       1  UNL1        0.0618
     23 H           6.0326   -0.2909    0.1726 H       1  UNL1        0.0618
     24 H           4.5182   -1.9964    0.9392 H       1  UNL1        0.0618
     25 H           2.0266   -1.6966    0.7245 H       1  UNL1        0.0625
     26 H          -1.6707   -2.4996    0.9991 H       1  UNL1        0.0691
     27 H          -4.5108   -3.3891    0.3777 H       1  UNL1        0.2921
     28 H          -5.2262   -0.3593   -0.1211 H       1  UNL1        0.0691
     29 H          -4.0321    2.5689   -0.5235 H       1  UNL1        0.2922
@<TRIPOS>BOND
     1     1     2    2
     2     2     3   ar
     3     3     4   ar
     4     4     5    1
     5     5     6   ar
     6     6     7   ar
     7     7     8   ar
     8     8     9   ar
     9     9    10   ar
    10     4    11   ar
    11    11    12   ar
    12    12    13   ar
    13    13    14   ar
    14    14    15    1
    15    14    16   ar
    16    16    17   ar
    17    17    18    1
    18    17    19   ar
    19    19     2   ar
    20    10     5   ar
    21    19    12   ar
    22     3    20    1
    23     6    21    1
    24     7    22    1
    25     8    23    1
    26     9    24    1
    27    10    25    1
    28    13    26    1
    29    15    27    1
    30    16    28    1
    31    18    29    1
