@<TRIPOS>MOLECULE
*****
 92 92 0 0 0
SMALL
GASTEIGER

@<TRIPOS>ATOM
      1 C           9.1827    1.6622   -0.1253 C.3     1  UNL1        0.0364
      2 O           9.0461    0.8276   -1.2058 O.3     1  UNL1       -0.3829
      3 C           9.3626   -0.4986   -0.9641 C.3     1  UNL1        0.0504
      4 C           8.5174   -1.1403    0.1057 C.3     1  UNL1        0.0049
      5 C           7.0450   -1.1145   -0.2442 C.3     1  UNL1        0.0918
      6 O           6.2851   -1.7180    0.7618 O.3     1  UNL1       -0.4882
      7 C           4.9108   -1.8403    0.7342 C.ar    1  UNL1        0.1621
      8 C           4.1172   -1.3821   -0.2962 C.ar    1  UNL1       -0.0131
      9 C           2.7480   -1.4924   -0.3426 C.ar    1  UNL1       -0.0434
     10 C           1.8754   -1.0152   -1.4237 C.3     1  UNL1       -0.0244
     11 C           1.3308    0.4182   -1.2052 C.3     1  UNL1       -0.0332
     12 C           0.5873    0.3789    0.0583 C.3     1  UNL1       -0.0320
     13 C          -0.1422    1.6178    0.4991 C.3     1  UNL1        0.0314
     14 N          -0.7086    1.2857    1.7970 N.3     1  UNL1       -0.3251
     15 C          -1.2640    1.9813   -0.4281 C.3     1  UNL1        0.0710
     16 O          -0.8439    2.3163   -1.7137 O.3     1  UNL1       -0.3902
     17 C          -2.4114    1.0674   -0.5450 C.3     1  UNL1       -0.0140
     18 C          -3.2418    0.7966    0.6423 C.3     1  UNL1        0.0402
     19 C          -4.3336   -0.1633    0.2905 C.2     1  UNL1        0.2165
     20 O          -4.4424   -1.2321    0.9283 O.2     1  UNL1       -0.2755
     21 N          -5.2334    0.1271   -0.7497 N.am    1  UNL1       -0.3141
     22 C          -6.3325   -0.6622   -1.2098 C.3     1  UNL1        0.0250
     23 C          -7.4773   -0.9195   -0.3174 C.3     1  UNL1        0.0566
     24 C          -8.1581    0.3508    0.1601 C.3     1  UNL1       -0.0500
     25 C          -7.2461   -1.8160    0.8526 C.3     1  UNL1       -0.0500
     26 C          -8.5648   -1.6104   -1.1533 C.2     1  UNL1        0.2176
     27 N          -8.2637   -2.8465   -1.7500 N.am    1  UNL1       -0.3288
     28 O          -9.6921   -1.1056   -1.3108 O.2     1  UNL1       -0.2754
     29 C          -3.8179    1.9712    1.3544 C.3     1  UNL1       -0.0355
     30 C          -4.6288    1.4127    2.5360 C.3     1  UNL1       -0.0620
     31 C          -4.7431    2.8358    0.5696 C.3     1  UNL1       -0.0620
     32 C           2.5313    1.2822   -1.3154 C.3     1  UNL1       -0.0435
     33 C           2.4058    2.7448   -1.1295 C.3     1  UNL1       -0.0624
     34 C           3.0317    1.0938   -2.7702 C.3     1  UNL1       -0.0624
     35 C           2.1590   -2.1262    0.7605 C.ar    1  UNL1       -0.0549
     36 C           2.9206   -2.5953    1.8054 C.ar    1  UNL1       -0.0160
     37 C           4.2929   -2.4620    1.8106 C.ar    1  UNL1        0.1615
     38 O           5.0116   -2.9507    2.8861 O.3     1  UNL1       -0.4915
     39 C           4.3424   -3.5751    3.9598 C.3     1  UNL1        0.0790
     40 H           8.5300    1.3493    0.7032 H       1  UNL1        0.0523
     41 H           8.9362    2.7073   -0.3893 H       1  UNL1        0.0523
     42 H          10.2156    1.6897    0.2884 H       1  UNL1        0.0523
     43 H           9.3512   -1.0497   -1.9220 H       1  UNL1        0.0561
     44 H          10.4242   -0.5622   -0.5799 H       1  UNL1        0.0561
     45 H           8.7309   -0.6367    1.0576 H       1  UNL1        0.0320
     46 H           8.8407   -2.2177    0.1438 H       1  UNL1        0.0320
     47 H           6.7538   -0.0275   -0.2776 H       1  UNL1        0.0697
     48 H           6.8517   -1.5092   -1.2552 H       1  UNL1        0.0697
     49 H           4.6389   -0.9179   -1.1331 H       1  UNL1        0.0658
     50 H           2.3550   -1.0812   -2.4237 H       1  UNL1        0.0316
     51 H           0.9963   -1.7156   -1.4710 H       1  UNL1        0.0316
     52 H           0.7060    0.5978   -2.1077 H       1  UNL1        0.0307
     53 H           1.2971    0.1326    0.8927 H       1  UNL1        0.0284
     54 H          -0.1855   -0.4321    0.0467 H       1  UNL1        0.0284
     55 H           0.4800    2.5066    0.6436 H       1  UNL1        0.0484
     56 H          -0.7984    2.1206    2.4113 H       1  UNL1        0.1185
     57 H          -0.2182    0.4907    2.2549 H       1  UNL1        0.1185
     58 H          -1.6693    2.9585   -0.0139 H       1  UNL1        0.0609
     59 H          -1.6362    2.5463   -2.2531 H       1  UNL1        0.2098
     60 H          -3.0888    1.4091   -1.3931 H       1  UNL1        0.0298
     61 H          -2.0783    0.0519   -0.9344 H       1  UNL1        0.0298
     62 H          -2.6262    0.2430    1.4023 H       1  UNL1        0.0397
     63 H          -5.0319    1.0752   -1.2396 H       1  UNL1        0.1487
     64 H          -5.8823   -1.6538   -1.5100 H       1  UNL1        0.0472
     65 H          -6.7228   -0.1564   -2.1453 H       1  UNL1        0.0472
     66 H          -8.1012    1.1275   -0.6243 H       1  UNL1        0.0240
     67 H          -7.7115    0.7293    1.1094 H       1  UNL1        0.0240
     68 H          -9.2102    0.1199    0.3597 H       1  UNL1        0.0240
     69 H          -8.2849   -2.2017    1.1340 H       1  UNL1        0.0240
     70 H          -6.6060   -2.6979    0.6518 H       1  UNL1        0.0240
     71 H          -6.9375   -1.2299    1.7470 H       1  UNL1        0.0240
     72 H          -7.3527   -2.9800   -2.2212 H       1  UNL1        0.1449
     73 H          -8.9459   -3.6221   -1.7212 H       1  UNL1        0.1449
     74 H          -3.0712    2.6377    1.8369 H       1  UNL1        0.0303
     75 H          -4.7631    2.2516    3.2447 H       1  UNL1        0.0233
     76 H          -4.0433    0.6028    3.0199 H       1  UNL1        0.0233
     77 H          -5.6229    1.0917    2.2097 H       1  UNL1        0.0233
     78 H          -4.3691    3.1834   -0.4019 H       1  UNL1        0.0233
     79 H          -5.7723    2.4220    0.5600 H       1  UNL1        0.0233
     80 H          -4.8564    3.7936    1.1725 H       1  UNL1        0.0233
     81 H           3.3555    0.9449   -0.6447 H       1  UNL1        0.0298
     82 H           1.5841    3.2624   -1.6150 H       1  UNL1        0.0232
     83 H           2.6116    3.0682   -0.0706 H       1  UNL1        0.0232
     84 H           3.3302    3.1856   -1.6596 H       1  UNL1        0.0232
     85 H           3.8964    0.4527   -2.8433 H       1  UNL1        0.0232
     86 H           3.2867    2.0914   -3.2264 H       1  UNL1        0.0232
     87 H           2.2323    0.6925   -3.4170 H       1  UNL1        0.0232
     88 H           1.0719   -2.2608    0.7953 H       1  UNL1        0.0621
     89 H           2.4673   -3.0914    2.6708 H       1  UNL1        0.0655
     90 H           5.0948   -4.0645    4.6220 H       1  UNL1        0.0660
     91 H           3.6907   -4.4272    3.6124 H       1  UNL1        0.0660
     92 H           3.6988   -2.9045    4.5315 H       1  UNL1        0.0660
@<TRIPOS>BOND
     1     1     2    1
     2     2     3    1
     3     3     4    1
     4     4     5    1
     5     5     6    1
     6     6     7    1
     7     7     8   ar
     8     8     9   ar
     9     9    10    1
    10    10    11    1
    11    11    12    1
    12    12    13    1
    13    13    14    1
    14    13    15    1
    15    15    16    1
    16    15    17    1
    17    17    18    1
    18    18    19    1
    19    19    20    2
    20    19    21   am
    21    21    22    1
    22    22    23    1
    23    23    24    1
    24    23    25    1
    25    23    26    1
    26    26    27   am
    27    26    28    2
    28    18    29    1
    29    29    30    1
    30    29    31    1
    31    11    32    1
    32    32    33    1
    33    32    34    1
    34     9    35   ar
    35    35    36   ar
    36    36    37   ar
    37    37    38    1
    38    38    39    1
    39    37     7   ar
    40     1    40    1
    41     1    41    1
    42     1    42    1
    43     3    43    1
    44     3    44    1
    45     4    45    1
    46     4    46    1
    47     5    47    1
    48     5    48    1
    49     8    49    1
    50    10    50    1
    51    10    51    1
    52    11    52    1
    53    12    53    1
    54    12    54    1
    55    13    55    1
    56    14    56    1
    57    14    57    1
    58    15    58    1
    59    16    59    1
    60    17    60    1
    61    17    61    1
    62    18    62    1
    63    21    63    1
    64    22    64    1
    65    22    65    1
    66    24    66    1
    67    24    67    1
    68    24    68    1
    69    25    69    1
    70    25    70    1
    71    25    71    1
    72    27    72    1
    73    27    73    1
    74    29    74    1
    75    30    75    1
    76    30    76    1
    77    30    77    1
    78    31    78    1
    79    31    79    1
    80    31    80    1
    81    32    81    1
    82    33    82    1
    83    33    83    1
    84    33    84    1
    85    34    85    1
    86    34    86    1
    87    34    87    1
    88    35    88    1
    89    36    89    1
    90    39    90    1
    91    39    91    1
    92    39    92    1
