
     RDKit          3D

 92 92  0  0  0  0  0  0  0  0999 V2000
    9.1827    1.6622   -0.1253 C   0  0  0  0  0  0  0  0  0  0  0  0
    9.0461    0.8276   -1.2058 O   0  0  0  0  0  0  0  0  0  0  0  0
    9.3626   -0.4986   -0.9641 C   0  0  0  0  0  0  0  0  0  0  0  0
    8.5174   -1.1403    0.1057 C   0  0  0  0  0  0  0  0  0  0  0  0
    7.0450   -1.1145   -0.2442 C   0  0  0  0  0  0  0  0  0  0  0  0
    6.2851   -1.7180    0.7618 O   0  0  0  0  0  0  0  0  0  0  0  0
    4.9108   -1.8403    0.7342 C   0  0  0  0  0  0  0  0  0  0  0  0
    4.1172   -1.3821   -0.2962 C   0  0  0  0  0  0  0  0  0  0  0  0
    2.7480   -1.4924   -0.3426 C   0  0  0  0  0  0  0  0  0  0  0  0
    1.8754   -1.0152   -1.4237 C   0  0  0  0  0  0  0  0  0  0  0  0
    1.3308    0.4182   -1.2052 C   0  0  1  0  0  0  0  0  0  0  0  0
    0.5873    0.3789    0.0583 C   0  0  0  0  0  0  0  0  0  0  0  0
   -0.1422    1.6178    0.4991 C   0  0  2  0  0  0  0  0  0  0  0  0
   -0.7086    1.2857    1.7970 N   0  0  0  0  0  0  0  0  0  0  0  0
   -1.2640    1.9813   -0.4281 C   0  0  1  0  0  0  0  0  0  0  0  0
   -0.8439    2.3163   -1.7137 O   0  0  0  0  0  0  0  0  0  0  0  0
   -2.4114    1.0674   -0.5450 C   0  0  0  0  0  0  0  0  0  0  0  0
   -3.2418    0.7966    0.6423 C   0  0  2  0  0  0  0  0  0  0  0  0
   -4.3336   -0.1633    0.2905 C   0  0  0  0  0  0  0  0  0  0  0  0
   -4.4424   -1.2321    0.9283 O   0  0  0  0  0  0  0  0  0  0  0  0
   -5.2334    0.1271   -0.7497 N   0  0  0  0  0  0  0  0  0  0  0  0
   -6.3325   -0.6622   -1.2098 C   0  0  0  0  0  0  0  0  0  0  0  0
   -7.4773   -0.9195   -0.3174 C   0  0  0  0  0  0  0  0  0  0  0  0
   -8.1581    0.3508    0.1601 C   0  0  0  0  0  0  0  0  0  0  0  0
   -7.2461   -1.8160    0.8526 C   0  0  0  0  0  0  0  0  0  0  0  0
   -8.5648   -1.6104   -1.1533 C   0  0  0  0  0  0  0  0  0  0  0  0
   -8.2637   -2.8465   -1.7500 N   0  0  0  0  0  0  0  0  0  0  0  0
   -9.6921   -1.1056   -1.3108 O   0  0  0  0  0  0  0  0  0  0  0  0
   -3.8179    1.9712    1.3544 C   0  0  0  0  0  0  0  0  0  0  0  0
   -4.6288    1.4127    2.5360 C   0  0  0  0  0  0  0  0  0  0  0  0
   -4.7431    2.8358    0.5696 C   0  0  0  0  0  0  0  0  0  0  0  0
    2.5313    1.2822   -1.3154 C   0  0  0  0  0  0  0  0  0  0  0  0
    2.4058    2.7448   -1.1295 C   0  0  0  0  0  0  0  0  0  0  0  0
    3.0317    1.0938   -2.7702 C   0  0  0  0  0  0  0  0  0  0  0  0
    2.1590   -2.1262    0.7605 C   0  0  0  0  0  0  0  0  0  0  0  0
    2.9206   -2.5953    1.8054 C   0  0  0  0  0  0  0  0  0  0  0  0
    4.2929   -2.4620    1.8106 C   0  0  0  0  0  0  0  0  0  0  0  0
    5.0116   -2.9507    2.8861 O   0  0  0  0  0  0  0  0  0  0  0  0
    4.3424   -3.5751    3.9598 C   0  0  0  0  0  0  0  0  0  0  0  0
    8.5300    1.3493    0.7032 H   0  0  0  0  0  0  0  0  0  0  0  0
    8.9362    2.7073   -0.3893 H   0  0  0  0  0  0  0  0  0  0  0  0
   10.2156    1.6897    0.2884 H   0  0  0  0  0  0  0  0  0  0  0  0
    9.3512   -1.0497   -1.9220 H   0  0  0  0  0  0  0  0  0  0  0  0
   10.4242   -0.5622   -0.5799 H   0  0  0  0  0  0  0  0  0  0  0  0
    8.7309   -0.6367    1.0576 H   0  0  0  0  0  0  0  0  0  0  0  0
    8.8407   -2.2177    0.1438 H   0  0  0  0  0  0  0  0  0  0  0  0
    6.7538   -0.0275   -0.2776 H   0  0  0  0  0  0  0  0  0  0  0  0
    6.8517   -1.5092   -1.2552 H   0  0  0  0  0  0  0  0  0  0  0  0
    4.6389   -0.9179   -1.1331 H   0  0  0  0  0  0  0  0  0  0  0  0
    2.3550   -1.0812   -2.4237 H   0  0  0  0  0  0  0  0  0  0  0  0
    0.9963   -1.7156   -1.4710 H   0  0  0  0  0  0  0  0  0  0  0  0
    0.7060    0.5978   -2.1077 H   0  0  0  0  0  0  0  0  0  0  0  0
    1.2971    0.1326    0.8927 H   0  0  0  0  0  0  0  0  0  0  0  0
   -0.1855   -0.4321    0.0467 H   0  0  0  0  0  0  0  0  0  0  0  0
    0.4800    2.5066    0.6436 H   0  0  0  0  0  0  0  0  0  0  0  0
   -0.7984    2.1206    2.4113 H   0  0  0  0  0  0  0  0  0  0  0  0
   -0.2182    0.4907    2.2549 H   0  0  0  0  0  0  0  0  0  0  0  0
   -1.6693    2.9585   -0.0139 H   0  0  0  0  0  0  0  0  0  0  0  0
   -1.6362    2.5463   -2.2531 H   0  0  0  0  0  0  0  0  0  0  0  0
   -3.0888    1.4091   -1.3931 H   0  0  0  0  0  0  0  0  0  0  0  0
   -2.0783    0.0519   -0.9344 H   0  0  0  0  0  0  0  0  0  0  0  0
   -2.6262    0.2430    1.4023 H   0  0  0  0  0  0  0  0  0  0  0  0
   -5.0319    1.0752   -1.2396 H   0  0  0  0  0  0  0  0  0  0  0  0
   -5.8823   -1.6538   -1.5100 H   0  0  0  0  0  0  0  0  0  0  0  0
   -6.7228   -0.1564   -2.1453 H   0  0  0  0  0  0  0  0  0  0  0  0
   -8.1012    1.1275   -0.6243 H   0  0  0  0  0  0  0  0  0  0  0  0
   -7.7115    0.7293    1.1094 H   0  0  0  0  0  0  0  0  0  0  0  0
   -9.2102    0.1199    0.3597 H   0  0  0  0  0  0  0  0  0  0  0  0
   -8.2849   -2.2017    1.1340 H   0  0  0  0  0  0  0  0  0  0  0  0
   -6.6060   -2.6979    0.6518 H   0  0  0  0  0  0  0  0  0  0  0  0
   -6.9375   -1.2299    1.7470 H   0  0  0  0  0  0  0  0  0  0  0  0
   -7.3527   -2.9800   -2.2212 H   0  0  0  0  0  0  0  0  0  0  0  0
   -8.9459   -3.6221   -1.7212 H   0  0  0  0  0  0  0  0  0  0  0  0
   -3.0712    2.6377    1.8369 H   0  0  0  0  0  0  0  0  0  0  0  0
   -4.7631    2.2516    3.2447 H   0  0  0  0  0  0  0  0  0  0  0  0
   -4.0433    0.6028    3.0199 H   0  0  0  0  0  0  0  0  0  0  0  0
   -5.6229    1.0917    2.2097 H   0  0  0  0  0  0  0  0  0  0  0  0
   -4.3691    3.1834   -0.4019 H   0  0  0  0  0  0  0  0  0  0  0  0
   -5.7723    2.4220    0.5600 H   0  0  0  0  0  0  0  0  0  0  0  0
   -4.8564    3.7936    1.1725 H   0  0  0  0  0  0  0  0  0  0  0  0
    3.3555    0.9449   -0.6447 H   0  0  0  0  0  0  0  0  0  0  0  0
    1.5841    3.2624   -1.6150 H   0  0  0  0  0  0  0  0  0  0  0  0
    2.6116    3.0682   -0.0706 H   0  0  0  0  0  0  0  0  0  0  0  0
    3.3302    3.1856   -1.6596 H   0  0  0  0  0  0  0  0  0  0  0  0
    3.8964    0.4527   -2.8433 H   0  0  0  0  0  0  0  0  0  0  0  0
    3.2867    2.0914   -3.2264 H   0  0  0  0  0  0  0  0  0  0  0  0
    2.2323    0.6925   -3.4170 H   0  0  0  0  0  0  0  0  0  0  0  0
    1.0719   -2.2608    0.7953 H   0  0  0  0  0  0  0  0  0  0  0  0
    2.4673   -3.0914    2.6708 H   0  0  0  0  0  0  0  0  0  0  0  0
    5.0948   -4.0645    4.6220 H   0  0  0  0  0  0  0  0  0  0  0  0
    3.6907   -4.4272    3.6124 H   0  0  0  0  0  0  0  0  0  0  0  0
    3.6988   -2.9045    4.5315 H   0  0  0  0  0  0  0  0  0  0  0  0
  1  2  1  0
  2  3  1  0
  3  4  1  0
  4  5  1  0
  5  6  1  0
  6  7  1  0
  7  8  2  0
  8  9  1  0
  9 10  1  0
 10 11  1  0
 11 12  1  0
 12 13  1  0
 13 14  1  0
 13 15  1  0
 15 16  1  0
 15 17  1  0
 17 18  1  0
 18 19  1  0
 19 20  2  0
 19 21  1  0
 21 22  1  0
 22 23  1  0
 23 24  1  0
 23 25  1  0
 23 26  1  0
 26 27  1  0
 26 28  2  0
 18 29  1  0
 29 30  1  0
 29 31  1  0
 11 32  1  0
 32 33  1  0
 32 34  1  0
  9 35  2  0
 35 36  1  0
 36 37  2  0
 37 38  1  0
 38 39  1  0
 37  7  1  0
  1 40  1  0
  1 41  1  0
  1 42  1  0
  3 43  1  0
  3 44  1  0
  4 45  1  0
  4 46  1  0
  5 47  1  0
  5 48  1  0
  8 49  1  0
 10 50  1  0
 10 51  1  0
 11 52  1  6
 12 53  1  0
 12 54  1  0
 13 55  1  1
 14 56  1  0
 14 57  1  0
 15 58  1  1
 16 59  1  0
 17 60  1  0
 17 61  1  0
 18 62  1  1
 21 63  1  0
 22 64  1  0
 22 65  1  0
 24 66  1  0
 24 67  1  0
 24 68  1  0
 25 69  1  0
 25 70  1  0
 25 71  1  0
 27 72  1  0
 27 73  1  0
 29 74  1  0
 30 75  1  0
 30 76  1  0
 30 77  1  0
 31 78  1  0
 31 79  1  0
 31 80  1  0
 32 81  1  0
 33 82  1  0
 33 83  1  0
 33 84  1  0
 34 85  1  0
 34 86  1  0
 34 87  1  0
 35 88  1  0
 36 89  1  0
 39 90  1  0
 39 91  1  0
 39 92  1  0
M  END
$$$$
