@<TRIPOS>MOLECULE
*****
 66 69 0 0 0
SMALL
GASTEIGER

@<TRIPOS>ATOM
      1 C          -8.4730   -1.0160    2.5129 C.3     1  UNL1        0.0789
      2 O          -8.8143   -1.1901    1.1422 O.3     1  UNL1       -0.4933
      3 C          -8.8925   -0.0772    0.3155 C.ar    1  UNL1        0.1450
      4 C         -10.0896    0.5916    0.1821 C.ar    1  UNL1        0.0603
      5 BR        -11.6325   -0.0063    1.1271 Br      1  UNL1       -0.0465
      6 C         -10.1514    1.7084   -0.6530 C.ar    1  UNL1       -0.0407
      7 C          -9.0373    2.1489   -1.3422 C.ar    1  UNL1       -0.0175
      8 C          -7.8311    1.4850   -1.2154 C.ar    1  UNL1        0.1392
      9 O          -6.6291    1.6663   -1.7344 O.2     1  UNL1       -0.4558
     10 C          -5.7854    0.7626   -1.3096 C.ar    1  UNL1        0.1465
     11 C          -4.3458    0.5834   -1.6279 C.3     1  UNL1        0.1472
     12 O          -3.5076    1.0242   -0.5606 O.3     1  UNL1       -0.4843
     13 C          -2.1378    0.9098   -0.7347 C.ar    1  UNL1        0.1212
     14 C          -1.5846    0.3929   -1.8853 C.ar    1  UNL1       -0.0193
     15 C          -0.2210    0.2797   -2.0575 C.ar    1  UNL1       -0.0506
     16 C           0.6593    0.6889   -1.0619 C.ar    1  UNL1       -0.0177
     17 C           2.1035    0.5638   -1.2559 C.ar    1  UNL1       -0.0178
     18 C           2.9280    1.4891   -0.6516 C.ar    1  UNL1       -0.0522
     19 C           4.3202    1.4211   -0.8008 C.ar    1  UNL1       -0.0348
     20 C           4.8998    0.4269   -1.5554 C.ar    1  UNL1        0.1053
     21 S           6.6334    0.3151   -1.7540 S.O2    1  UNL1        0.0591
     22 O           7.0124   -0.1149   -3.1271 O.2     1  UNL1       -0.1530
     23 O           7.1822    1.7024   -1.4481 O.2     1  UNL1       -0.1530
     24 N           7.2502   -0.7410   -0.5485 N.3     1  UNL1       -0.1759
     25 C           7.0006   -0.2520    0.7707 C.3     1  UNL1        0.1276
     26 C           6.1784   -1.2012    1.5755 C.2     1  UNL1        0.3238
     27 O           5.8079   -2.2758    1.0454 O.2     1  UNL1       -0.2492
     28 O           5.8042   -0.9528    2.8808 O.3     1  UNL1       -0.4795
     29 C           8.3412   -0.0129    1.4770 C.3     1  UNL1       -0.0194
     30 C           8.0928    0.5061    2.8775 C.3     1  UNL1       -0.0607
     31 C           9.1838   -1.2690    1.4717 C.3     1  UNL1       -0.0607
     32 C           4.0558   -0.5045   -2.1627 C.ar    1  UNL1       -0.0348
     33 C           2.6871   -0.4246   -2.0069 C.ar    1  UNL1       -0.0522
     34 C           0.0980    1.2052    0.0870 C.ar    1  UNL1       -0.0506
     35 C          -1.2738    1.3174    0.2563 C.ar    1  UNL1       -0.0193
     36 C          -6.4961   -0.0718   -0.4462 C.ar    1  UNL1        0.0052
     37 C          -5.9908   -1.2365    0.2853 C.3     1  UNL1       -0.0356
     38 C          -7.7972    0.3837   -0.3834 C.ar    1  UNL1        0.0661
     39 H          -7.9025   -0.0693    2.6608 H       1  UNL1        0.0660
     40 H          -9.3552   -1.0375    3.1682 H       1  UNL1        0.0660
     41 H          -7.7418   -1.8316    2.7873 H       1  UNL1        0.0660
     42 H         -11.1139    2.2031   -0.7275 H       1  UNL1        0.0631
     43 H          -9.1077    3.0119   -1.9806 H       1  UNL1        0.0655
     44 H          -4.0899    1.2159   -2.5043 H       1  UNL1        0.0779
     45 H          -4.1122   -0.4607   -1.9219 H       1  UNL1        0.0779
     46 H          -2.2776    0.0719   -2.6665 H       1  UNL1        0.0654
     47 H           0.2035   -0.1258   -2.9607 H       1  UNL1        0.0625
     48 H           2.5506    2.3103   -0.0352 H       1  UNL1        0.0624
     49 H           4.9518    2.1581   -0.3221 H       1  UNL1        0.0637
     50 H           6.7976   -1.6828   -0.6437 H       1  UNL1        0.1489
     51 H           6.4700    0.6994    0.7824 H       1  UNL1        0.0595
     52 H           5.8261   -1.7150    3.5765 H       1  UNL1        0.2951
     53 H           8.8456    0.7953    0.8759 H       1  UNL1        0.0316
     54 H           8.2805   -0.3016    3.6369 H       1  UNL1        0.0233
     55 H           8.8672    1.2945    3.1075 H       1  UNL1        0.0233
     56 H           7.1159    0.9865    2.9988 H       1  UNL1        0.0233
     57 H           9.8691   -1.2897    0.5750 H       1  UNL1        0.0233
     58 H           8.5093   -2.1623    1.3795 H       1  UNL1        0.0233
     59 H           9.7635   -1.2986    2.4128 H       1  UNL1        0.0233
     60 H           4.5317   -1.2819   -2.7549 H       1  UNL1        0.0637
     61 H           2.0375   -1.1632   -2.4899 H       1  UNL1        0.0624
     62 H           0.7370    1.5380    0.8926 H       1  UNL1        0.0625
     63 H          -1.7093    1.7305    1.1764 H       1  UNL1        0.0654
     64 H          -5.1344   -1.6554   -0.3104 H       1  UNL1        0.0279
     65 H          -5.6134   -1.0276    1.2915 H       1  UNL1        0.0279
     66 H          -6.7473   -2.0446    0.3118 H       1  UNL1        0.0279
@<TRIPOS>BOND
     1     1     2    1
     2     2     3    1
     3     3     4   ar
     4     4     5    1
     5     4     6   ar
     6     6     7   ar
     7     7     8   ar
     8     8     9   ar
     9     9    10   ar
    10    10    11    1
    11    11    12    1
    12    12    13    1
    13    13    14   ar
    14    14    15   ar
    15    15    16   ar
    16    16    17    1
    17    17    18   ar
    18    18    19   ar
    19    19    20   ar
    20    20    21    1
    21    21    22    2
    22    21    23    2
    23    21    24    1
    24    24    25    1
    25    25    26    1
    26    26    27    2
    27    26    28    1
    28    25    29    1
    29    29    30    1
    30    29    31    1
    31    20    32   ar
    32    32    33   ar
    33    16    34   ar
    34    34    35   ar
    35    10    36   ar
    36    36    37    1
    37    36    38   ar
    38    38     3   ar
    39    38     8   ar
    40    35    13   ar
    41    33    17   ar
    42     1    39    1
    43     1    40    1
    44     1    41    1
    45     6    42    1
    46     7    43    1
    47    11    44    1
    48    11    45    1
    49    14    46    1
    50    15    47    1
    51    18    48    1
    52    19    49    1
    53    24    50    1
    54    25    51    1
    55    28    52    1
    56    29    53    1
    57    30    54    1
    58    30    55    1
    59    30    56    1
    60    31    57    1
    61    31    58    1
    62    31    59    1
    63    32    60    1
    64    33    61    1
    65    34    62    1
    66    35    63    1
    67    37    64    1
    68    37    65    1
    69    37    66    1
