
     RDKit          3D

 55 57  0  0  0  0  0  0  0  0999 V2000
   -5.9137   -2.0802    2.4969 C   0  0  0  0  0  0  0  0  0  0  0  0
   -6.1631   -0.8635    1.8517 O   0  0  0  0  0  0  0  0  0  0  0  0
   -5.2421   -0.3718    0.9399 C   0  0  0  0  0  0  0  0  0  0  0  0
   -4.0722   -1.0571    0.6474 C   0  0  0  0  0  0  0  0  0  0  0  0
   -3.1302   -0.6129   -0.2478 C   0  0  0  0  0  0  0  0  0  0  0  0
   -3.3383    0.5769   -0.9013 C   0  0  0  0  0  0  0  0  0  0  0  0
   -4.4921    1.2722   -0.6256 C   0  0  0  0  0  0  0  0  0  0  0  0
   -5.4435    0.8338    0.2717 C   0  0  0  0  0  0  0  0  0  0  0  0
   -6.6103    1.5046    0.5754 O   0  0  0  0  0  0  0  0  0  0  0  0
   -6.9637    2.7320    0.0048 C   0  0  0  0  0  0  0  0  0  0  0  0
   -2.3586    0.9717   -1.7753 C   0  0  0  0  0  0  0  0  0  0  0  0
   -2.5288    2.1812   -2.4709 N   0  0  0  0  0  0  0  0  0  0  0  0
   -1.2519    0.2382   -1.9832 N   0  0  0  0  0  0  0  0  0  0  0  0
   -1.0578   -0.9313   -1.3324 C   0  0  0  0  0  0  0  0  0  0  0  0
   -2.0170   -1.3087   -0.4841 N   0  0  0  0  0  0  0  0  0  0  0  0
    0.0609   -1.8275   -1.4217 N   0  0  0  0  0  0  0  0  0  0  0  0
    0.4263   -2.1845   -2.7708 C   0  0  0  0  0  0  0  0  0  0  0  0
    0.5997   -2.1955   -0.1420 C   0  0  0  0  0  0  0  0  0  0  0  0
    1.9751   -1.6337    0.1090 C   0  0  0  0  0  0  0  0  0  0  0  0
    1.9554   -0.1153    0.0054 C   0  0  0  0  0  0  0  0  0  0  0  0
    3.2619    0.4391    0.3249 N   0  0  0  0  0  0  0  0  0  0  0  0
    4.5028    0.1935   -0.2846 C   0  0  0  0  0  0  0  0  0  0  0  0
    4.4631   -0.6301   -1.2473 O   0  0  0  0  0  0  0  0  0  0  0  0
    5.6983    0.8982    0.2479 C   0  0  0  0  0  0  0  0  0  0  0  0
    5.9540    0.5396    1.7142 C   0  0  0  0  0  0  0  0  0  0  0  0
    7.3280    1.2084    1.8713 C   0  0  0  0  0  0  0  0  0  0  0  0
    7.8832    1.0011    0.4851 C   0  0  0  0  0  0  0  0  0  0  0  0
    6.8788    0.5287   -0.3434 O   0  0  0  0  0  0  0  0  0  0  0  0
   -5.5402   -2.8384    1.8103 H   0  0  0  0  0  0  0  0  0  0  0  0
   -5.1625   -1.9496    3.3253 H   0  0  0  0  0  0  0  0  0  0  0  0
   -6.8385   -2.4454    2.9956 H   0  0  0  0  0  0  0  0  0  0  0  0
   -3.8420   -2.0074    1.1243 H   0  0  0  0  0  0  0  0  0  0  0  0
   -4.6428    2.2025   -1.1433 H   0  0  0  0  0  0  0  0  0  0  0  0
   -8.0443    2.8654    0.1566 H   0  0  0  0  0  0  0  0  0  0  0  0
   -6.3715    3.5364    0.4980 H   0  0  0  0  0  0  0  0  0  0  0  0
   -6.7525    2.6879   -1.1013 H   0  0  0  0  0  0  0  0  0  0  0  0
   -2.7094    2.9814   -1.8310 H   0  0  0  0  0  0  0  0  0  0  0  0
   -2.5348    2.5581   -3.4415 H   0  0  0  0  0  0  0  0  0  0  0  0
   -0.4883   -2.7131   -3.1838 H   0  0  0  0  0  0  0  0  0  0  0  0
    0.6141   -1.2939   -3.4184 H   0  0  0  0  0  0  0  0  0  0  0  0
    1.2540   -2.9196   -2.8287 H   0  0  0  0  0  0  0  0  0  0  0  0
   -0.0921   -1.9426    0.7030 H   0  0  0  0  0  0  0  0  0  0  0  0
    0.6794   -3.3277   -0.1042 H   0  0  0  0  0  0  0  0  0  0  0  0
    2.6837   -2.0629   -0.6629 H   0  0  0  0  0  0  0  0  0  0  0  0
    2.3706   -1.9423    1.0905 H   0  0  0  0  0  0  0  0  0  0  0  0
    1.6416    0.1362   -1.0317 H   0  0  0  0  0  0  0  0  0  0  0  0
    1.1807    0.2798    0.6659 H   0  0  0  0  0  0  0  0  0  0  0  0
    3.2632    1.1323    1.1379 H   0  0  0  0  0  0  0  0  0  0  0  0
    5.5966    2.0062    0.1975 H   0  0  0  0  0  0  0  0  0  0  0  0
    6.0549   -0.5549    1.8103 H   0  0  0  0  0  0  0  0  0  0  0  0
    5.1981    0.9861    2.3937 H   0  0  0  0  0  0  0  0  0  0  0  0
    7.9259    0.7316    2.6747 H   0  0  0  0  0  0  0  0  0  0  0  0
    7.1426    2.2826    2.0523 H   0  0  0  0  0  0  0  0  0  0  0  0
    8.7813    0.3288    0.5152 H   0  0  0  0  0  0  0  0  0  0  0  0
    8.2281    1.9753    0.0802 H   0  0  0  0  0  0  0  0  0  0  0  0
  1  2  1  0
  2  3  1  0
  3  4  2  0
  4  5  1  0
  5  6  2  0
  6  7  1  0
  7  8  2  0
  8  9  1  0
  9 10  1  0
  6 11  1  0
 11 12  1  0
 11 13  2  0
 13 14  1  0
 14 15  2  0
 14 16  1  0
 16 17  1  0
 16 18  1  0
 18 19  1  0
 19 20  1  0
 20 21  1  0
 21 22  1  0
 22 23  2  0
 22 24  1  0
 24 25  1  0
 25 26  1  0
 26 27  1  0
 27 28  1  0
  8  3  1  0
 28 24  1  0
 15  5  1  0
  1 29  1  0
  1 30  1  0
  1 31  1  0
  4 32  1  0
  7 33  1  0
 10 34  1  0
 10 35  1  0
 10 36  1  0
 12 37  1  0
 12 38  1  0
 17 39  1  0
 17 40  1  0
 17 41  1  0
 18 42  1  0
 18 43  1  0
 19 44  1  0
 19 45  1  0
 20 46  1  0
 20 47  1  0
 21 48  1  0
 24 49  1  0
 25 50  1  0
 25 51  1  0
 26 52  1  0
 26 53  1  0
 27 54  1  0
 27 55  1  0
M  END
$$$$
