@<TRIPOS>MOLECULE
*****
 55 57 0 0 0
SMALL
GASTEIGER

@<TRIPOS>ATOM
      1 C          -5.9137   -2.0802    2.4969 C.3     1  UNL1        0.0790
      2 O          -6.1631   -0.8635    1.8517 O.3     1  UNL1       -0.4914
      3 C          -5.2421   -0.3718    0.9399 C.ar    1  UNL1        0.1635
      4 C          -4.0722   -1.0571    0.6474 C.ar    1  UNL1        0.0099
      5 C          -3.1302   -0.6129   -0.2478 C.ar    1  UNL1        0.0816
      6 C          -3.3383    0.5769   -0.9013 C.ar    1  UNL1        0.0437
      7 C          -4.4921    1.2722   -0.6256 C.ar    1  UNL1       -0.0038
      8 C          -5.4435    0.8338    0.2717 C.ar    1  UNL1        0.1623
      9 O          -6.6103    1.5046    0.5754 O.3     1  UNL1       -0.4914
     10 C          -6.9637    2.7320    0.0048 C.3     1  UNL1        0.0790
     11 C          -2.3586    0.9717   -1.7753 C.ar    1  UNL1        0.1291
     12 N          -2.5288    2.1812   -2.4709 N.pl3   1  UNL1       -0.3425
     13 N          -1.2519    0.2382   -1.9832 N.ar    1  UNL1       -0.1992
     14 C          -1.0578   -0.9313   -1.3324 C.ar    1  UNL1        0.2198
     15 N          -2.0170   -1.3087   -0.4841 N.ar    1  UNL1       -0.2141
     16 N           0.0609   -1.8275   -1.4217 N.pl3   1  UNL1       -0.3026
     17 C           0.4263   -2.1845   -2.7708 C.3     1  UNL1        0.0034
     18 C           0.5997   -2.1955   -0.1420 C.3     1  UNL1        0.0160
     19 C           1.9751   -1.6337    0.1090 C.3     1  UNL1       -0.0215
     20 C           1.9554   -0.1153    0.0054 C.3     1  UNL1        0.0131
     21 N           3.2619    0.4391    0.3249 N.am    1  UNL1       -0.3131
     22 C           4.5028    0.1935   -0.2846 C.2     1  UNL1        0.2419
     23 O           4.4631   -0.6301   -1.2473 O.2     1  UNL1       -0.2730
     24 C           5.6983    0.8982    0.2479 C.3     1  UNL1        0.1343
     25 C           5.9540    0.5396    1.7142 C.3     1  UNL1       -0.0159
     26 C           7.3280    1.2084    1.8713 C.3     1  UNL1       -0.0266
     27 C           7.8832    1.0011    0.4851 C.3     1  UNL1        0.0487
     28 O           6.8788    0.5287   -0.3434 O.3     1  UNL1       -0.3674
     29 H          -5.5402   -2.8384    1.8103 H       1  UNL1        0.0660
     30 H          -5.1625   -1.9496    3.3253 H       1  UNL1        0.0660
     31 H          -6.8385   -2.4454    2.9956 H       1  UNL1        0.0660
     32 H          -3.8420   -2.0074    1.1243 H       1  UNL1        0.0677
     33 H          -4.6428    2.2025   -1.1433 H       1  UNL1        0.0663
     34 H          -8.0443    2.8654    0.1566 H       1  UNL1        0.0660
     35 H          -6.3715    3.5364    0.4980 H       1  UNL1        0.0660
     36 H          -6.7525    2.6879   -1.1013 H       1  UNL1        0.0660
     37 H          -2.7094    2.9814   -1.8310 H       1  UNL1        0.1437
     38 H          -2.5348    2.5581   -3.4415 H       1  UNL1        0.1437
     39 H          -0.4883   -2.7131   -3.1838 H       1  UNL1        0.0429
     40 H           0.6141   -1.2939   -3.4184 H       1  UNL1        0.0429
     41 H           1.2540   -2.9196   -2.8287 H       1  UNL1        0.0429
     42 H          -0.0921   -1.9426    0.7030 H       1  UNL1        0.0465
     43 H           0.6794   -3.3277   -0.1042 H       1  UNL1        0.0465
     44 H           2.6837   -2.0629   -0.6629 H       1  UNL1        0.0295
     45 H           2.3706   -1.9423    1.0905 H       1  UNL1        0.0295
     46 H           1.6416    0.1362   -1.0317 H       1  UNL1        0.0462
     47 H           1.1807    0.2798    0.6659 H       1  UNL1        0.0462
     48 H           3.2632    1.1323    1.1379 H       1  UNL1        0.1488
     49 H           5.5966    2.0062    0.1975 H       1  UNL1        0.0693
     50 H           6.0549   -0.5549    1.8103 H       1  UNL1        0.0296
     51 H           5.1981    0.9861    2.3937 H       1  UNL1        0.0296
     52 H           7.9259    0.7316    2.6747 H       1  UNL1        0.0288
     53 H           7.1426    2.2826    2.0523 H       1  UNL1        0.0288
     54 H           8.7813    0.3288    0.5152 H       1  UNL1        0.0560
     55 H           8.2281    1.9753    0.0802 H       1  UNL1        0.0560
@<TRIPOS>BOND
     1     1     2    1
     2     2     3    1
     3     3     4   ar
     4     4     5   ar
     5     5     6   ar
     6     6     7   ar
     7     7     8   ar
     8     8     9    1
     9     9    10    1
    10     6    11   ar
    11    11    12    1
    12    11    13   ar
    13    13    14   ar
    14    14    15   ar
    15    14    16    1
    16    16    17    1
    17    16    18    1
    18    18    19    1
    19    19    20    1
    20    20    21    1
    21    21    22   am
    22    22    23    2
    23    22    24    1
    24    24    25    1
    25    25    26    1
    26    26    27    1
    27    27    28    1
    28     8     3   ar
    29    28    24    1
    30    15     5   ar
    31     1    29    1
    32     1    30    1
    33     1    31    1
    34     4    32    1
    35     7    33    1
    36    10    34    1
    37    10    35    1
    38    10    36    1
    39    12    37    1
    40    12    38    1
    41    17    39    1
    42    17    40    1
    43    17    41    1
    44    18    42    1
    45    18    43    1
    46    19    44    1
    47    19    45    1
    48    20    46    1
    49    20    47    1
    50    21    48    1
    51    24    49    1
    52    25    50    1
    53    25    51    1
    54    26    52    1
    55    26    53    1
    56    27    54    1
    57    27    55    1
