
     RDKit          3D

 23 24  0  0  0  0  0  0  0  0999 V2000
   -1.1286   -0.0366    2.8115 Cl  0  0  0  0  0  0  0  0  0  0  0  0
   -1.8558   -0.1432    1.2252 C   0  0  0  0  0  0  0  0  0  0  0  0
   -3.0497   -0.8186    0.9758 C   0  0  0  0  0  0  0  0  0  0  0  0
   -3.5789   -0.8710   -0.2967 C   0  0  0  0  0  0  0  0  0  0  0  0
   -2.9325   -0.2514   -1.3559 C   0  0  0  0  0  0  0  0  0  0  0  0
   -1.7330    0.4396   -1.1634 C   0  0  0  0  0  0  0  0  0  0  0  0
   -0.8762    1.2388   -2.4637 Cl  0  0  0  0  0  0  0  0  0  0  0  0
   -1.2559    0.4549    0.1340 C   0  0  0  0  0  0  0  0  0  0  0  0
   -0.0259    1.1574    0.3598 N   0  0  0  0  0  0  0  0  0  0  0  0
    1.2884    0.5756    0.2803 C   0  0  0  0  0  0  0  0  0  0  0  0
    1.4489   -0.6934    0.4685 N   0  0  0  0  0  0  0  0  0  0  0  0
    2.8513   -1.0445    0.3390 C   0  0  0  0  0  0  0  0  0  0  0  0
    3.3767    0.1287   -0.4442 C   0  0  0  0  0  0  0  0  0  0  0  0
    2.5094    1.2055    0.0129 N   0  0  0  0  0  0  0  0  0  0  0  0
   -3.5257   -1.2908    1.8312 H   0  0  0  0  0  0  0  0  0  0  0  0
   -4.5035   -1.3977   -0.4729 H   0  0  0  0  0  0  0  0  0  0  0  0
   -3.3375   -0.2810   -2.3796 H   0  0  0  0  0  0  0  0  0  0  0  0
   -0.1010    2.1848    0.6038 H   0  0  0  0  0  0  0  0  0  0  0  0
    2.9509   -1.9859   -0.2155 H   0  0  0  0  0  0  0  0  0  0  0  0
    3.2688   -1.1099    1.3596 H   0  0  0  0  0  0  0  0  0  0  0  0
    3.1520   -0.0465   -1.5238 H   0  0  0  0  0  0  0  0  0  0  0  0
    4.4349    0.3531   -0.2437 H   0  0  0  0  0  0  0  0  0  0  0  0
    2.6230    2.2322    0.1578 H   0  0  0  0  0  0  0  0  0  0  0  0
  1  2  1  0
  2  3  2  0
  3  4  1  0
  4  5  2  0
  5  6  1  0
  6  7  1  0
  6  8  2  0
  8  9  1  0
  9 10  1  0
 10 11  2  0
 11 12  1  0
 12 13  1  0
 13 14  1  0
  8  2  1  0
 14 10  1  0
  3 15  1  0
  4 16  1  0
  5 17  1  0
  9 18  1  0
 12 19  1  0
 12 20  1  0
 13 21  1  0
 13 22  1  0
 14 23  1  0
M  END
$$$$
