@<TRIPOS>MOLECULE
*****
 33 34 0 0 0
SMALL
GASTEIGER

@<TRIPOS>ATOM
      1 C           4.5208    2.2872   -0.6842 C.3     1  UNL1        0.0788
      2 O           4.3969    1.2269    0.2396 O.3     1  UNL1       -0.4949
      3 C           3.1909    0.5271    0.3582 C.ar    1  UNL1        0.1267
      4 C           2.0914    0.8301   -0.4021 C.ar    1  UNL1       -0.0178
      5 C           0.9030    0.1434   -0.2873 C.ar    1  UNL1       -0.0304
      6 C           0.8092   -0.9083    0.6442 C.ar    1  UNL1        0.1097
      7 N          -0.4251   -1.5924    0.7938 N.pl3   1  UNL1       -0.3092
      8 C          -1.5821   -1.1671    0.0365 C.ar    1  UNL1        0.0322
      9 C          -2.2467   -2.0895   -0.7724 C.ar    1  UNL1       -0.0405
     10 C          -3.3710   -1.6970   -1.4683 C.ar    1  UNL1       -0.0592
     11 C          -3.8111   -0.3961   -1.3448 C.ar    1  UNL1       -0.0477
     12 C          -3.1767    0.5333   -0.5556 C.ar    1  UNL1        0.0606
     13 C          -3.6670    1.9167   -0.4413 C.2     1  UNL1        0.3369
     14 O          -3.0519    2.7394    0.3005 O.2     1  UNL1       -0.2451
     15 O          -4.7728    2.3646   -1.1081 O.3     1  UNL1       -0.4771
     16 C          -2.0523    0.1222    0.1339 C.ar    1  UNL1       -0.0266
     17 C           1.8880   -1.2351    1.4157 C.ar    1  UNL1        0.2975
     18 N           1.8634   -2.2781    2.3722 N.pl3   1  UNL1        0.0817
     19 O           2.6321   -2.1538    3.3928 O.2     1  UNL1        0.0415
     20 O           1.1050   -3.3829    2.3005 O.co2   1  UNL1       -0.5760
     21 C           3.0824   -0.4988    1.2579 C.ar    1  UNL1        0.0591
     22 H           5.6085    2.5085   -0.8408 H       1  UNL1        0.0660
     23 H           3.9611    3.1749   -0.3228 H       1  UNL1        0.0660
     24 H           4.0460    2.0061   -1.6660 H       1  UNL1        0.0660
     25 H           2.1186    1.6268   -1.1250 H       1  UNL1        0.0655
     26 H           0.0481    0.3933   -0.9130 H       1  UNL1        0.0639
     27 H          -0.5893   -2.4035    1.4286 H       1  UNL1        0.1523
     28 H          -1.8425   -3.0828   -0.8150 H       1  UNL1        0.0636
     29 H          -3.8627   -2.4331   -2.0854 H       1  UNL1        0.0618
     30 H          -4.6883   -0.0896   -1.8873 H       1  UNL1        0.0626
     31 H          -5.4776    2.9253   -0.6031 H       1  UNL1        0.2954
     32 H          -1.5622    0.8699    0.7597 H       1  UNL1        0.0644
     33 H           3.9136   -0.7874    1.8884 H       1  UNL1        0.0723
@<TRIPOS>UNITY_ATOM_ATTR
18 1
charge 1
20 1
charge -1
@<TRIPOS>BOND
     1     1     2    1
     2     2     3    1
     3     3     4   ar
     4     4     5   ar
     5     5     6   ar
     6     6     7    1
     7     7     8    1
     8     8     9   ar
     9     9    10   ar
    10    10    11   ar
    11    11    12   ar
    12    12    13    1
    13    13    14    2
    14    13    15    1
    15    12    16   ar
    16     6    17   ar
    17    17    18    1
    18    18    19    2
    19    18    20    1
    20    17    21   ar
    21    21     3   ar
    22    16     8   ar
    23     1    22    1
    24     1    23    1
    25     1    24    1
    26     4    25    1
    27     5    26    1
    28     7    27    1
    29     9    28    1
    30    10    29    1
    31    11    30    1
    32    15    31    1
    33    16    32    1
    34    21    33    1
