
     RDKit          3D

 64 67  0  0  0  0  0  0  0  0999 V2000
    5.3980   -2.5827   -0.4640 C   0  0  0  0  0  0  0  0  0  0  0  0
    5.5787   -2.0103   -1.8515 C   0  0  0  0  0  0  0  0  0  0  0  0
    4.4901   -1.0182   -2.1694 C   0  0  0  0  0  0  0  0  0  0  0  0
    4.5089    0.1464   -1.1656 C   0  0  1  0  0  0  0  0  0  0  0  0
    4.3146   -0.2712    0.1245 O   0  0  0  0  0  0  0  0  0  0  0  0
    3.2953    0.1328    0.9653 C   0  0  0  0  0  0  0  0  0  0  0  0
    3.2428   -0.3954    2.2632 C   0  0  0  0  0  0  0  0  0  0  0  0
    2.2534   -0.0248    3.1300 C   0  0  0  0  0  0  0  0  0  0  0  0
    1.2705    0.8782    2.7683 C   0  0  0  0  0  0  0  0  0  0  0  0
    1.2903    1.4083    1.5218 C   0  0  0  0  0  0  0  0  0  0  0  0
    0.3026    2.3904    1.0097 C   0  0  0  0  0  0  0  0  0  0  0  0
   -0.8810    1.7997    0.4483 N   0  0  0  0  0  0  0  0  0  0  0  0
   -1.1069    1.4223   -0.8164 C   0  0  0  0  0  0  0  0  0  0  0  0
   -0.1660    1.5462   -1.9798 C   0  0  0  0  0  0  0  0  0  0  0  0
   -2.3896    0.8819   -0.9335 C   0  0  0  0  0  0  0  0  0  0  0  0
   -2.9765    0.4028   -2.1810 C   0  0  0  0  0  0  0  0  0  0  0  0
   -2.6575    0.9628   -3.2946 O   0  0  0  0  0  0  0  0  0  0  0  0
   -3.9232   -0.6952   -2.3025 C   0  0  0  0  0  0  0  0  0  0  0  0
   -3.9725   -1.7446   -1.4191 C   0  0  0  0  0  0  0  0  0  0  0  0
   -4.8698   -2.7650   -1.5410 C   0  0  0  0  0  0  0  0  0  0  0  0
   -5.7682   -2.7411   -2.5998 C   0  0  0  0  0  0  0  0  0  0  0  0
   -6.9339   -4.0380   -2.7746 Cl  0  0  0  0  0  0  0  0  0  0  0  0
   -5.7321   -1.6938   -3.4969 C   0  0  0  0  0  0  0  0  0  0  0  0
   -4.8253   -0.6854   -3.3535 C   0  0  0  0  0  0  0  0  0  0  0  0
   -2.9330    0.9577    0.3404 C   0  0  0  0  0  0  0  0  0  0  0  0
   -4.1708    0.6059    0.8441 C   0  0  0  0  0  0  0  0  0  0  0  0
   -4.4464    0.8266    2.1944 C   0  0  0  0  0  0  0  0  0  0  0  0
   -3.5346    1.3856    3.0598 C   0  0  0  0  0  0  0  0  0  0  0  0
   -3.8290    1.5970    4.4055 O   0  0  0  0  0  0  0  0  0  0  0  0
   -3.5159    0.5339    5.2877 C   0  0  0  0  0  0  0  0  0  0  0  0
   -2.1775    0.2336    5.2680 F   0  0  0  0  0  0  0  0  0  0  0  0
   -4.1703   -0.6037    4.7959 F   0  0  0  0  0  0  0  0  0  0  0  0
   -4.0014    0.7489    6.5615 F   0  0  0  0  0  0  0  0  0  0  0  0
   -2.3171    1.7209    2.5097 C   0  0  0  0  0  0  0  0  0  0  0  0
   -1.9906    1.5234    1.1743 C   0  0  0  0  0  0  0  0  0  0  0  0
    2.3040    1.0277    0.6363 C   0  0  0  0  0  0  0  0  0  0  0  0
    5.8811    0.7887   -1.2470 C   0  0  0  0  0  0  0  0  0  0  0  0
    6.6294    0.8692   -0.2410 O   0  0  0  0  0  0  0  0  0  0  0  0
    6.3475    1.3093   -2.4490 O   0  0  0  0  0  0  0  0  0  0  0  0
    5.8007   -3.6173   -0.4159 H   0  0  0  0  0  0  0  0  0  0  0  0
    5.9369   -1.9389    0.2578 H   0  0  0  0  0  0  0  0  0  0  0  0
    4.3197   -2.5798   -0.2212 H   0  0  0  0  0  0  0  0  0  0  0  0
    6.5475   -1.4335   -1.8724 H   0  0  0  0  0  0  0  0  0  0  0  0
    5.6014   -2.8359   -2.5888 H   0  0  0  0  0  0  0  0  0  0  0  0
    4.6483   -0.6354   -3.1931 H   0  0  0  0  0  0  0  0  0  0  0  0
    3.5179   -1.5133   -2.1322 H   0  0  0  0  0  0  0  0  0  0  0  0
    3.7483    0.8597   -1.5279 H   0  0  0  0  0  0  0  0  0  0  0  0
    4.0295   -1.1115    2.5354 H   0  0  0  0  0  0  0  0  0  0  0  0
    2.2376   -0.4559    4.1459 H   0  0  0  0  0  0  0  0  0  0  0  0
    0.4988    1.1619    3.4640 H   0  0  0  0  0  0  0  0  0  0  0  0
    0.8190    3.0462    0.2954 H   0  0  0  0  0  0  0  0  0  0  0  0
   -0.0152    3.0667    1.8502 H   0  0  0  0  0  0  0  0  0  0  0  0
    0.2440    0.5608   -2.2669 H   0  0  0  0  0  0  0  0  0  0  0  0
   -0.6772    1.9733   -2.8833 H   0  0  0  0  0  0  0  0  0  0  0  0
    0.6377    2.2805   -1.7581 H   0  0  0  0  0  0  0  0  0  0  0  0
   -3.2704   -1.7591   -0.5948 H   0  0  0  0  0  0  0  0  0  0  0  0
   -4.9049   -3.6073   -0.8259 H   0  0  0  0  0  0  0  0  0  0  0  0
   -6.4241   -1.6445   -4.3401 H   0  0  0  0  0  0  0  0  0  0  0  0
   -4.7626    0.1606   -4.0362 H   0  0  0  0  0  0  0  0  0  0  0  0
   -4.9029    0.1965    0.1938 H   0  0  0  0  0  0  0  0  0  0  0  0
   -5.4210    0.5480    2.5895 H   0  0  0  0  0  0  0  0  0  0  0  0
   -1.5975    2.1686    3.1799 H   0  0  0  0  0  0  0  0  0  0  0  0
    2.3225    1.4579   -0.3614 H   0  0  0  0  0  0  0  0  0  0  0  0
    7.2477    1.7864   -2.5222 H   0  0  0  0  0  0  0  0  0  0  0  0
  1  2  1  0
  2  3  1  0
  3  4  1  0
  4  5  1  0
  5  6  1  0
  6  7  2  0
  7  8  1  0
  8  9  2  0
  9 10  1  0
 10 11  1  0
 11 12  1  0
 12 13  1  0
 13 14  1  0
 13 15  2  0
 15 16  1  0
 16 17  2  0
 16 18  1  0
 18 19  2  0
 19 20  1  0
 20 21  2  0
 21 22  1  0
 21 23  1  0
 23 24  2  0
 15 25  1  0
 25 26  2  0
 26 27  1  0
 27 28  2  0
 28 29  1  0
 29 30  1  0
 30 31  1  0
 30 32  1  0
 30 33  1  0
 28 34  1  0
 34 35  2  0
 10 36  2  0
  4 37  1  0
 37 38  2  0
 37 39  1  0
 36  6  1  0
 35 12  1  0
 24 18  1  0
 35 25  1  0
  1 40  1  0
  1 41  1  0
  1 42  1  0
  2 43  1  0
  2 44  1  0
  3 45  1  0
  3 46  1  0
  4 47  1  6
  7 48  1  0
  8 49  1  0
  9 50  1  0
 11 51  1  0
 11 52  1  0
 14 53  1  0
 14 54  1  0
 14 55  1  0
 19 56  1  0
 20 57  1  0
 23 58  1  0
 24 59  1  0
 26 60  1  0
 27 61  1  0
 34 62  1  0
 36 63  1  0
 39 64  1  0
M  END
$$$$
