@<TRIPOS>MOLECULE
*****
 64 67 0 0 0
SMALL
GASTEIGER

@<TRIPOS>ATOM
      1 C           5.3980   -2.5827   -0.4640 C.3     1  UNL1       -0.0651
      2 C           5.5787   -2.0103   -1.8515 C.3     1  UNL1       -0.0520
      3 C           4.4901   -1.0182   -2.1694 C.3     1  UNL1       -0.0054
      4 C           4.5089    0.1464   -1.1656 C.3     1  UNL1        0.1958
      5 O           4.3146   -0.2712    0.1245 O.3     1  UNL1       -0.4776
      6 C           3.2953    0.1328    0.9653 C.ar    1  UNL1        0.1220
      7 C           3.2428   -0.3954    2.2632 C.ar    1  UNL1       -0.0199
      8 C           2.2534   -0.0248    3.1300 C.ar    1  UNL1       -0.0580
      9 C           1.2705    0.8782    2.7683 C.ar    1  UNL1       -0.0566
     10 C           1.2903    1.4083    1.5218 C.ar    1  UNL1       -0.0243
     11 C           0.3026    2.3904    1.0097 C.3     1  UNL1        0.0487
     12 N          -0.8810    1.7997    0.4483 N.ar    1  UNL1       -0.3389
     13 C          -1.1069    1.4223   -0.8164 C.ar    1  UNL1        0.0279
     14 C          -0.1660    1.5462   -1.9798 C.3     1  UNL1       -0.0235
     15 C          -2.3896    0.8819   -0.9335 C.ar    1  UNL1        0.0504
     16 C          -2.9765    0.4028   -2.1810 C.2     1  UNL1        0.1954
     17 O          -2.6575    0.9628   -3.2946 O.2     1  UNL1       -0.2866
     18 C          -3.9232   -0.6952   -2.3025 C.ar    1  UNL1        0.0224
     19 C          -3.9725   -1.7446   -1.4191 C.ar    1  UNL1       -0.0495
     20 C          -4.8698   -2.7650   -1.5410 C.ar    1  UNL1       -0.0427
     21 C          -5.7682   -2.7411   -2.5998 C.ar    1  UNL1        0.0410
     22 CL         -6.9339   -4.0380   -2.7746 Cl      1  UNL1       -0.0835
     23 C          -5.7321   -1.6938   -3.4969 C.ar    1  UNL1       -0.0427
     24 C          -4.8253   -0.6854   -3.3535 C.ar    1  UNL1       -0.0495
     25 C          -2.9330    0.9577    0.3404 C.ar    1  UNL1        0.0112
     26 C          -4.1708    0.6059    0.8441 C.ar    1  UNL1       -0.0484
     27 C          -4.4464    0.8266    2.1944 C.ar    1  UNL1       -0.0189
     28 C          -3.5346    1.3856    3.0598 C.ar    1  UNL1        0.1320
     29 O          -3.8290    1.5970    4.4055 O.3     1  UNL1       -0.4057
     30 C          -3.5159    0.5339    5.2877 C.3     1  UNL1        0.5752
     31 F          -2.1775    0.2336    5.2680 F       1  UNL1       -0.1328
     32 F          -4.1703   -0.6037    4.7959 F       1  UNL1       -0.1328
     33 F          -4.0014    0.7489    6.5615 F       1  UNL1       -0.1328
     34 C          -2.3171    1.7209    2.5097 C.ar    1  UNL1        0.0045
     35 C          -1.9906    1.5234    1.1743 C.ar    1  UNL1        0.0537
     36 C           2.3040    1.0277    0.6363 C.ar    1  UNL1       -0.0150
     37 C           5.8811    0.7887   -1.2470 C.2     1  UNL1        0.3459
     38 O           6.6294    0.8692   -0.2410 O.2     1  UNL1       -0.2468
     39 O           6.3475    1.3093   -2.4490 O.3     1  UNL1       -0.4781
     40 H           5.8007   -3.6173   -0.4159 H       1  UNL1        0.0230
     41 H           5.9369   -1.9389    0.2578 H       1  UNL1        0.0230
     42 H           4.3197   -2.5798   -0.2212 H       1  UNL1        0.0230
     43 H           6.5475   -1.4335   -1.8724 H       1  UNL1        0.0264
     44 H           5.6014   -2.8359   -2.5888 H       1  UNL1        0.0264
     45 H           4.6483   -0.6354   -3.1931 H       1  UNL1        0.0306
     46 H           3.5179   -1.5133   -2.1322 H       1  UNL1        0.0306
     47 H           3.7483    0.8597   -1.5279 H       1  UNL1        0.0852
     48 H           4.0295   -1.1115    2.5354 H       1  UNL1        0.0654
     49 H           2.2376   -0.4559    4.1459 H       1  UNL1        0.0619
     50 H           0.4988    1.1619    3.4640 H       1  UNL1        0.0621
     51 H           0.8190    3.0462    0.2954 H       1  UNL1        0.0541
     52 H          -0.0152    3.0667    1.8502 H       1  UNL1        0.0541
     53 H           0.2440    0.5608   -2.2669 H       1  UNL1        0.0292
     54 H          -0.6772    1.9733   -2.8833 H       1  UNL1        0.0292
     55 H           0.6377    2.2805   -1.7581 H       1  UNL1        0.0292
     56 H          -3.2704   -1.7591   -0.5948 H       1  UNL1        0.0625
     57 H          -4.9049   -3.6073   -0.8259 H       1  UNL1        0.0632
     58 H          -6.4241   -1.6445   -4.3401 H       1  UNL1        0.0632
     59 H          -4.7626    0.1606   -4.0362 H       1  UNL1        0.0625
     60 H          -4.9029    0.1965    0.1938 H       1  UNL1        0.0625
     61 H          -5.4210    0.5480    2.5895 H       1  UNL1        0.0654
     62 H          -1.5975    2.1686    3.1799 H       1  UNL1        0.0675
     63 H           2.3225    1.4579   -0.3614 H       1  UNL1        0.0657
     64 H           7.2477    1.7864   -2.5222 H       1  UNL1        0.2952
@<TRIPOS>BOND
     1     1     2    1
     2     2     3    1
     3     3     4    1
     4     4     5    1
     5     5     6    1
     6     6     7   ar
     7     7     8   ar
     8     8     9   ar
     9     9    10   ar
    10    10    11    1
    11    11    12    1
    12    12    13   ar
    13    13    14    1
    14    13    15   ar
    15    15    16    1
    16    16    17    2
    17    16    18    1
    18    18    19   ar
    19    19    20   ar
    20    20    21   ar
    21    21    22    1
    22    21    23   ar
    23    23    24   ar
    24    15    25   ar
    25    25    26   ar
    26    26    27   ar
    27    27    28   ar
    28    28    29    1
    29    29    30    1
    30    30    31    1
    31    30    32    1
    32    30    33    1
    33    28    34   ar
    34    34    35   ar
    35    10    36   ar
    36     4    37    1
    37    37    38    2
    38    37    39    1
    39    36     6   ar
    40    35    12   ar
    41    24    18   ar
    42    35    25   ar
    43     1    40    1
    44     1    41    1
    45     1    42    1
    46     2    43    1
    47     2    44    1
    48     3    45    1
    49     3    46    1
    50     4    47    1
    51     7    48    1
    52     8    49    1
    53     9    50    1
    54    11    51    1
    55    11    52    1
    56    14    53    1
    57    14    54    1
    58    14    55    1
    59    19    56    1
    60    20    57    1
    61    23    58    1
    62    24    59    1
    63    26    60    1
    64    27    61    1
    65    34    62    1
    66    36    63    1
    67    39    64    1
