
     RDKit          3D

 58 62  0  0  0  0  0  0  0  0999 V2000
    4.5222    1.5692    0.3307 C   0  0  0  0  0  0  0  0  0  0  0  0
    5.4252    0.4686    0.5844 N   0  0  0  0  0  0  0  0  0  0  0  0
    5.0985   -0.6854    1.1649 C   0  0  0  0  0  0  0  0  0  0  0  0
    3.8713   -1.2218    1.6216 N   0  0  0  0  0  0  0  0  0  0  0  0
    2.6135   -0.9905    1.0563 C   0  0  0  0  0  0  0  0  0  0  0  0
    1.4900   -1.1352    1.8776 C   0  0  0  0  0  0  0  0  0  0  0  0
    0.2184   -0.9795    1.4554 C   0  0  0  0  0  0  0  0  0  0  0  0
   -0.0280   -0.6500    0.1084 C   0  0  0  0  0  0  0  0  0  0  0  0
   -1.3044   -0.4953   -0.3134 O   0  0  0  0  0  0  0  0  0  0  0  0
   -1.7926   -0.1660   -1.5345 C   0  0  0  0  0  0  0  0  0  0  0  0
   -1.0859    0.1019   -2.6394 N   0  0  0  0  0  0  0  0  0  0  0  0
   -1.6030    0.4212   -3.8221 C   0  0  0  0  0  0  0  0  0  0  0  0
   -2.9953    0.4781   -3.9052 C   0  0  0  0  0  0  0  0  0  0  0  0
   -3.7223    0.2128   -2.8089 N   0  0  0  0  0  0  0  0  0  0  0  0
   -3.2038   -0.1080   -1.6206 C   0  0  0  0  0  0  0  0  0  0  0  0
   -4.0048   -0.3845   -0.4800 N   0  0  0  0  0  0  0  0  0  0  0  0
   -3.9921    0.3487    0.7437 C   0  0  0  0  0  0  0  0  0  0  0  0
   -5.3617    0.7824    1.1963 C   0  0  0  0  0  0  0  0  0  0  0  0
   -6.4447   -0.1825    0.8808 C   0  0  0  0  0  0  0  0  0  0  0  0
   -7.7585    0.5830    0.8153 C   0  0  0  0  0  0  0  0  0  0  0  0
   -8.0371    1.2078    2.0309 O   0  0  0  0  0  0  0  0  0  0  0  0
   -6.3130   -0.9002   -0.4342 C   0  0  0  0  0  0  0  0  0  0  0  0
   -4.9210   -1.5130   -0.5658 C   0  0  0  0  0  0  0  0  0  0  0  0
    1.0591   -0.5058   -0.7035 C   0  0  0  0  0  0  0  0  0  0  0  0
    2.3624   -0.6748   -0.2333 C   0  0  0  0  0  0  0  0  0  0  0  0
    6.2771   -1.3939    1.2252 N   0  0  0  0  0  0  0  0  0  0  0  0
    7.2778   -0.6784    0.6920 C   0  0  0  0  0  0  0  0  0  0  0  0
    8.6290   -0.8818    0.4889 C   0  0  0  0  0  0  0  0  0  0  0  0
    9.4284    0.0707   -0.1071 C   0  0  0  0  0  0  0  0  0  0  0  0
    8.8936    1.2759   -0.5253 C   0  0  0  0  0  0  0  0  0  0  0  0
    7.5450    1.4862   -0.3259 C   0  0  0  0  0  0  0  0  0  0  0  0
    6.7486    0.5214    0.2748 C   0  0  0  0  0  0  0  0  0  0  0  0
    3.6745    1.5521    1.0291 H   0  0  0  0  0  0  0  0  0  0  0  0
    5.0968    2.5399    0.4311 H   0  0  0  0  0  0  0  0  0  0  0  0
    4.2068    1.5619   -0.7305 H   0  0  0  0  0  0  0  0  0  0  0  0
    3.9297   -1.8608    2.4811 H   0  0  0  0  0  0  0  0  0  0  0  0
    1.6484   -1.3914    2.9328 H   0  0  0  0  0  0  0  0  0  0  0  0
   -0.6271   -1.0933    2.0921 H   0  0  0  0  0  0  0  0  0  0  0  0
   -0.9752    0.6249   -4.6711 H   0  0  0  0  0  0  0  0  0  0  0  0
   -3.4251    0.7367   -4.8653 H   0  0  0  0  0  0  0  0  0  0  0  0
   -3.4159    1.2988    0.5513 H   0  0  0  0  0  0  0  0  0  0  0  0
   -3.4219   -0.1856    1.5171 H   0  0  0  0  0  0  0  0  0  0  0  0
   -5.6183    1.7956    0.7715 H   0  0  0  0  0  0  0  0  0  0  0  0
   -5.3205    0.9222    2.2968 H   0  0  0  0  0  0  0  0  0  0  0  0
   -6.5662   -0.9720    1.6747 H   0  0  0  0  0  0  0  0  0  0  0  0
   -7.7297    1.3743    0.0449 H   0  0  0  0  0  0  0  0  0  0  0  0
   -8.6162   -0.0759    0.5639 H   0  0  0  0  0  0  0  0  0  0  0  0
   -8.9550    1.5140    2.1015 H   0  0  0  0  0  0  0  0  0  0  0  0
   -7.1048   -1.6579   -0.4923 H   0  0  0  0  0  0  0  0  0  0  0  0
   -6.4189   -0.1702   -1.2555 H   0  0  0  0  0  0  0  0  0  0  0  0
   -4.8417   -2.0535   -1.5217 H   0  0  0  0  0  0  0  0  0  0  0  0
   -4.7325   -2.1428    0.3134 H   0  0  0  0  0  0  0  0  0  0  0  0
    0.9276   -0.2498   -1.7636 H   0  0  0  0  0  0  0  0  0  0  0  0
    3.1738   -0.5643   -0.9342 H   0  0  0  0  0  0  0  0  0  0  0  0
    9.0621   -1.8166    0.8092 H   0  0  0  0  0  0  0  0  0  0  0  0
   10.5053   -0.0944   -0.2673 H   0  0  0  0  0  0  0  0  0  0  0  0
    9.5490    2.0009   -0.9893 H   0  0  0  0  0  0  0  0  0  0  0  0
    7.1030    2.4260   -0.6459 H   0  0  0  0  0  0  0  0  0  0  0  0
  1  2  1  0
  2  3  1  0
  3  4  1  0
  4  5  1  0
  5  6  2  0
  6  7  1  0
  7  8  2  0
  8  9  1  0
  9 10  1  0
 10 11  2  0
 11 12  1  0
 12 13  2  0
 13 14  1  0
 14 15  2  0
 15 16  1  0
 16 17  1  0
 17 18  1  0
 18 19  1  0
 19 20  1  0
 20 21  1  0
 19 22  1  0
 22 23  1  0
  8 24  1  0
 24 25  2  0
  3 26  2  0
 26 27  1  0
 27 28  2  0
 28 29  1  0
 29 30  2  0
 30 31  1  0
 31 32  2  0
 32  2  1  0
 25  5  1  0
 32 27  1  0
 15 10  1  0
 23 16  1  0
  1 33  1  0
  1 34  1  0
  1 35  1  0
  4 36  1  0
  6 37  1  0
  7 38  1  0
 12 39  1  0
 13 40  1  0
 17 41  1  0
 17 42  1  0
 18 43  1  0
 18 44  1  0
 19 45  1  0
 20 46  1  0
 20 47  1  0
 21 48  1  0
 22 49  1  0
 22 50  1  0
 23 51  1  0
 23 52  1  0
 24 53  1  0
 25 54  1  0
 28 55  1  0
 29 56  1  0
 30 57  1  0
 31 58  1  0
M  END
$$$$
