@<TRIPOS>MOLECULE
*****
 58 62 0 0 0
SMALL
GASTEIGER

@<TRIPOS>ATOM
      1 C           4.5222    1.5692    0.3307 C.3     1  UNL1        0.0150
      2 N           5.4252    0.4686    0.5844 N.ar    1  UNL1       -0.3147
      3 C           5.0985   -0.6854    1.1649 C.ar    1  UNL1        0.2007
      4 N           3.8713   -1.2218    1.6216 N.pl3   1  UNL1       -0.2850
      5 C           2.6135   -0.9905    1.0563 C.ar    1  UNL1        0.0338
      6 C           1.4900   -1.1352    1.8776 C.ar    1  UNL1       -0.0370
      7 C           0.2184   -0.9795    1.4554 C.ar    1  UNL1       -0.0175
      8 C          -0.0280   -0.6500    0.1084 C.ar    1  UNL1        0.1306
      9 O          -1.3044   -0.4953   -0.3134 O.3     1  UNL1       -0.4353
     10 C          -1.7926   -0.1660   -1.5345 C.ar    1  UNL1        0.2615
     11 N          -1.0859    0.1019   -2.6394 N.ar    1  UNL1       -0.2166
     12 C          -1.6030    0.4212   -3.8221 C.ar    1  UNL1        0.0496
     13 C          -2.9953    0.4781   -3.9052 C.ar    1  UNL1        0.0480
     14 N          -3.7223    0.2128   -2.8089 N.ar    1  UNL1       -0.2338
     15 C          -3.2038   -0.1080   -1.6206 C.ar    1  UNL1        0.1843
     16 N          -4.0048   -0.3845   -0.4800 N.pl3   1  UNL1       -0.3109
     17 C          -3.9921    0.3487    0.7437 C.3     1  UNL1        0.0140
     18 C          -5.3617    0.7824    1.1963 C.3     1  UNL1       -0.0322
     19 C          -6.4447   -0.1825    0.8808 C.3     1  UNL1       -0.0150
     20 C          -7.7585    0.5830    0.8153 C.3     1  UNL1        0.0471
     21 O          -8.0371    1.2078    2.0309 O.3     1  UNL1       -0.3947
     22 C          -6.3130   -0.9002   -0.4342 C.3     1  UNL1       -0.0322
     23 C          -4.9210   -1.5130   -0.5658 C.3     1  UNL1        0.0140
     24 C           1.0591   -0.5058   -0.7035 C.ar    1  UNL1       -0.0175
     25 C           2.3624   -0.6748   -0.2333 C.ar    1  UNL1       -0.0370
     26 N           6.2771   -1.3939    1.2252 N.ar    1  UNL1       -0.2142
     27 C           7.2778   -0.6784    0.6920 C.ar    1  UNL1        0.0909
     28 C           8.6290   -0.8818    0.4889 C.ar    1  UNL1       -0.0342
     29 C           9.4284    0.0707   -0.1071 C.ar    1  UNL1       -0.0596
     30 C           8.8936    1.2759   -0.5253 C.ar    1  UNL1       -0.0597
     31 C           7.5450    1.4862   -0.3259 C.ar    1  UNL1       -0.0360
     32 C           6.7486    0.5214    0.2748 C.ar    1  UNL1        0.0698
     33 H           3.6745    1.5521    1.0291 H       1  UNL1        0.0457
     34 H           5.0968    2.5399    0.4311 H       1  UNL1        0.0457
     35 H           4.2068    1.5619   -0.7305 H       1  UNL1        0.0457
     36 H           3.9297   -1.8608    2.4811 H       1  UNL1        0.1550
     37 H           1.6484   -1.3914    2.9328 H       1  UNL1        0.0637
     38 H          -0.6271   -1.0933    2.0921 H       1  UNL1        0.0655
     39 H          -0.9752    0.6249   -4.6711 H       1  UNL1        0.0846
     40 H          -3.4251    0.7367   -4.8653 H       1  UNL1        0.0846
     41 H          -3.4159    1.2988    0.5513 H       1  UNL1        0.0464
     42 H          -3.4219   -0.1856    1.5171 H       1  UNL1        0.0464
     43 H          -5.6183    1.7956    0.7715 H       1  UNL1        0.0284
     44 H          -5.3205    0.9222    2.2968 H       1  UNL1        0.0284
     45 H          -6.5662   -0.9720    1.6747 H       1  UNL1        0.0324
     46 H          -7.7297    1.3743    0.0449 H       1  UNL1        0.0560
     47 H          -8.6162   -0.0759    0.5639 H       1  UNL1        0.0560
     48 H          -8.9550    1.5140    2.1015 H       1  UNL1        0.2094
     49 H          -7.1048   -1.6579   -0.4923 H       1  UNL1        0.0284
     50 H          -6.4189   -0.1702   -1.2555 H       1  UNL1        0.0284
     51 H          -4.8417   -2.0535   -1.5217 H       1  UNL1        0.0464
     52 H          -4.7325   -2.1428    0.3134 H       1  UNL1        0.0464
     53 H           0.9276   -0.2498   -1.7636 H       1  UNL1        0.0655
     54 H           3.1738   -0.5643   -0.9342 H       1  UNL1        0.0637
     55 H           9.0621   -1.8166    0.8092 H       1  UNL1        0.0639
     56 H          10.5053   -0.0944   -0.2673 H       1  UNL1        0.0618
     57 H           9.5490    2.0009   -0.9893 H       1  UNL1        0.0618
     58 H           7.1030    2.4260   -0.6459 H       1  UNL1        0.0639
@<TRIPOS>BOND
     1     1     2    1
     2     2     3   ar
     3     3     4    1
     4     4     5    1
     5     5     6   ar
     6     6     7   ar
     7     7     8   ar
     8     8     9    1
     9     9    10    1
    10    10    11   ar
    11    11    12   ar
    12    12    13   ar
    13    13    14   ar
    14    14    15   ar
    15    15    16    1
    16    16    17    1
    17    17    18    1
    18    18    19    1
    19    19    20    1
    20    20    21    1
    21    19    22    1
    22    22    23    1
    23     8    24   ar
    24    24    25   ar
    25     3    26   ar
    26    26    27   ar
    27    27    28   ar
    28    28    29   ar
    29    29    30   ar
    30    30    31   ar
    31    31    32   ar
    32    32     2   ar
    33    25     5   ar
    34    32    27   ar
    35    15    10   ar
    36    23    16    1
    37     1    33    1
    38     1    34    1
    39     1    35    1
    40     4    36    1
    41     6    37    1
    42     7    38    1
    43    12    39    1
    44    13    40    1
    45    17    41    1
    46    17    42    1
    47    18    43    1
    48    18    44    1
    49    19    45    1
    50    20    46    1
    51    20    47    1
    52    21    48    1
    53    22    49    1
    54    22    50    1
    55    23    51    1
    56    23    52    1
    57    24    53    1
    58    25    54    1
    59    28    55    1
    60    29    56    1
    61    30    57    1
    62    31    58    1
