
     RDKit          3D

 52 55  0  0  0  0  0  0  0  0999 V2000
    5.0113    0.9774    2.7663 C   0  0  0  0  0  0  0  0  0  0  0  0
    6.3793    0.5375    2.3338 C   0  0  0  0  0  0  0  0  0  0  0  0
    6.6358    0.9707    0.6364 S   0  0  0  0  0  0  0  0  0  0  0  0
    6.3749    2.4473    0.5138 O   0  0  0  0  0  0  0  0  0  0  0  0
    8.0122    0.6002    0.2023 O   0  0  0  0  0  0  0  0  0  0  0  0
    5.4018    0.1502   -0.3043 C   0  0  0  0  0  0  0  0  0  0  0  0
    5.6105   -1.1159   -0.8197 C   0  0  0  0  0  0  0  0  0  0  0  0
    4.5819   -1.6945   -1.5532 C   0  0  0  0  0  0  0  0  0  0  0  0
    3.3822   -1.0554   -1.7780 C   0  0  0  0  0  0  0  0  0  0  0  0
    2.3352   -1.6052   -2.5058 O   0  0  0  0  0  0  0  0  0  0  0  0
    2.4579   -2.8899   -3.0682 C   0  0  0  0  0  0  0  0  0  0  0  0
    3.1580    0.2086   -1.2705 C   0  0  0  0  0  0  0  0  0  0  0  0
    1.9790    0.9731   -1.4258 N   0  0  0  0  0  0  0  0  0  0  0  0
    0.7268    0.4945   -0.9491 C   0  0  0  0  0  0  0  0  0  0  0  0
    0.5312   -0.6814   -0.3269 N   0  0  0  0  0  0  0  0  0  0  0  0
   -0.8028   -0.7409   -0.0430 C   0  0  0  0  0  0  0  0  0  0  0  0
   -1.3801    0.4224   -0.5116 C   0  0  0  0  0  0  0  0  0  0  0  0
   -0.4176    1.1352   -1.0496 O   0  0  0  0  0  0  0  0  0  0  0  0
   -2.7736    0.8554   -0.4613 C   0  0  0  0  0  0  0  0  0  0  0  0
   -3.0766    2.0827   -1.0138 C   0  0  0  0  0  0  0  0  0  0  0  0
   -4.3995    2.5333   -0.9857 C   0  0  0  0  0  0  0  0  0  0  0  0
   -5.3404    1.7056   -0.3949 C   0  0  0  0  0  0  0  0  0  0  0  0
   -5.0649    0.4916    0.1562 C   0  0  0  0  0  0  0  0  0  0  0  0
   -3.7528    0.0739    0.1139 C   0  0  0  0  0  0  0  0  0  0  0  0
   -6.1514   -0.2802    0.7470 C   0  0  0  0  0  0  0  0  0  0  0  0
   -5.9961   -1.5117    1.3297 C   0  0  0  0  0  0  0  0  0  0  0  0
   -7.0788   -2.2049    1.8807 C   0  0  0  0  0  0  0  0  0  0  0  0
   -8.3394   -1.6610    1.8504 C   0  0  0  0  0  0  0  0  0  0  0  0
   -8.4188   -0.4192    1.2482 C   0  0  0  0  0  0  0  0  0  0  0  0
   -7.3761    0.2507    0.7164 N   0  0  0  0  0  0  0  0  0  0  0  0
    4.1860    0.7778   -0.5417 C   0  0  0  0  0  0  0  0  0  0  0  0
    4.7503    1.9531    2.2995 H   0  0  0  0  0  0  0  0  0  0  0  0
    4.9184    1.1260    3.8636 H   0  0  0  0  0  0  0  0  0  0  0  0
    4.2418    0.2294    2.4734 H   0  0  0  0  0  0  0  0  0  0  0  0
    6.4901   -0.5592    2.4354 H   0  0  0  0  0  0  0  0  0  0  0  0
    7.1501    0.9930    2.9994 H   0  0  0  0  0  0  0  0  0  0  0  0
    6.5465   -1.6391   -0.6563 H   0  0  0  0  0  0  0  0  0  0  0  0
    4.7369   -2.6793   -1.9574 H   0  0  0  0  0  0  0  0  0  0  0  0
    2.9801   -3.6158   -2.4107 H   0  0  0  0  0  0  0  0  0  0  0  0
    3.0445   -2.8479   -4.0244 H   0  0  0  0  0  0  0  0  0  0  0  0
    1.4799   -3.3171   -3.3498 H   0  0  0  0  0  0  0  0  0  0  0  0
    2.0497    1.8999   -1.9002 H   0  0  0  0  0  0  0  0  0  0  0  0
   -1.4094   -1.5012    0.4508 H   0  0  0  0  0  0  0  0  0  0  0  0
   -2.3487    2.7593   -1.4889 H   0  0  0  0  0  0  0  0  0  0  0  0
   -4.6448    3.4794   -1.4095 H   0  0  0  0  0  0  0  0  0  0  0  0
   -6.3581    2.1091   -0.4016 H   0  0  0  0  0  0  0  0  0  0  0  0
   -3.4967   -0.8789    0.5388 H   0  0  0  0  0  0  0  0  0  0  0  0
   -5.0197   -1.9555    1.3643 H   0  0  0  0  0  0  0  0  0  0  0  0
   -6.9447   -3.1831    2.3415 H   0  0  0  0  0  0  0  0  0  0  0  0
   -9.2163   -2.1390    2.2552 H   0  0  0  0  0  0  0  0  0  0  0  0
   -9.4118    0.0494    1.2044 H   0  0  0  0  0  0  0  0  0  0  0  0
    4.0665    1.7673   -0.1195 H   0  0  0  0  0  0  0  0  0  0  0  0
  1  2  1  0
  2  3  1  0
  3  4  2  0
  3  5  2  0
  3  6  1  0
  6  7  2  0
  7  8  1  0
  8  9  2  0
  9 10  1  0
 10 11  1  0
  9 12  1  0
 12 13  1  0
 13 14  1  0
 14 15  2  0
 15 16  1  0
 16 17  2  0
 17 18  1  0
 17 19  1  0
 19 20  2  0
 20 21  1  0
 21 22  2  0
 22 23  1  0
 23 24  2  0
 23 25  1  0
 25 26  2  0
 26 27  1  0
 27 28  2  0
 28 29  1  0
 29 30  2  0
 12 31  2  0
 31  6  1  0
 18 14  1  0
 24 19  1  0
 30 25  1  0
  1 32  1  0
  1 33  1  0
  1 34  1  0
  2 35  1  0
  2 36  1  0
  7 37  1  0
  8 38  1  0
 11 39  1  0
 11 40  1  0
 11 41  1  0
 13 42  1  0
 16 43  1  0
 20 44  1  0
 21 45  1  0
 22 46  1  0
 24 47  1  0
 26 48  1  0
 27 49  1  0
 28 50  1  0
 29 51  1  0
 31 52  1  0
M  END
$$$$
