@<TRIPOS>MOLECULE
*****
 52 55 0 0 0
SMALL
GASTEIGER

@<TRIPOS>ATOM
      1 C           5.0113    0.9774    2.7663 C.3     1  UNL1       -0.0453
      2 C           6.3793    0.5375    2.3338 C.3     1  UNL1        0.0681
      3 S           6.6358    0.9707    0.6364 S.O2    1  UNL1       -0.0033
      4 O           6.3749    2.4473    0.5138 O.2     1  UNL1       -0.1694
      5 O           8.0122    0.6002    0.2023 O.2     1  UNL1       -0.1694
      6 C           5.4018    0.1502   -0.3043 C.ar    1  UNL1        0.0901
      7 C           5.6105   -1.1159   -0.8197 C.ar    1  UNL1       -0.0333
      8 C           4.5819   -1.6945   -1.5532 C.ar    1  UNL1       -0.0163
      9 C           3.3822   -1.0554   -1.7780 C.ar    1  UNL1        0.1413
     10 O           2.3352   -1.6052   -2.5058 O.3     1  UNL1       -0.4933
     11 C           2.4579   -2.8899   -3.0682 C.3     1  UNL1        0.0789
     12 C           3.1580    0.2086   -1.2705 C.ar    1  UNL1        0.0787
     13 N           1.9790    0.9731   -1.4258 N.pl3   1  UNL1       -0.2657
     14 C           0.7268    0.4945   -0.9491 C.ar    1  UNL1        0.2924
     15 N           0.5312   -0.6814   -0.3269 N.ar    1  UNL1       -0.2031
     16 C          -0.8028   -0.7409   -0.0430 C.ar    1  UNL1        0.0756
     17 C          -1.3801    0.4224   -0.5116 C.ar    1  UNL1        0.1569
     18 O          -0.4176    1.1352   -1.0496 O.2     1  UNL1       -0.4244
     19 C          -2.7736    0.8554   -0.4613 C.ar    1  UNL1        0.0195
     20 C          -3.0766    2.0827   -1.0138 C.ar    1  UNL1       -0.0510
     21 C          -4.3995    2.5333   -0.9857 C.ar    1  UNL1       -0.0605
     22 C          -5.3404    1.7056   -0.3949 C.ar    1  UNL1       -0.0525
     23 C          -5.0649    0.4916    0.1562 C.ar    1  UNL1        0.0010
     24 C          -3.7528    0.0739    0.1139 C.ar    1  UNL1       -0.0418
     25 C          -6.1514   -0.2802    0.7470 C.ar    1  UNL1        0.0710
     26 C          -5.9961   -1.5117    1.3297 C.ar    1  UNL1       -0.0357
     27 C          -7.0788   -2.2049    1.8807 C.ar    1  UNL1       -0.0583
     28 C          -8.3394   -1.6610    1.8504 C.ar    1  UNL1       -0.0436
     29 C          -8.4188   -0.4192    1.2482 C.ar    1  UNL1        0.0283
     30 N          -7.3761    0.2507    0.7164 N.ar    1  UNL1       -0.2550
     31 C           4.1860    0.7778   -0.5417 C.ar    1  UNL1       -0.0120
     32 H           4.7503    1.9531    2.2995 H       1  UNL1        0.0245
     33 H           4.9184    1.1260    3.8636 H       1  UNL1        0.0245
     34 H           4.2418    0.2294    2.4734 H       1  UNL1        0.0245
     35 H           6.4901   -0.5592    2.4354 H       1  UNL1        0.0501
     36 H           7.1501    0.9930    2.9994 H       1  UNL1        0.0501
     37 H           6.5465   -1.6391   -0.6563 H       1  UNL1        0.0638
     38 H           4.7369   -2.6793   -1.9574 H       1  UNL1        0.0655
     39 H           2.9801   -3.6158   -2.4107 H       1  UNL1        0.0660
     40 H           3.0445   -2.8479   -4.0244 H       1  UNL1        0.0660
     41 H           1.4799   -3.3171   -3.3498 H       1  UNL1        0.0660
     42 H           2.0497    1.8999   -1.9002 H       1  UNL1        0.1566
     43 H          -1.4094   -1.5012    0.4508 H       1  UNL1        0.0869
     44 H          -2.3487    2.7593   -1.4889 H       1  UNL1        0.0625
     45 H          -4.6448    3.4794   -1.4095 H       1  UNL1        0.0618
     46 H          -6.3581    2.1091   -0.4016 H       1  UNL1        0.0624
     47 H          -3.4967   -0.8789    0.5388 H       1  UNL1        0.0631
     48 H          -5.0197   -1.9555    1.3643 H       1  UNL1        0.0639
     49 H          -6.9447   -3.1831    2.3415 H       1  UNL1        0.0619
     50 H          -9.2163   -2.1390    2.2552 H       1  UNL1        0.0633
     51 H          -9.4118    0.0494    1.2044 H       1  UNL1        0.0830
     52 H           4.0665    1.7673   -0.1195 H       1  UNL1        0.0656
@<TRIPOS>BOND
     1     1     2    1
     2     2     3    1
     3     3     4    2
     4     3     5    2
     5     3     6    1
     6     6     7   ar
     7     7     8   ar
     8     8     9   ar
     9     9    10    1
    10    10    11    1
    11     9    12   ar
    12    12    13    1
    13    13    14    1
    14    14    15   ar
    15    15    16   ar
    16    16    17   ar
    17    17    18   ar
    18    17    19    1
    19    19    20   ar
    20    20    21   ar
    21    21    22   ar
    22    22    23   ar
    23    23    24   ar
    24    23    25    1
    25    25    26   ar
    26    26    27   ar
    27    27    28   ar
    28    28    29   ar
    29    29    30   ar
    30    12    31   ar
    31    31     6   ar
    32    18    14   ar
    33    24    19   ar
    34    30    25   ar
    35     1    32    1
    36     1    33    1
    37     1    34    1
    38     2    35    1
    39     2    36    1
    40     7    37    1
    41     8    38    1
    42    11    39    1
    43    11    40    1
    44    11    41    1
    45    13    42    1
    46    16    43    1
    47    20    44    1
    48    21    45    1
    49    22    46    1
    50    24    47    1
    51    26    48    1
    52    27    49    1
    53    28    50    1
    54    29    51    1
    55    31    52    1
