
     RDKit          3D

 60 64  0  0  0  0  0  0  0  0999 V2000
   -5.7615   -0.8143    3.3560 C   0  0  0  0  0  0  0  0  0  0  0  0
   -5.7341    0.0558    2.1312 C   0  0  0  0  0  0  0  0  0  0  0  0
   -5.8865    1.5380    2.4818 C   0  0  0  0  0  0  0  0  0  0  0  0
   -5.3644    2.1907    1.2094 C   0  0  0  0  0  0  0  0  0  0  0  0
   -4.6416    1.1110    0.4223 C   0  0  0  0  0  0  0  0  0  0  0  0
   -4.4949    0.0844    1.4229 N   0  0  0  0  0  0  0  0  0  0  0  0
   -3.3445   -0.6959    1.6012 C   0  0  0  0  0  0  0  0  0  0  0  0
   -3.1824   -1.5774    2.4818 O   0  0  0  0  0  0  0  0  0  0  0  0
   -2.1461   -0.5269    0.6932 C   0  0  2  0  0  0  0  0  0  0  0  0
   -2.2844   -0.7978   -0.7427 C   0  0  0  0  0  0  0  0  0  0  0  0
   -1.6604   -1.8246    0.1332 C   0  0  1  0  0  0  0  0  0  0  0  0
   -0.1805   -2.0486    0.0952 C   0  0  1  0  0  0  0  0  0  0  0  0
    0.0240   -3.5929    0.0602 C   0  0  0  0  0  0  0  0  0  0  0  0
    0.4188   -1.5922   -1.1788 C   0  0  0  0  0  0  0  0  0  0  0  0
    1.5569   -0.8409   -1.1755 C   0  0  0  0  0  0  0  0  0  0  0  0
    2.1214   -0.3910   -2.3799 C   0  0  0  0  0  0  0  0  0  0  0  0
    3.3152    0.4083   -2.4122 C   0  0  0  0  0  0  0  0  0  0  0  0
    4.3808    0.2969   -1.6674 C   0  0  0  0  0  0  0  0  0  0  0  0
    4.4140   -0.6714   -0.7389 F   0  0  0  0  0  0  0  0  0  0  0  0
    5.5092    1.2019   -1.8328 C   0  0  0  0  0  0  0  0  0  0  0  0
    6.6467    1.1398   -1.0822 C   0  0  0  0  0  0  0  0  0  0  0  0
    7.7322    2.0189   -1.2316 C   0  0  0  0  0  0  0  0  0  0  0  0
    7.6194    2.9942   -2.2023 C   0  0  0  0  0  0  0  0  0  0  0  0
    8.6812    3.9705   -2.4227 C   0  0  0  0  0  0  0  0  0  0  0  0
    9.5061    4.7524   -2.5870 N   0  0  0  0  0  0  0  0  0  0  0  0
    6.4707    3.0407   -2.9468 C   0  0  0  0  0  0  0  0  0  0  0  0
    5.4386    2.1844   -2.7852 N   0  0  0  0  0  0  0  0  0  0  0  0
    1.5160   -0.7140   -3.5791 C   0  0  0  0  0  0  0  0  0  0  0  0
    0.3771   -1.4676   -3.5619 C   0  0  0  0  0  0  0  0  0  0  0  0
   -0.1797   -1.9116   -2.3706 C   0  0  0  0  0  0  0  0  0  0  0  0
   -1.3061   -2.6514   -2.4608 F   0  0  0  0  0  0  0  0  0  0  0  0
    0.5673   -1.6386    1.2482 N   0  0  0  0  0  0  0  0  0  0  0  0
    0.4265   -0.5557    1.8867 C   0  0  0  0  0  0  0  0  0  0  0  0
    1.2122   -0.2487    3.0054 N   0  0  0  0  0  0  0  0  0  0  0  0
   -0.8395    0.5506    1.2964 S   0  0  0  0  0  0  0  0  0  0  0  0
   -6.6928   -0.5185    3.9269 H   0  0  0  0  0  0  0  0  0  0  0  0
   -5.8755   -1.8746    3.1426 H   0  0  0  0  0  0  0  0  0  0  0  0
   -4.9379   -0.5819    4.0618 H   0  0  0  0  0  0  0  0  0  0  0  0
   -6.5886   -0.1640    1.4550 H   0  0  0  0  0  0  0  0  0  0  0  0
   -5.1787    1.8208    3.2952 H   0  0  0  0  0  0  0  0  0  0  0  0
   -6.9287    1.8103    2.7117 H   0  0  0  0  0  0  0  0  0  0  0  0
   -6.2314    2.6142    0.6586 H   0  0  0  0  0  0  0  0  0  0  0  0
   -4.6005    2.9688    1.4474 H   0  0  0  0  0  0  0  0  0  0  0  0
   -5.3149    0.7729   -0.3773 H   0  0  0  0  0  0  0  0  0  0  0  0
   -3.6566    1.4748    0.0490 H   0  0  0  0  0  0  0  0  0  0  0  0
   -1.6679   -0.1671   -1.4167 H   0  0  0  0  0  0  0  0  0  0  0  0
   -3.2878   -1.0018   -1.1715 H   0  0  0  0  0  0  0  0  0  0  0  0
   -2.2781   -2.7469    0.2673 H   0  0  0  0  0  0  0  0  0  0  0  0
    1.0860   -3.8071   -0.0847 H   0  0  0  0  0  0  0  0  0  0  0  0
   -0.2684   -3.9677    1.0664 H   0  0  0  0  0  0  0  0  0  0  0  0
   -0.6606   -4.0365   -0.6650 H   0  0  0  0  0  0  0  0  0  0  0  0
    2.0955   -0.5429   -0.2849 H   0  0  0  0  0  0  0  0  0  0  0  0
    3.3445    1.2215   -3.1555 H   0  0  0  0  0  0  0  0  0  0  0  0
    6.7303    0.3650   -0.3179 H   0  0  0  0  0  0  0  0  0  0  0  0
    8.6207    1.9548   -0.6287 H   0  0  0  0  0  0  0  0  0  0  0  0
    6.4016    3.8163   -3.7092 H   0  0  0  0  0  0  0  0  0  0  0  0
    1.9694   -0.3536   -4.5104 H   0  0  0  0  0  0  0  0  0  0  0  0
   -0.0781   -1.7059   -4.5289 H   0  0  0  0  0  0  0  0  0  0  0  0
    1.5426    0.6949    3.2787 H   0  0  0  0  0  0  0  0  0  0  0  0
    1.5281   -1.0228    3.6720 H   0  0  0  0  0  0  0  0  0  0  0  0
  1  2  1  0
  2  3  1  0
  3  4  1  0
  4  5  1  0
  5  6  1  0
  6  7  1  0
  7  8  2  0
  9  7  1  1
  9 10  1  0
 10 11  1  0
 11 12  1  0
 12 13  1  6
 12 14  1  0
 14 15  2  0
 15 16  1  0
 16 17  1  0
 17 18  2  0
 18 19  1  0
 18 20  1  0
 20 21  2  0
 21 22  1  0
 22 23  2  0
 23 24  1  0
 24 25  3  0
 23 26  1  0
 26 27  2  0
 16 28  2  0
 28 29  1  0
 29 30  2  0
 30 31  1  0
 12 32  1  0
 32 33  2  0
 33 34  1  0
 33 35  1  0
  6  2  1  0
 11  9  1  0
 30 14  1  0
 35  9  1  0
 27 20  1  0
  1 36  1  0
  1 37  1  0
  1 38  1  0
  2 39  1  0
  3 40  1  0
  3 41  1  0
  4 42  1  0
  4 43  1  0
  5 44  1  0
  5 45  1  0
 10 46  1  0
 10 47  1  0
 11 48  1  1
 13 49  1  0
 13 50  1  0
 13 51  1  0
 15 52  1  0
 17 53  1  0
 21 54  1  0
 22 55  1  0
 26 56  1  0
 28 57  1  0
 29 58  1  0
 34 59  1  0
 34 60  1  0
M  END
$$$$
