@<TRIPOS>MOLECULE
*****
 60 64 0 0 0
SMALL
GASTEIGER

@<TRIPOS>ATOM
      1 C          -5.7615   -0.8143    3.3560 C.3     1  UNL1       -0.0464
      2 C          -5.7341    0.0558    2.1312 C.3     1  UNL1        0.0233
      3 C          -5.8865    1.5380    2.4818 C.3     1  UNL1       -0.0331
      4 C          -5.3644    2.1907    1.2094 C.3     1  UNL1       -0.0355
      5 C          -4.6416    1.1110    0.4223 C.3     1  UNL1        0.0151
      6 N          -4.4949    0.0844    1.4229 N.am    1  UNL1       -0.2975
      7 C          -3.3445   -0.6959    1.6012 C.2     1  UNL1        0.2327
      8 O          -3.1824   -1.5774    2.4818 O.2     1  UNL1       -0.2741
      9 C          -2.1461   -0.5269    0.6932 C.3     1  UNL1        0.1054
     10 C          -2.2844   -0.7978   -0.7427 C.3     1  UNL1       -0.0220
     11 C          -1.6604   -1.8246    0.1332 C.3     1  UNL1        0.0134
     12 C          -0.1805   -2.0486    0.0952 C.3     1  UNL1        0.0935
     13 C           0.0240   -3.5929    0.0602 C.3     1  UNL1       -0.0351
     14 C           0.4188   -1.5922   -1.1788 C.ar    1  UNL1        0.0158
     15 C           1.5569   -0.8409   -1.1755 C.ar    1  UNL1       -0.0463
     16 C           2.1214   -0.3910   -2.3799 C.ar    1  UNL1       -0.0217
     17 C           3.3152    0.4083   -2.4122 C.2     1  UNL1       -0.0172
     18 C           4.3808    0.2969   -1.6674 C.2     1  UNL1        0.1492
     19 F           4.4140   -0.6714   -0.7389 F       1  UNL1       -0.2032
     20 C           5.5092    1.2019   -1.8328 C.ar    1  UNL1        0.0990
     21 C           6.6467    1.1398   -1.0822 C.ar    1  UNL1       -0.0322
     22 C           7.7322    2.0189   -1.2316 C.ar    1  UNL1       -0.0408
     23 C           7.6194    2.9942   -2.2023 C.ar    1  UNL1        0.0699
     24 C           8.6812    3.9705   -2.4227 C.1     1  UNL1        0.1007
     25 N           9.5061    4.7524   -2.5870 N.1     1  UNL1       -0.1908
     26 C           6.4707    3.0407   -2.9468 C.ar    1  UNL1        0.0457
     27 N           5.4386    2.1844   -2.7852 N.ar    1  UNL1       -0.2514
     28 C           1.5160   -0.7140   -3.5791 C.ar    1  UNL1       -0.0518
     29 C           0.3771   -1.4676   -3.5619 C.ar    1  UNL1       -0.0255
     30 C          -0.1797   -1.9116   -2.3706 C.ar    1  UNL1        0.1289
     31 F          -1.3061   -2.6514   -2.4608 F       1  UNL1       -0.2051
     32 N           0.5673   -1.6386    1.2482 N.2     1  UNL1       -0.2521
     33 C           0.4265   -0.5557    1.8867 C.2     1  UNL1        0.1485
     34 N           1.2122   -0.2487    3.0054 N.pl3   1  UNL1       -0.3380
     35 S          -0.8395    0.5506    1.2964 S.3     1  UNL1       -0.0746
     36 H          -6.6928   -0.5185    3.9269 H       1  UNL1        0.0248
     37 H          -5.8755   -1.8746    3.1426 H       1  UNL1        0.0248
     38 H          -4.9379   -0.5819    4.0618 H       1  UNL1        0.0248
     39 H          -6.5886   -0.1640    1.4550 H       1  UNL1        0.0498
     40 H          -5.1787    1.8208    3.2952 H       1  UNL1        0.0283
     41 H          -6.9287    1.8103    2.7117 H       1  UNL1        0.0283
     42 H          -6.2314    2.6142    0.6586 H       1  UNL1        0.0281
     43 H          -4.6005    2.9688    1.4474 H       1  UNL1        0.0281
     44 H          -5.3149    0.7729   -0.3773 H       1  UNL1        0.0465
     45 H          -3.6566    1.4748    0.0490 H       1  UNL1        0.0465
     46 H          -1.6679   -0.1671   -1.4167 H       1  UNL1        0.0287
     47 H          -3.2878   -1.0018   -1.1715 H       1  UNL1        0.0287
     48 H          -2.2781   -2.7469    0.2673 H       1  UNL1        0.0346
     49 H           1.0860   -3.8071   -0.0847 H       1  UNL1        0.0256
     50 H          -0.2684   -3.9677    1.0664 H       1  UNL1        0.0256
     51 H          -0.6606   -4.0365   -0.6650 H       1  UNL1        0.0256
     52 H           2.0955   -0.5429   -0.2849 H       1  UNL1        0.0628
     53 H           3.3445    1.2215   -3.1555 H       1  UNL1        0.0653
     54 H           6.7303    0.3650   -0.3179 H       1  UNL1        0.0640
     55 H           8.6207    1.9548   -0.6287 H       1  UNL1        0.0631
     56 H           6.4016    3.8163   -3.7092 H       1  UNL1        0.0843
     57 H           1.9694   -0.3536   -4.5104 H       1  UNL1        0.0624
     58 H          -0.0781   -1.7059   -4.5289 H       1  UNL1        0.0646
     59 H           1.5426    0.6949    3.2787 H       1  UNL1        0.1442
     60 H           1.5281   -1.0228    3.6720 H       1  UNL1        0.1442
@<TRIPOS>BOND
     1     1     2    1
     2     2     3    1
     3     3     4    1
     4     4     5    1
     5     5     6    1
     6     6     7   am
     7     7     8    2
     8     9     7    1
     9     9    10    1
    10    10    11    1
    11    11    12    1
    12    12    13    1
    13    12    14    1
    14    14    15   ar
    15    15    16   ar
    16    16    17    1
    17    17    18    2
    18    18    19    1
    19    18    20    1
    20    20    21   ar
    21    21    22   ar
    22    22    23   ar
    23    23    24    1
    24    24    25    3
    25    23    26   ar
    26    26    27   ar
    27    16    28   ar
    28    28    29   ar
    29    29    30   ar
    30    30    31    1
    31    12    32    1
    32    32    33    2
    33    33    34    1
    34    33    35    1
    35     6     2    1
    36    11     9    1
    37    30    14   ar
    38    35     9    1
    39    27    20   ar
    40     1    36    1
    41     1    37    1
    42     1    38    1
    43     2    39    1
    44     3    40    1
    45     3    41    1
    46     4    42    1
    47     4    43    1
    48     5    44    1
    49     5    45    1
    50    10    46    1
    51    10    47    1
    52    11    48    1
    53    13    49    1
    54    13    50    1
    55    13    51    1
    56    15    52    1
    57    17    53    1
    58    21    54    1
    59    22    55    1
    60    26    56    1
    61    28    57    1
    62    29    58    1
    63    34    59    1
    64    34    60    1
