@<TRIPOS>MOLECULE
*****
 66 69 0 0 0
SMALL
GASTEIGER

@<TRIPOS>ATOM
      1 C           0.3346    0.1352   -3.4827 C.3     1  UNL1       -0.0421
      2 C           0.5008   -0.7492   -2.2397 C.3     1  UNL1        0.0515
      3 C           1.8155   -0.5449   -1.6436 C.ar    1  UNL1       -0.0271
      4 C           2.8153    0.0911   -2.3334 C.ar    1  UNL1       -0.0562
      5 C           4.0721    0.3017   -1.7977 C.ar    1  UNL1       -0.0537
      6 C           4.3437   -0.1358   -0.5319 C.ar    1  UNL1       -0.0177
      7 C           5.6737    0.0768    0.0622 C.ar    1  UNL1       -0.0114
      8 C           6.8214    0.0985   -0.6660 C.ar    1  UNL1       -0.0376
      9 C           8.0392    0.2995   -0.0746 C.ar    1  UNL1        0.0082
     10 N           8.1166    0.4811    1.2568 N.ar    1  UNL1       -0.3182
     11 C           9.3962    0.6981    1.9212 C.3     1  UNL1        0.0147
     12 C           6.9797    0.4593    1.9764 C.ar    1  UNL1        0.2516
     13 O           7.0766    0.6335    3.2366 O.2     1  UNL1       -0.2677
     14 C           5.7312    0.2597    1.4195 C.ar    1  UNL1        0.0107
     15 C           3.3597   -0.7811    0.1929 C.ar    1  UNL1       -0.0537
     16 C           2.0894   -0.9844   -0.3710 C.ar    1  UNL1       -0.0562
     17 N          -0.5979   -0.4530   -1.3820 N.am    1  UNL1       -0.2605
     18 C          -1.6372   -1.4481   -1.1713 C.3     1  UNL1        0.0224
     19 C          -2.9804   -0.7863   -1.1490 C.3     1  UNL1        0.0077
     20 C          -3.0860    0.2260   -0.0284 C.3     1  UNL1        0.1466
     21 C          -3.0752   -0.3222    1.3353 C.3     1  UNL1        0.0200
     22 C          -4.1007   -1.2427    1.8060 C.3     1  UNL1        0.0645
     23 C          -4.2715   -2.5558    1.1003 C.3     1  UNL1       -0.0362
     24 C          -5.4896   -0.6510    1.9397 C.3     1  UNL1       -0.0362
     25 O          -3.7511   -1.5889    3.1420 O.3     1  UNL1       -0.3890
     26 C          -4.2642    1.1264   -0.2912 C.ar    1  UNL1        0.0311
     27 C          -5.1428    0.8545   -1.2961 C.ar    1  UNL1       -0.0520
     28 C          -6.2143    1.6830   -1.5103 C.ar    1  UNL1       -0.0612
     29 C          -6.4307    2.8028   -0.7232 C.ar    1  UNL1       -0.0590
     30 C          -5.5277    3.0497    0.2810 C.ar    1  UNL1       -0.0260
     31 C          -4.4428    2.2167    0.5027 C.ar    1  UNL1        0.1303
     32 F          -3.5994    2.5586    1.5208 F       1  UNL1       -0.2051
     33 O          -1.9743    1.0920   -0.1789 O.3     1  UNL1       -0.4386
     34 C          -0.7567    0.7817   -0.6968 C.2     1  UNL1        0.4042
     35 O           0.2568    1.5347   -0.6049 O.2     1  UNL1       -0.2262
     36 H           0.8607   -0.3575   -4.3207 H       1  UNL1        0.0251
     37 H           0.6986    1.1617   -3.2723 H       1  UNL1        0.0251
     38 H          -0.7506    0.1816   -3.7651 H       1  UNL1        0.0251
     39 H           0.3642   -1.7926   -2.6422 H       1  UNL1        0.0549
     40 H           2.6023    0.4439   -3.3508 H       1  UNL1        0.0621
     41 H           4.8389    0.8034   -2.3592 H       1  UNL1        0.0624
     42 H           6.7566   -0.0497   -1.7519 H       1  UNL1        0.0638
     43 H           8.9618    0.3211   -0.6284 H       1  UNL1        0.0810
     44 H           9.2771    1.5104    2.6859 H       1  UNL1        0.0457
     45 H          10.1548    1.0744    1.1836 H       1  UNL1        0.0457
     46 H           9.7569   -0.2113    2.4431 H       1  UNL1        0.0457
     47 H           4.8817    0.2591    2.0790 H       1  UNL1        0.0678
     48 H           3.5953   -1.1206    1.1959 H       1  UNL1        0.0624
     49 H           1.3407   -1.4909    0.2175 H       1  UNL1        0.0621
     50 H          -1.3607   -2.0054   -0.2760 H       1  UNL1        0.0467
     51 H          -1.6383   -2.1784   -2.0163 H       1  UNL1        0.0467
     52 H          -3.8054   -1.4712   -1.2514 H       1  UNL1        0.0322
     53 H          -3.0031   -0.1559   -2.0956 H       1  UNL1        0.0322
     54 H          -2.0715   -0.8652    1.4324 H       1  UNL1        0.0335
     55 H          -2.9616    0.4984    2.0833 H       1  UNL1        0.0335
     56 H          -4.6148   -3.3504    1.8430 H       1  UNL1        0.0257
     57 H          -3.3833   -2.9119    0.5880 H       1  UNL1        0.0257
     58 H          -5.1354   -2.5108    0.3914 H       1  UNL1        0.0257
     59 H          -6.0566   -0.6484    1.0080 H       1  UNL1        0.0257
     60 H          -6.0433   -1.3507    2.6327 H       1  UNL1        0.0257
     61 H          -5.4816    0.3206    2.4734 H       1  UNL1        0.0257
     62 H          -2.9574   -2.1889    3.0690 H       1  UNL1        0.2101
     63 H          -5.0246   -0.0006   -1.9382 H       1  UNL1        0.0622
     64 H          -6.9161    1.4576   -2.3202 H       1  UNL1        0.0618
     65 H          -7.2766    3.4735   -0.8775 H       1  UNL1        0.0618
     66 H          -5.6885    3.9377    0.9147 H       1  UNL1        0.0646
@<TRIPOS>BOND
     1     1     2    1
     2     2     3    1
     3     3     4   ar
     4     4     5   ar
     5     5     6   ar
     6     6     7    1
     7     7     8   ar
     8     8     9   ar
     9     9    10   ar
    10    10    11    1
    11    10    12   ar
    12    12    13    2
    13    12    14   ar
    14     6    15   ar
    15    15    16   ar
    16     2    17    1
    17    17    18    1
    18    18    19    1
    19    19    20    1
    20    20    21    1
    21    21    22    1
    22    22    23    1
    23    22    24    1
    24    22    25    1
    25    20    26    1
    26    26    27   ar
    27    27    28   ar
    28    28    29   ar
    29    29    30   ar
    30    30    31   ar
    31    31    32    1
    32    20    33    1
    33    33    34    1
    34    34    35    2
    35    16     3   ar
    36    34    17   am
    37    14     7   ar
    38    31    26   ar
    39     1    36    1
    40     1    37    1
    41     1    38    1
    42     2    39    1
    43     4    40    1
    44     5    41    1
    45     8    42    1
    46     9    43    1
    47    11    44    1
    48    11    45    1
    49    11    46    1
    50    14    47    1
    51    15    48    1
    52    16    49    1
    53    18    50    1
    54    18    51    1
    55    19    52    1
    56    19    53    1
    57    21    54    1
    58    21    55    1
    59    23    56    1
    60    23    57    1
    61    23    58    1
    62    24    59    1
    63    24    60    1
    64    24    61    1
    65    25    62    1
    66    27    63    1
    67    28    64    1
    68    29    65    1
    69    30    66    1
