
     RDKit          3D

 47 50  0  0  0  0  0  0  0  0999 V2000
   -6.0437    2.6664   -0.4624 C   0  0  0  0  0  0  0  0  0  0  0  0
   -5.4750    1.3446   -0.2519 N   0  0  0  0  0  0  0  0  0  0  0  0
   -6.2027    0.1895    0.0741 C   0  0  0  0  0  0  0  0  0  0  0  0
   -7.4371    0.0185    0.2530 O   0  0  0  0  0  0  0  0  0  0  0  0
   -5.2147   -0.8967    0.1867 C   0  0  0  0  0  0  0  0  0  0  0  0
   -5.4442   -2.0887    0.4626 O   0  0  0  0  0  0  0  0  0  0  0  0
   -3.8979   -0.3174   -0.0871 C   0  0  0  0  0  0  0  0  0  0  0  0
   -2.6473   -0.8990   -0.1105 C   0  0  0  0  0  0  0  0  0  0  0  0
   -1.5376   -0.1283   -0.4003 C   0  0  0  0  0  0  0  0  0  0  0  0
    0.0641   -0.8465   -0.4358 S   0  0  0  0  0  6  0  0  0  0  0  0
   -0.0110   -2.2382   -0.9940 O   0  0  0  0  0  0  0  0  0  0  0  0
    0.9073   -0.0094   -1.3788 O   0  0  0  0  0  0  0  0  0  0  0  0
    0.8159   -0.7787    1.1023 N   0  0  0  0  0  0  0  0  0  0  0  0
    0.0374   -1.5351    2.0993 C   0  0  0  0  0  0  0  0  0  0  0  0
    0.3888   -2.9772    1.7601 C   0  0  0  0  0  0  0  0  0  0  0  0
    1.7630   -2.8978    1.1295 C   0  0  0  0  0  0  0  0  0  0  0  0
    2.0698   -1.4385    1.1828 C   0  0  1  0  0  0  0  0  0  0  0  0
    3.0998   -1.0013    0.1837 C   0  0  0  0  0  0  0  0  0  0  0  0
    3.3337    0.3810    0.3819 O   0  0  0  0  0  0  0  0  0  0  0  0
    4.2160    1.1244   -0.3518 C   0  0  0  0  0  0  0  0  0  0  0  0
    4.9462    0.5322   -1.3590 C   0  0  0  0  0  0  0  0  0  0  0  0
    5.8226    1.3401   -2.0646 C   0  0  0  0  0  0  0  0  0  0  0  0
    5.9243    2.6699   -1.7370 C   0  0  0  0  0  0  0  0  0  0  0  0
    5.1934    3.2091   -0.7466 N   0  0  0  0  0  0  0  0  0  0  0  0
    4.3453    2.4647   -0.0513 C   0  0  0  0  0  0  0  0  0  0  0  0
   -1.7104    1.2148   -0.6612 C   0  0  0  0  0  0  0  0  0  0  0  0
   -2.9699    1.8103   -0.6397 C   0  0  0  0  0  0  0  0  0  0  0  0
   -4.0758    1.0409   -0.3506 C   0  0  0  0  0  0  0  0  0  0  0  0
   -6.3356    3.1588    0.4827 H   0  0  0  0  0  0  0  0  0  0  0  0
   -5.3218    3.2984   -0.9976 H   0  0  0  0  0  0  0  0  0  0  0  0
   -6.9216    2.5483   -1.1317 H   0  0  0  0  0  0  0  0  0  0  0  0
   -2.5815   -1.9580    0.1034 H   0  0  0  0  0  0  0  0  0  0  0  0
   -1.0288   -1.3349    2.0329 H   0  0  0  0  0  0  0  0  0  0  0  0
    0.4944   -1.3071    3.0779 H   0  0  0  0  0  0  0  0  0  0  0  0
    0.4768   -3.5803    2.7006 H   0  0  0  0  0  0  0  0  0  0  0  0
   -0.3581   -3.4538    1.1145 H   0  0  0  0  0  0  0  0  0  0  0  0
    1.7682   -3.2999    0.0812 H   0  0  0  0  0  0  0  0  0  0  0  0
    2.5254   -3.4341    1.7533 H   0  0  0  0  0  0  0  0  0  0  0  0
    2.4765   -1.2292    2.2125 H   0  0  0  0  0  0  0  0  0  0  0  0
    2.8467   -1.1764   -0.8573 H   0  0  0  0  0  0  0  0  0  0  0  0
    4.0880   -1.4927    0.4286 H   0  0  0  0  0  0  0  0  0  0  0  0
    4.8665   -0.5152   -1.6175 H   0  0  0  0  0  0  0  0  0  0  0  0
    6.3935    0.8895   -2.8480 H   0  0  0  0  0  0  0  0  0  0  0  0
    6.6060    3.3081   -2.2827 H   0  0  0  0  0  0  0  0  0  0  0  0
    3.7506    2.8908    0.7504 H   0  0  0  0  0  0  0  0  0  0  0  0
   -0.8843    1.8726   -0.8945 H   0  0  0  0  0  0  0  0  0  0  0  0
   -3.1210    2.8618   -0.8421 H   0  0  0  0  0  0  0  0  0  0  0  0
  1  2  1  0
  2  3  1  0
  3  4  2  0
  3  5  1  0
  5  6  2  0
  5  7  1  0
  7  8  2  0
  8  9  1  0
  9 10  1  0
 10 11  2  0
 10 12  2  0
 10 13  1  0
 13 14  1  0
 14 15  1  0
 15 16  1  0
 16 17  1  0
 17 18  1  0
 18 19  1  0
 19 20  1  0
 20 21  2  0
 21 22  1  0
 22 23  2  0
 23 24  1  0
 24 25  2  0
  9 26  2  0
 26 27  1  0
 27 28  2  0
 28  2  1  0
 28  7  1  0
 17 13  1  0
 25 20  1  0
  1 29  1  0
  1 30  1  0
  1 31  1  0
  8 32  1  0
 14 33  1  0
 14 34  1  0
 15 35  1  0
 15 36  1  0
 16 37  1  0
 16 38  1  0
 17 39  1  1
 18 40  1  0
 18 41  1  0
 21 42  1  0
 22 43  1  0
 23 44  1  0
 25 45  1  0
 26 46  1  0
 27 47  1  0
M  END
$$$$
