@<TRIPOS>MOLECULE
*****
 47 50 0 0 0
SMALL
GASTEIGER

@<TRIPOS>ATOM
      1 C          -6.0437    2.6664   -0.4624 C.3     1  UNL1        0.0087
      2 N          -5.4750    1.3446   -0.2519 N.am    1  UNL1       -0.2672
      3 C          -6.2027    0.1895    0.0741 C.2     1  UNL1        0.2910
      4 O          -7.4371    0.0185    0.2530 O.2     1  UNL1       -0.2661
      5 C          -5.2147   -0.8967    0.1867 C.2     1  UNL1        0.2496
      6 O          -5.4442   -2.0887    0.4626 O.2     1  UNL1       -0.2817
      7 C          -3.8979   -0.3174   -0.0871 C.ar    1  UNL1        0.0501
      8 C          -2.6473   -0.8990   -0.1105 C.ar    1  UNL1       -0.0226
      9 C          -1.5376   -0.1283   -0.4003 C.ar    1  UNL1        0.1063
     10 S           0.0641   -0.8465   -0.4358 S.O2    1  UNL1        0.0612
     11 O          -0.0110   -2.2382   -0.9940 O.2     1  UNL1       -0.1528
     12 O           0.9073   -0.0094   -1.3788 O.2     1  UNL1       -0.1528
     13 N           0.8159   -0.7787    1.1023 N.3     1  UNL1       -0.1703
     14 C           0.0374   -1.5351    2.0993 C.3     1  UNL1        0.0210
     15 C           0.3888   -2.9772    1.7601 C.3     1  UNL1       -0.0370
     16 C           1.7630   -2.8978    1.1295 C.3     1  UNL1       -0.0313
     17 C           2.0698   -1.4385    1.1828 C.3     1  UNL1        0.0659
     18 C           3.0998   -1.0013    0.1837 C.3     1  UNL1        0.1068
     19 O           3.3337    0.3810    0.3819 O.3     1  UNL1       -0.4888
     20 C           4.2160    1.1244   -0.3518 C.ar    1  UNL1        0.1386
     21 C           4.9462    0.5322   -1.3590 C.ar    1  UNL1       -0.0170
     22 C           5.8226    1.3401   -2.0646 C.ar    1  UNL1       -0.0401
     23 C           5.9243    2.6699   -1.7370 C.ar    1  UNL1        0.0278
     24 N           5.1934    3.2091   -0.7466 N.ar    1  UNL1       -0.2596
     25 C           4.3453    2.4647   -0.0513 C.ar    1  UNL1        0.0692
     26 C          -1.7104    1.2148   -0.6612 C.ar    1  UNL1       -0.0335
     27 C          -2.9699    1.8103   -0.6397 C.ar    1  UNL1       -0.0377
     28 C          -4.0758    1.0409   -0.3506 C.ar    1  UNL1        0.0474
     29 H          -6.3356    3.1588    0.4827 H       1  UNL1        0.0433
     30 H          -5.3218    3.2984   -0.9976 H       1  UNL1        0.0433
     31 H          -6.9216    2.5483   -1.1317 H       1  UNL1        0.0433
     32 H          -2.5815   -1.9580    0.1034 H       1  UNL1        0.0645
     33 H          -1.0288   -1.3349    2.0329 H       1  UNL1        0.0444
     34 H           0.4944   -1.3071    3.0779 H       1  UNL1        0.0444
     35 H           0.4768   -3.5803    2.7006 H       1  UNL1        0.0279
     36 H          -0.3581   -3.4538    1.1145 H       1  UNL1        0.0279
     37 H           1.7682   -3.2999    0.0812 H       1  UNL1        0.0282
     38 H           2.5254   -3.4341    1.7533 H       1  UNL1        0.0282
     39 H           2.4765   -1.2292    2.2125 H       1  UNL1        0.0513
     40 H           2.8467   -1.1764   -0.8573 H       1  UNL1        0.0713
     41 H           4.0880   -1.4927    0.4286 H       1  UNL1        0.0713
     42 H           4.8665   -0.5152   -1.6175 H       1  UNL1        0.0655
     43 H           6.3935    0.8895   -2.8480 H       1  UNL1        0.0634
     44 H           6.6060    3.3081   -2.2827 H       1  UNL1        0.0829
     45 H           3.7506    2.8908    0.7504 H       1  UNL1        0.0867
     46 H          -0.8843    1.8726   -0.8945 H       1  UNL1        0.0638
     47 H          -3.1210    2.8618   -0.8421 H       1  UNL1        0.0637
@<TRIPOS>BOND
     1     1     2    1
     2     2     3   am
     3     3     4    2
     4     3     5    1
     5     5     6    2
     6     5     7    1
     7     7     8   ar
     8     8     9   ar
     9     9    10    1
    10    10    11    2
    11    10    12    2
    12    10    13    1
    13    13    14    1
    14    14    15    1
    15    15    16    1
    16    16    17    1
    17    17    18    1
    18    18    19    1
    19    19    20    1
    20    20    21   ar
    21    21    22   ar
    22    22    23   ar
    23    23    24   ar
    24    24    25   ar
    25     9    26   ar
    26    26    27   ar
    27    27    28   ar
    28    28     2    1
    29    28     7   ar
    30    17    13    1
    31    25    20   ar
    32     1    29    1
    33     1    30    1
    34     1    31    1
    35     8    32    1
    36    14    33    1
    37    14    34    1
    38    15    35    1
    39    15    36    1
    40    16    37    1
    41    16    38    1
    42    17    39    1
    43    18    40    1
    44    18    41    1
    45    21    42    1
    46    22    43    1
    47    23    44    1
    48    25    45    1
    49    26    46    1
    50    27    47    1
