@<TRIPOS>MOLECULE
*****
 85 90 0 0 0
SMALL
GASTEIGER

@<TRIPOS>ATOM
      1 C          -7.0885   -0.3333   -1.6288 C.3     1  UNL1       -0.0361
      2 C          -5.9974    0.1026   -0.6472 C.3     1  UNL1        0.0873
      3 O          -6.0972   -0.7253    0.4495 O.3     1  UNL1       -0.3431
      4 C          -5.1483   -0.3592    1.3992 C.3     1  UNL1        0.1881
      5 O          -3.9204   -0.2164    0.8130 O.3     1  UNL1       -0.3452
      6 C          -2.9141   -0.9764    1.3805 C.3     1  UNL1        0.0668
      7 C          -2.4207   -2.0200    0.4302 C.3     1  UNL1        0.0004
      8 C          -0.9156   -2.1433    0.5482 C.3     1  UNL1        0.0683
      9 O          -0.5442   -3.3356    0.0285 O.3     1  UNL1       -0.3910
     10 C          -0.2565   -0.9054    0.0233 C.3     1  UNL1        0.0540
     11 C          -0.9017   -0.3803   -1.2414 C.3     1  UNL1        0.0552
     12 O          -0.9087   -1.2416   -2.2987 O.3     1  UNL1       -0.3943
     13 C           1.2095   -0.9714   -0.1578 C.3     1  UNL1        0.0032
     14 C           1.6826   -1.4629   -1.4990 C.3     1  UNL1        0.0598
     15 O           1.1909   -2.7276   -1.8218 O.3     1  UNL1       -0.3915
     16 C           3.1639   -1.6058   -1.5984 C.3     1  UNL1       -0.0180
     17 C           3.9673   -0.4074   -1.1734 C.3     1  UNL1        0.0059
     18 C           3.8857    0.6113   -2.2606 C.3     1  UNL1       -0.0563
     19 C           5.3376   -0.8258   -0.7583 C.3     1  UNL1       -0.0080
     20 C           6.3336    0.2520   -0.6098 C.2     1  UNL1       -0.0222
     21 C           6.8661    0.6211    0.5483 C.2     1  UNL1        0.0252
     22 C           7.8037    1.7007    0.3295 C.2     1  UNL1        0.3323
     23 O           8.4882    2.2875    1.2380 O.2     1  UNL1       -0.2456
     24 O           7.8080    1.9591   -1.0164 O.3     1  UNL1       -0.4571
     25 C           6.9313    1.0818   -1.6643 C.3     1  UNL1        0.1147
     26 C           5.0326   -1.4743    0.6017 C.3     1  UNL1       -0.0432
     27 C           3.9333   -0.6175    1.1892 C.3     1  UNL1       -0.0226
     28 C           3.4070    0.2126    0.0758 C.3     1  UNL1        0.0752
     29 O           3.9393    1.5226    0.1334 O.3     1  UNL1       -0.3877
     30 C           1.9267    0.3639    0.0300 C.3     1  UNL1       -0.0056
     31 C           1.5374    1.0998    1.2769 C.3     1  UNL1       -0.0446
     32 C           0.5608    0.2589    2.0154 C.3     1  UNL1       -0.0229
     33 C          -0.6527    0.1499    1.0759 C.3     1  UNL1        0.0788
     34 O          -0.8299    1.3959    0.4919 O.3     1  UNL1       -0.3878
     35 C          -1.7815   -0.2281    1.9464 C.3     1  UNL1        0.0032
     36 C          -5.5504    0.9939    1.9529 C.3     1  UNL1        0.1341
     37 O          -6.8965    1.0233    2.3080 O.3     1  UNL1       -0.3841
     38 C          -5.3601    1.9991    0.8360 C.3     1  UNL1        0.1140
     39 O          -5.7588    3.2735    1.2313 O.3     1  UNL1       -0.3864
     40 C          -6.2758    1.5528   -0.3049 C.3     1  UNL1        0.1095
     41 O          -6.1217    2.3193   -1.4342 O.3     1  UNL1       -0.3866
     42 H          -6.9705   -1.4311   -1.7674 H       1  UNL1        0.0255
     43 H          -6.9868    0.2084   -2.5703 H       1  UNL1        0.0255
     44 H          -8.0717   -0.1521   -1.1456 H       1  UNL1        0.0255
     45 H          -5.0043    0.0614   -1.1090 H       1  UNL1        0.0621
     46 H          -5.1676   -1.0663    2.2509 H       1  UNL1        0.0937
     47 H          -3.4245   -1.5367    2.2223 H       1  UNL1        0.0599
     48 H          -2.8126   -3.0522    0.6780 H       1  UNL1        0.0315
     49 H          -2.7702   -1.8323   -0.5928 H       1  UNL1        0.0315
     50 H          -0.7030   -2.1880    1.6571 H       1  UNL1        0.0601
     51 H          -1.1881   -3.7206   -0.6044 H       1  UNL1        0.2098
     52 H          -1.9556   -0.0374   -1.0817 H       1  UNL1        0.0564
     53 H          -0.3719    0.5938   -1.4798 H       1  UNL1        0.0564
     54 H          -0.8794   -0.8012   -3.1834 H       1  UNL1        0.2094
     55 H           1.5953   -1.7237    0.5844 H       1  UNL1        0.0337
     56 H           1.3602   -0.8047   -2.3339 H       1  UNL1        0.0596
     57 H           1.2225   -2.9112   -2.7731 H       1  UNL1        0.2098
     58 H           3.4567   -2.5554   -1.1569 H       1  UNL1        0.0296
     59 H           3.3852   -1.7244   -2.7040 H       1  UNL1        0.0296
     60 H           3.9093    1.6590   -1.8692 H       1  UNL1        0.0236
     61 H           4.5072    0.4265   -3.1381 H       1  UNL1        0.0236
     62 H           2.8211    0.5319   -2.6601 H       1  UNL1        0.0236
     63 H           5.6878   -1.5994   -1.4771 H       1  UNL1        0.0353
     64 H           6.6852    0.2293    1.5478 H       1  UNL1        0.0689
     65 H           7.5437    0.4721   -2.3777 H       1  UNL1        0.0746
     66 H           6.2139    1.7287   -2.2161 H       1  UNL1        0.0746
     67 H           4.6681   -2.5356    0.4482 H       1  UNL1        0.0272
     68 H           5.9156   -1.5855    1.2318 H       1  UNL1        0.0272
     69 H           4.3557    0.0765    1.9552 H       1  UNL1        0.0293
     70 H           3.1796   -1.2248    1.7314 H       1  UNL1        0.0293
     71 H           4.2374    1.7424    1.0474 H       1  UNL1        0.2102
     72 H           1.6742    0.9645   -0.8698 H       1  UNL1        0.0332
     73 H           2.3729    1.3742    1.9286 H       1  UNL1        0.0270
     74 H           1.0255    2.0503    0.9965 H       1  UNL1        0.0270
     75 H           0.1800    0.8679    2.8863 H       1  UNL1        0.0293
     76 H           0.9053   -0.7300    2.3118 H       1  UNL1        0.0293
     77 H          -1.0027    2.0297    1.2118 H       1  UNL1        0.2102
     78 H          -2.2013    0.7452    2.3490 H       1  UNL1        0.0318
     79 H          -1.4401   -0.7462    2.8937 H       1  UNL1        0.0318
     80 H          -4.9179    1.2910    2.8127 H       1  UNL1        0.0671
     81 H          -7.0758    1.7314    2.9655 H       1  UNL1        0.2101
     82 H          -4.3334    1.9853    0.4286 H       1  UNL1        0.0648
     83 H          -5.2113    3.9688    0.8101 H       1  UNL1        0.2100
     84 H          -7.3086    1.5762    0.1158 H       1  UNL1        0.0646
     85 H          -5.7701    1.8110   -2.1928 H       1  UNL1        0.2100
@<TRIPOS>BOND
     1     1     2    1
     2     2     3    1
     3     3     4    1
     4     4     5    1
     5     5     6    1
     6     6     7    1
     7     7     8    1
     8     8     9    1
     9     8    10    1
    10    10    11    1
    11    11    12    1
    12    10    13    1
    13    13    14    1
    14    14    15    1
    15    14    16    1
    16    16    17    1
    17    17    18    1
    18    17    19    1
    19    19    20    1
    20    20    21    2
    21    21    22    1
    22    22    23    2
    23    22    24    1
    24    24    25    1
    25    19    26    1
    26    26    27    1
    27    27    28    1
    28    28    29    1
    29    28    30    1
    30    30    31    1
    31    31    32    1
    32    32    33    1
    33    33    34    1
    34    33    35    1
    35     4    36    1
    36    36    37    1
    37    36    38    1
    38    38    39    1
    39    38    40    1
    40    40    41    1
    41    40     2    1
    42    35     6    1
    43    33    10    1
    44    30    13    1
    45    28    17    1
    46    25    20    1
    47     1    42    1
    48     1    43    1
    49     1    44    1
    50     2    45    1
    51     4    46    1
    52     6    47    1
    53     7    48    1
    54     7    49    1
    55     8    50    1
    56     9    51    1
    57    11    52    1
    58    11    53    1
    59    12    54    1
    60    13    55    1
    61    14    56    1
    62    15    57    1
    63    16    58    1
    64    16    59    1
    65    18    60    1
    66    18    61    1
    67    18    62    1
    68    19    63    1
    69    21    64    1
    70    25    65    1
    71    25    66    1
    72    26    67    1
    73    26    68    1
    74    27    69    1
    75    27    70    1
    76    29    71    1
    77    30    72    1
    78    31    73    1
    79    31    74    1
    80    32    75    1
    81    32    76    1
    82    34    77    1
    83    35    78    1
    84    35    79    1
    85    36    80    1
    86    37    81    1
    87    38    82    1
    88    39    83    1
    89    40    84    1
    90    41    85    1
