
     RDKit          3D

 85 90  0  0  0  0  0  0  0  0999 V2000
   -7.0885   -0.3333   -1.6288 C   0  0  0  0  0  0  0  0  0  0  0  0
   -5.9974    0.1026   -0.6472 C   0  0  2  0  0  0  0  0  0  0  0  0
   -6.0972   -0.7253    0.4495 O   0  0  0  0  0  0  0  0  0  0  0  0
   -5.1483   -0.3592    1.3992 C   0  0  1  0  0  0  0  0  0  0  0  0
   -3.9204   -0.2164    0.8130 O   0  0  0  0  0  0  0  0  0  0  0  0
   -2.9141   -0.9764    1.3805 C   0  0  1  0  0  0  0  0  0  0  0  0
   -2.4207   -2.0200    0.4302 C   0  0  0  0  0  0  0  0  0  0  0  0
   -0.9156   -2.1433    0.5482 C   0  0  1  0  0  0  0  0  0  0  0  0
   -0.5442   -3.3356    0.0285 O   0  0  0  0  0  0  0  0  0  0  0  0
   -0.2565   -0.9054    0.0233 C   0  0  2  0  0  0  0  0  0  0  0  0
   -0.9017   -0.3803   -1.2414 C   0  0  0  0  0  0  0  0  0  0  0  0
   -0.9087   -1.2416   -2.2987 O   0  0  0  0  0  0  0  0  0  0  0  0
    1.2095   -0.9714   -0.1578 C   0  0  1  0  0  0  0  0  0  0  0  0
    1.6826   -1.4629   -1.4990 C   0  0  2  0  0  0  0  0  0  0  0  0
    1.1909   -2.7276   -1.8218 O   0  0  0  0  0  0  0  0  0  0  0  0
    3.1639   -1.6058   -1.5984 C   0  0  0  0  0  0  0  0  0  0  0  0
    3.9673   -0.4074   -1.1734 C   0  0  2  0  0  0  0  0  0  0  0  0
    3.8857    0.6113   -2.2606 C   0  0  0  0  0  0  0  0  0  0  0  0
    5.3376   -0.8258   -0.7583 C   0  0  1  0  0  0  0  0  0  0  0  0
    6.3336    0.2520   -0.6098 C   0  0  0  0  0  0  0  0  0  0  0  0
    6.8661    0.6211    0.5483 C   0  0  0  0  0  0  0  0  0  0  0  0
    7.8037    1.7007    0.3295 C   0  0  0  0  0  0  0  0  0  0  0  0
    8.4882    2.2875    1.2380 O   0  0  0  0  0  0  0  0  0  0  0  0
    7.8080    1.9591   -1.0164 O   0  0  0  0  0  0  0  0  0  0  0  0
    6.9313    1.0818   -1.6643 C   0  0  0  0  0  0  0  0  0  0  0  0
    5.0326   -1.4743    0.6017 C   0  0  0  0  0  0  0  0  0  0  0  0
    3.9333   -0.6175    1.1892 C   0  0  0  0  0  0  0  0  0  0  0  0
    3.4070    0.2126    0.0758 C   0  0  1  0  0  0  0  0  0  0  0  0
    3.9393    1.5226    0.1334 O   0  0  0  0  0  0  0  0  0  0  0  0
    1.9267    0.3639    0.0300 C   0  0  2  0  0  0  0  0  0  0  0  0
    1.5374    1.0998    1.2769 C   0  0  0  0  0  0  0  0  0  0  0  0
    0.5608    0.2589    2.0154 C   0  0  0  0  0  0  0  0  0  0  0  0
   -0.6527    0.1499    1.0759 C   0  0  1  0  0  0  0  0  0  0  0  0
   -0.8299    1.3959    0.4919 O   0  0  0  0  0  0  0  0  0  0  0  0
   -1.7815   -0.2281    1.9464 C   0  0  0  0  0  0  0  0  0  0  0  0
   -5.5504    0.9939    1.9529 C   0  0  2  0  0  0  0  0  0  0  0  0
   -6.8965    1.0233    2.3080 O   0  0  0  0  0  0  0  0  0  0  0  0
   -5.3601    1.9991    0.8360 C   0  0  2  0  0  0  0  0  0  0  0  0
   -5.7588    3.2735    1.2313 O   0  0  0  0  0  0  0  0  0  0  0  0
   -6.2758    1.5528   -0.3049 C   0  0  1  0  0  0  0  0  0  0  0  0
   -6.1217    2.3193   -1.4342 O   0  0  0  0  0  0  0  0  0  0  0  0
   -6.9705   -1.4311   -1.7674 H   0  0  0  0  0  0  0  0  0  0  0  0
   -6.9868    0.2084   -2.5703 H   0  0  0  0  0  0  0  0  0  0  0  0
   -8.0717   -0.1521   -1.1456 H   0  0  0  0  0  0  0  0  0  0  0  0
   -5.0043    0.0614   -1.1090 H   0  0  0  0  0  0  0  0  0  0  0  0
   -5.1676   -1.0663    2.2509 H   0  0  0  0  0  0  0  0  0  0  0  0
   -3.4245   -1.5367    2.2223 H   0  0  0  0  0  0  0  0  0  0  0  0
   -2.8126   -3.0522    0.6780 H   0  0  0  0  0  0  0  0  0  0  0  0
   -2.7702   -1.8323   -0.5928 H   0  0  0  0  0  0  0  0  0  0  0  0
   -0.7030   -2.1880    1.6571 H   0  0  0  0  0  0  0  0  0  0  0  0
   -1.1881   -3.7206   -0.6044 H   0  0  0  0  0  0  0  0  0  0  0  0
   -1.9556   -0.0374   -1.0817 H   0  0  0  0  0  0  0  0  0  0  0  0
   -0.3719    0.5938   -1.4798 H   0  0  0  0  0  0  0  0  0  0  0  0
   -0.8794   -0.8012   -3.1834 H   0  0  0  0  0  0  0  0  0  0  0  0
    1.5953   -1.7237    0.5844 H   0  0  0  0  0  0  0  0  0  0  0  0
    1.3602   -0.8047   -2.3339 H   0  0  0  0  0  0  0  0  0  0  0  0
    1.2225   -2.9112   -2.7731 H   0  0  0  0  0  0  0  0  0  0  0  0
    3.4567   -2.5554   -1.1569 H   0  0  0  0  0  0  0  0  0  0  0  0
    3.3852   -1.7244   -2.7040 H   0  0  0  0  0  0  0  0  0  0  0  0
    3.9093    1.6590   -1.8692 H   0  0  0  0  0  0  0  0  0  0  0  0
    4.5072    0.4265   -3.1381 H   0  0  0  0  0  0  0  0  0  0  0  0
    2.8211    0.5319   -2.6601 H   0  0  0  0  0  0  0  0  0  0  0  0
    5.6878   -1.5994   -1.4771 H   0  0  0  0  0  0  0  0  0  0  0  0
    6.6852    0.2293    1.5478 H   0  0  0  0  0  0  0  0  0  0  0  0
    7.5437    0.4721   -2.3777 H   0  0  0  0  0  0  0  0  0  0  0  0
    6.2139    1.7287   -2.2161 H   0  0  0  0  0  0  0  0  0  0  0  0
    4.6681   -2.5356    0.4482 H   0  0  0  0  0  0  0  0  0  0  0  0
    5.9156   -1.5855    1.2318 H   0  0  0  0  0  0  0  0  0  0  0  0
    4.3557    0.0765    1.9552 H   0  0  0  0  0  0  0  0  0  0  0  0
    3.1796   -1.2248    1.7314 H   0  0  0  0  0  0  0  0  0  0  0  0
    4.2374    1.7424    1.0474 H   0  0  0  0  0  0  0  0  0  0  0  0
    1.6742    0.9645   -0.8698 H   0  0  0  0  0  0  0  0  0  0  0  0
    2.3729    1.3742    1.9286 H   0  0  0  0  0  0  0  0  0  0  0  0
    1.0255    2.0503    0.9965 H   0  0  0  0  0  0  0  0  0  0  0  0
    0.1800    0.8679    2.8863 H   0  0  0  0  0  0  0  0  0  0  0  0
    0.9053   -0.7300    2.3118 H   0  0  0  0  0  0  0  0  0  0  0  0
   -1.0027    2.0297    1.2118 H   0  0  0  0  0  0  0  0  0  0  0  0
   -2.2013    0.7452    2.3490 H   0  0  0  0  0  0  0  0  0  0  0  0
   -1.4401   -0.7462    2.8937 H   0  0  0  0  0  0  0  0  0  0  0  0
   -4.9179    1.2910    2.8127 H   0  0  0  0  0  0  0  0  0  0  0  0
   -7.0758    1.7314    2.9655 H   0  0  0  0  0  0  0  0  0  0  0  0
   -4.3334    1.9853    0.4286 H   0  0  0  0  0  0  0  0  0  0  0  0
   -5.2113    3.9688    0.8101 H   0  0  0  0  0  0  0  0  0  0  0  0
   -7.3086    1.5762    0.1158 H   0  0  0  0  0  0  0  0  0  0  0  0
   -5.7701    1.8110   -2.1928 H   0  0  0  0  0  0  0  0  0  0  0  0
  1  2  1  0
  2  3  1  0
  3  4  1  0
  4  5  1  0
  5  6  1  0
  6  7  1  0
  7  8  1  0
  8  9  1  0
  8 10  1  0
 10 11  1  6
 11 12  1  0
 10 13  1  0
 13 14  1  0
 14 15  1  0
 14 16  1  0
 16 17  1  0
 17 18  1  6
 17 19  1  0
 19 20  1  0
 20 21  2  0
 21 22  1  0
 22 23  2  0
 22 24  1  0
 24 25  1  0
 19 26  1  0
 26 27  1  0
 27 28  1  0
 28 29  1  1
 28 30  1  0
 30 31  1  0
 31 32  1  0
 32 33  1  0
 33 34  1  6
 33 35  1  0
  4 36  1  0
 36 37  1  0
 36 38  1  0
 38 39  1  0
 38 40  1  0
 40 41  1  0
 40  2  1  0
 35  6  1  0
 33 10  1  0
 30 13  1  0
 28 17  1  0
 25 20  1  0
  1 42  1  0
  1 43  1  0
  1 44  1  0
  2 45  1  6
  4 46  1  1
  6 47  1  1
  7 48  1  0
  7 49  1  0
  8 50  1  1
  9 51  1  0
 11 52  1  0
 11 53  1  0
 12 54  1  0
 13 55  1  1
 14 56  1  6
 15 57  1  0
 16 58  1  0
 16 59  1  0
 18 60  1  0
 18 61  1  0
 18 62  1  0
 19 63  1  6
 21 64  1  0
 25 65  1  0
 25 66  1  0
 26 67  1  0
 26 68  1  0
 27 69  1  0
 27 70  1  0
 29 71  1  0
 30 72  1  6
 31 73  1  0
 31 74  1  0
 32 75  1  0
 32 76  1  0
 34 77  1  0
 35 78  1  0
 35 79  1  0
 36 80  1  1
 37 81  1  0
 38 82  1  6
 39 83  1  0
 40 84  1  1
 41 85  1  0
M  END
$$$$
