@<TRIPOS>MOLECULE
*****
 58 62 0 0 0
SMALL
GASTEIGER

@<TRIPOS>ATOM
      1 C          -4.3877   -1.3959    2.1849 C.3     1  UNL1       -0.0275
      2 C          -3.9022   -0.3566    1.1842 C.3     1  UNL1        0.1021
      3 O          -3.5005   -0.9464    0.0006 O.3     1  UNL1       -0.4880
      4 C          -2.2441   -0.9158   -0.5383 C.ar    1  UNL1        0.1321
      5 C          -1.1509   -0.2821    0.0167 C.ar    1  UNL1       -0.0113
      6 C           0.0897   -0.3003   -0.5967 C.ar    1  UNL1       -0.0094
      7 C           1.2434    0.3827    0.0125 C.ar    1  UNL1        0.0198
      8 C           1.2456    1.5274    0.7845 C.ar    1  UNL1        0.0571
      9 N           2.5191    1.7984    1.1313 N.ar    1  UNL1       -0.1788
     10 N           3.3219    0.8888    0.6215 N.ar    1  UNL1       -0.2677
     11 C           4.7570    0.8243    0.7633 C.3     1  UNL1        0.0550
     12 C           5.2965   -0.5196    0.3412 C.3     1  UNL1       -0.0179
     13 C           6.7792   -0.5248    0.6683 C.3     1  UNL1       -0.0022
     14 N           7.2426    0.7143    1.2050 N.3     1  UNL1       -0.3158
     15 C           6.9273    1.8633    0.4170 C.3     1  UNL1       -0.0022
     16 C           5.4635    1.9071   -0.0080 C.3     1  UNL1       -0.0179
     17 C           2.5787    0.0124   -0.0651 C.ar    1  UNL1        0.0335
     18 C           0.2126   -0.9718   -1.7869 C.ar    1  UNL1       -0.0259
     19 C          -0.8681   -1.6118   -2.3582 C.ar    1  UNL1        0.0968
     20 N          -1.0111   -2.3319   -3.5050 N.ar    1  UNL1       -0.1713
     21 N          -2.2631   -2.7346   -3.5958 N.ar    1  UNL1       -0.2732
     22 C          -2.8078   -3.5279   -4.6771 C.3     1  UNL1        0.0302
     23 C          -2.9760   -2.3083   -2.5424 C.ar    1  UNL1        0.0364
     24 C          -2.0999   -1.5990   -1.7580 C.ar    1  UNL1        0.0614
     25 C          -4.9956    0.6720    0.9473 C.3     1  UNL1        0.0195
     26 C          -5.3451    1.3595    2.2482 C.3     1  UNL1        0.0182
     27 N          -4.1880    2.2102    2.4616 N.am    1  UNL1       -0.3149
     28 C          -3.8167    2.6742    1.1677 C.2     1  UNL1        0.2135
     29 O          -3.0965    3.6906    0.9857 O.2     1  UNL1       -0.2758
     30 C          -4.3982    1.7944    0.1313 C.3     1  UNL1        0.0315
     31 H          -4.2728   -0.9914    3.2038 H       1  UNL1        0.0265
     32 H          -5.4022   -1.7443    1.9562 H       1  UNL1        0.0265
     33 H          -3.6515   -2.2447    2.1008 H       1  UNL1        0.0265
     34 H          -3.0852    0.1830    1.6929 H       1  UNL1        0.0733
     35 H          -1.2501    0.2448    0.9520 H       1  UNL1        0.0660
     36 H           0.3648    2.0979    1.0559 H       1  UNL1        0.0854
     37 H           5.0688    0.9582    1.8397 H       1  UNL1        0.0545
     38 H           5.1398   -0.7541   -0.7141 H       1  UNL1        0.0298
     39 H           4.7882   -1.2910    0.9793 H       1  UNL1        0.0298
     40 H           7.0116   -1.3224    1.4109 H       1  UNL1        0.0425
     41 H           7.3855   -0.7868   -0.2400 H       1  UNL1        0.0425
     42 H           7.1381    0.8333    2.2176 H       1  UNL1        0.1219
     43 H           7.6036    1.9866   -0.4666 H       1  UNL1        0.0425
     44 H           7.1022    2.7652    1.0476 H       1  UNL1        0.0425
     45 H           4.9901    2.8782    0.2572 H       1  UNL1        0.0298
     46 H           5.4032    1.7732   -1.1067 H       1  UNL1        0.0298
     47 H           2.9361   -0.8563   -0.6045 H       1  UNL1        0.0832
     48 H           1.1746   -0.9939   -2.2756 H       1  UNL1        0.0646
     49 H          -3.2564   -2.8793   -5.4636 H       1  UNL1        0.0473
     50 H          -2.0048   -4.1441   -5.0959 H       1  UNL1        0.0473
     51 H          -3.6181   -4.1683   -4.2709 H       1  UNL1        0.0473
     52 H          -4.0222   -2.4690   -2.3225 H       1  UNL1        0.0833
     53 H          -5.8851    0.2256    0.4602 H       1  UNL1        0.0356
     54 H          -5.4916    0.6385    3.0780 H       1  UNL1        0.0466
     55 H          -6.2589    1.9775    2.0757 H       1  UNL1        0.0466
     56 H          -3.7565    2.4103    3.3762 H       1  UNL1        0.1487
     57 H          -5.1882    2.3053   -0.4649 H       1  UNL1        0.0363
     58 H          -3.5889    1.3753   -0.5202 H       1  UNL1        0.0363
@<TRIPOS>BOND
     1     1     2    1
     2     2     3    1
     3     3     4    1
     4     4     5   ar
     5     5     6   ar
     6     6     7    1
     7     7     8   ar
     8     8     9   ar
     9     9    10   ar
    10    10    11    1
    11    11    12    1
    12    12    13    1
    13    13    14    1
    14    14    15    1
    15    15    16    1
    16    10    17   ar
    17     6    18   ar
    18    18    19   ar
    19    19    20   ar
    20    20    21   ar
    21    21    22    1
    22    21    23   ar
    23    23    24   ar
    24     2    25    1
    25    25    26    1
    26    26    27    1
    27    27    28   am
    28    28    29    2
    29    28    30    1
    30    24     4   ar
    31    30    25    1
    32    17     7   ar
    33    24    19   ar
    34    16    11    1
    35     1    31    1
    36     1    32    1
    37     1    33    1
    38     2    34    1
    39     5    35    1
    40     8    36    1
    41    11    37    1
    42    12    38    1
    43    12    39    1
    44    13    40    1
    45    13    41    1
    46    14    42    1
    47    15    43    1
    48    15    44    1
    49    16    45    1
    50    16    46    1
    51    17    47    1
    52    18    48    1
    53    22    49    1
    54    22    50    1
    55    22    51    1
    56    23    52    1
    57    25    53    1
    58    26    54    1
    59    26    55    1
    60    27    56    1
    61    30    57    1
    62    30    58    1
