
     RDKit          3D

 58 62  0  0  0  0  0  0  0  0999 V2000
   -4.3877   -1.3959    2.1849 C   0  0  0  0  0  0  0  0  0  0  0  0
   -3.9022   -0.3566    1.1842 C   0  0  1  0  0  0  0  0  0  0  0  0
   -3.5005   -0.9464    0.0006 O   0  0  0  0  0  0  0  0  0  0  0  0
   -2.2441   -0.9158   -0.5383 C   0  0  0  0  0  0  0  0  0  0  0  0
   -1.1509   -0.2821    0.0167 C   0  0  0  0  0  0  0  0  0  0  0  0
    0.0897   -0.3003   -0.5967 C   0  0  0  0  0  0  0  0  0  0  0  0
    1.2434    0.3827    0.0125 C   0  0  0  0  0  0  0  0  0  0  0  0
    1.2456    1.5274    0.7845 C   0  0  0  0  0  0  0  0  0  0  0  0
    2.5191    1.7984    1.1313 N   0  0  0  0  0  0  0  0  0  0  0  0
    3.3219    0.8888    0.6215 N   0  0  0  0  0  0  0  0  0  0  0  0
    4.7570    0.8243    0.7633 C   0  0  0  0  0  0  0  0  0  0  0  0
    5.2965   -0.5196    0.3412 C   0  0  0  0  0  0  0  0  0  0  0  0
    6.7792   -0.5248    0.6683 C   0  0  0  0  0  0  0  0  0  0  0  0
    7.2426    0.7143    1.2050 N   0  0  0  0  0  0  0  0  0  0  0  0
    6.9273    1.8633    0.4170 C   0  0  0  0  0  0  0  0  0  0  0  0
    5.4635    1.9071   -0.0080 C   0  0  0  0  0  0  0  0  0  0  0  0
    2.5787    0.0124   -0.0651 C   0  0  0  0  0  0  0  0  0  0  0  0
    0.2126   -0.9718   -1.7869 C   0  0  0  0  0  0  0  0  0  0  0  0
   -0.8681   -1.6118   -2.3582 C   0  0  0  0  0  0  0  0  0  0  0  0
   -1.0111   -2.3319   -3.5050 N   0  0  0  0  0  0  0  0  0  0  0  0
   -2.2631   -2.7346   -3.5958 N   0  0  0  0  0  0  0  0  0  0  0  0
   -2.8078   -3.5279   -4.6771 C   0  0  0  0  0  0  0  0  0  0  0  0
   -2.9760   -2.3083   -2.5424 C   0  0  0  0  0  0  0  0  0  0  0  0
   -2.0999   -1.5990   -1.7580 C   0  0  0  0  0  0  0  0  0  0  0  0
   -4.9956    0.6720    0.9473 C   0  0  1  0  0  0  0  0  0  0  0  0
   -5.3451    1.3595    2.2482 C   0  0  0  0  0  0  0  0  0  0  0  0
   -4.1880    2.2102    2.4616 N   0  0  0  0  0  0  0  0  0  0  0  0
   -3.8167    2.6742    1.1677 C   0  0  0  0  0  0  0  0  0  0  0  0
   -3.0965    3.6906    0.9857 O   0  0  0  0  0  0  0  0  0  0  0  0
   -4.3982    1.7944    0.1313 C   0  0  0  0  0  0  0  0  0  0  0  0
   -4.2728   -0.9914    3.2038 H   0  0  0  0  0  0  0  0  0  0  0  0
   -5.4022   -1.7443    1.9562 H   0  0  0  0  0  0  0  0  0  0  0  0
   -3.6515   -2.2447    2.1008 H   0  0  0  0  0  0  0  0  0  0  0  0
   -3.0852    0.1830    1.6929 H   0  0  0  0  0  0  0  0  0  0  0  0
   -1.2501    0.2448    0.9520 H   0  0  0  0  0  0  0  0  0  0  0  0
    0.3648    2.0979    1.0559 H   0  0  0  0  0  0  0  0  0  0  0  0
    5.0688    0.9582    1.8397 H   0  0  0  0  0  0  0  0  0  0  0  0
    5.1398   -0.7541   -0.7141 H   0  0  0  0  0  0  0  0  0  0  0  0
    4.7882   -1.2910    0.9793 H   0  0  0  0  0  0  0  0  0  0  0  0
    7.0116   -1.3224    1.4109 H   0  0  0  0  0  0  0  0  0  0  0  0
    7.3855   -0.7868   -0.2400 H   0  0  0  0  0  0  0  0  0  0  0  0
    7.1381    0.8333    2.2176 H   0  0  0  0  0  0  0  0  0  0  0  0
    7.6036    1.9866   -0.4666 H   0  0  0  0  0  0  0  0  0  0  0  0
    7.1022    2.7652    1.0476 H   0  0  0  0  0  0  0  0  0  0  0  0
    4.9901    2.8782    0.2572 H   0  0  0  0  0  0  0  0  0  0  0  0
    5.4032    1.7732   -1.1067 H   0  0  0  0  0  0  0  0  0  0  0  0
    2.9361   -0.8563   -0.6045 H   0  0  0  0  0  0  0  0  0  0  0  0
    1.1746   -0.9939   -2.2756 H   0  0  0  0  0  0  0  0  0  0  0  0
   -3.2564   -2.8793   -5.4636 H   0  0  0  0  0  0  0  0  0  0  0  0
   -2.0048   -4.1441   -5.0959 H   0  0  0  0  0  0  0  0  0  0  0  0
   -3.6181   -4.1683   -4.2709 H   0  0  0  0  0  0  0  0  0  0  0  0
   -4.0222   -2.4690   -2.3225 H   0  0  0  0  0  0  0  0  0  0  0  0
   -5.8851    0.2256    0.4602 H   0  0  0  0  0  0  0  0  0  0  0  0
   -5.4916    0.6385    3.0780 H   0  0  0  0  0  0  0  0  0  0  0  0
   -6.2589    1.9775    2.0757 H   0  0  0  0  0  0  0  0  0  0  0  0
   -3.7565    2.4103    3.3762 H   0  0  0  0  0  0  0  0  0  0  0  0
   -5.1882    2.3053   -0.4649 H   0  0  0  0  0  0  0  0  0  0  0  0
   -3.5889    1.3753   -0.5202 H   0  0  0  0  0  0  0  0  0  0  0  0
  1  2  1  0
  2  3  1  0
  3  4  1  0
  4  5  2  0
  5  6  1  0
  6  7  1  0
  7  8  1  0
  8  9  2  0
  9 10  1  0
 10 11  1  0
 11 12  1  0
 12 13  1  0
 13 14  1  0
 14 15  1  0
 15 16  1  0
 10 17  1  0
  6 18  2  0
 18 19  1  0
 19 20  2  0
 20 21  1  0
 21 22  1  0
 21 23  1  0
 23 24  2  0
  2 25  1  0
 25 26  1  0
 26 27  1  0
 27 28  1  0
 28 29  2  0
 28 30  1  0
 24  4  1  0
 30 25  1  0
 17  7  2  0
 24 19  1  0
 16 11  1  0
  1 31  1  0
  1 32  1  0
  1 33  1  0
  2 34  1  1
  5 35  1  0
  8 36  1  0
 11 37  1  0
 12 38  1  0
 12 39  1  0
 13 40  1  0
 13 41  1  0
 14 42  1  0
 15 43  1  0
 15 44  1  0
 16 45  1  0
 16 46  1  0
 17 47  1  0
 18 48  1  0
 22 49  1  0
 22 50  1  0
 22 51  1  0
 23 52  1  0
 25 53  1  6
 26 54  1  0
 26 55  1  0
 27 56  1  0
 30 57  1  0
 30 58  1  0
M  END
$$$$
