@<TRIPOS>MOLECULE
*****
 76 80 0 0 0
SMALL
GASTEIGER

@<TRIPOS>ATOM
      1 C          -6.3170    5.9356    1.2816 C.3     1  UNL1       -0.0397
      2 C          -5.9891    4.5091    1.0300 C.ar    1  UNL1       -0.0503
      3 C          -5.2172    3.7864    1.9164 C.ar    1  UNL1       -0.0568
      4 C          -4.8977    2.4494    1.7009 C.ar    1  UNL1       -0.0359
      5 C          -5.3624    1.8154    0.5673 C.ar    1  UNL1        0.0674
      6 N          -5.0403    0.4359    0.3325 N.ar    1  UNL1       -0.2181
      7 N          -5.9815   -0.4873    0.2337 N.ar    1  UNL1       -0.1691
      8 C          -5.4317   -1.6927    0.0151 C.ar    1  UNL1        0.0706
      9 C          -6.1287   -3.0068   -0.1580 C.3     1  UNL1        0.0063
     10 C          -5.0692   -4.0619   -0.3784 C.3     1  UNL1       -0.0546
     11 C          -7.0195   -2.9418   -1.3849 C.3     1  UNL1       -0.0546
     12 C          -6.9040   -3.3469    1.0740 C.3     1  UNL1       -0.0546
     13 C          -4.0554   -1.4550   -0.0166 C.ar    1  UNL1        0.0021
     14 C          -3.8263   -0.1172    0.1837 C.ar    1  UNL1        0.1299
     15 N          -2.6055    0.5992    0.2358 N.am    1  UNL1       -0.2538
     16 C          -1.3270   -0.0012    0.0782 C.2     1  UNL1        0.3092
     17 O          -1.2305   -1.2204   -0.1175 O.2     1  UNL1       -0.2521
     18 N          -0.1214    0.7770    0.1403 N.am    1  UNL1       -0.2686
     19 C           1.1647    0.1895   -0.0151 C.ar    1  UNL1        0.0427
     20 C           1.8870   -0.2915    1.0473 C.ar    1  UNL1       -0.0364
     21 C           3.1484   -0.8627    0.8591 C.ar    1  UNL1       -0.0176
     22 C           3.7121   -0.9647   -0.3865 C.ar    1  UNL1        0.1283
     23 O           4.9188   -1.5085   -0.5949 O.3     1  UNL1       -0.4901
     24 C           5.8876   -2.0614    0.2016 C.3     1  UNL1        0.1023
     25 C           6.5189   -1.1939    1.2330 C.3     1  UNL1        0.0333
     26 N           7.1755   -0.0336    0.7128 N.3     1  UNL1       -0.2948
     27 C           7.7701    0.7962    1.7117 C.3     1  UNL1        0.0225
     28 C           8.8990    1.6582    1.1939 C.3     1  UNL1        0.0604
     29 O           9.9199    0.8953    0.6340 O.3     1  UNL1       -0.3772
     30 C           9.4899   -0.3862    0.3000 C.3     1  UNL1        0.0604
     31 C           8.1032   -0.2546   -0.3471 C.3     1  UNL1        0.0225
     32 C           2.9819   -0.4774   -1.4695 C.ar    1  UNL1        0.0256
     33 C           3.5567   -0.5834   -2.7278 C.ar    1  UNL1       -0.0505
     34 C           2.8319   -0.1006   -3.7959 C.ar    1  UNL1       -0.0611
     35 C           1.5817    0.4639   -3.5985 C.ar    1  UNL1       -0.0611
     36 C           1.0341    0.5570   -2.3407 C.ar    1  UNL1       -0.0521
     37 C           1.7445    0.0798   -1.2626 C.ar    1  UNL1        0.0069
     38 C          -6.1368    2.5299   -0.3278 C.ar    1  UNL1       -0.0359
     39 C          -6.4503    3.8591   -0.1066 C.ar    1  UNL1       -0.0568
     40 H          -7.0382    5.9442    2.1302 H       1  UNL1        0.0278
     41 H          -5.3926    6.4588    1.5979 H       1  UNL1        0.0278
     42 H          -6.7576    6.3705    0.3652 H       1  UNL1        0.0278
     43 H          -4.8498    4.2735    2.8048 H       1  UNL1        0.0621
     44 H          -4.2885    1.8948    2.4090 H       1  UNL1        0.0639
     45 H          -5.4832   -5.0469   -0.6039 H       1  UNL1        0.0239
     46 H          -4.3832   -3.7609   -1.2201 H       1  UNL1        0.0239
     47 H          -4.4168   -4.0719    0.5239 H       1  UNL1        0.0239
     48 H          -7.0801   -3.9405   -1.8360 H       1  UNL1        0.0239
     49 H          -8.0269   -2.6152   -1.0973 H       1  UNL1        0.0239
     50 H          -6.5600   -2.2412   -2.1001 H       1  UNL1        0.0239
     51 H          -7.3949   -4.3279    0.9074 H       1  UNL1        0.0239
     52 H          -7.6676   -2.5350    1.2195 H       1  UNL1        0.0239
     53 H          -6.2224   -3.4433    1.9176 H       1  UNL1        0.0239
     54 H          -3.3236   -2.2173   -0.1741 H       1  UNL1        0.0671
     55 H          -2.5819    1.6478    0.3990 H       1  UNL1        0.1578
     56 H          -0.2090    1.8035    0.3049 H       1  UNL1        0.1564
     57 H           1.4434   -0.2124    2.0395 H       1  UNL1        0.0637
     58 H           3.6144   -1.2117    1.7655 H       1  UNL1        0.0655
     59 H           6.6444   -2.6011   -0.4287 H       1  UNL1        0.0709
     60 H           5.3910   -2.9227    0.7589 H       1  UNL1        0.0709
     61 H           7.3493   -1.8108    1.7086 H       1  UNL1        0.0460
     62 H           5.8957   -0.8928    2.0770 H       1  UNL1        0.0460
     63 H           8.2003    0.1443    2.5089 H       1  UNL1        0.0449
     64 H           7.0278    1.5008    2.1645 H       1  UNL1        0.0449
     65 H           8.5447    2.4658    0.5215 H       1  UNL1        0.0572
     66 H           9.3395    2.1731    2.0861 H       1  UNL1        0.0572
     67 H          10.2190   -0.8391   -0.3889 H       1  UNL1        0.0572
     68 H           9.3741   -0.9474    1.2496 H       1  UNL1        0.0572
     69 H           8.2013    0.6556   -1.0108 H       1  UNL1        0.0449
     70 H           7.9688   -1.1606   -0.9378 H       1  UNL1        0.0449
     71 H           4.5290   -1.0195   -2.9042 H       1  UNL1        0.0625
     72 H           3.2310   -0.1595   -4.7812 H       1  UNL1        0.0618
     73 H           1.0061    0.8473   -4.4477 H       1  UNL1        0.0618
     74 H           0.0549    0.9976   -2.1741 H       1  UNL1        0.0624
     75 H          -6.5158    2.0658   -1.2227 H       1  UNL1        0.0639
     76 H          -7.0568    4.4471   -0.7917 H       1  UNL1        0.0621
@<TRIPOS>BOND
     1     1     2    1
     2     2     3   ar
     3     3     4   ar
     4     4     5   ar
     5     5     6    1
     6     6     7   ar
     7     7     8   ar
     8     8     9    1
     9     9    10    1
    10     9    11    1
    11     9    12    1
    12     8    13   ar
    13    13    14   ar
    14    14    15    1
    15    15    16   am
    16    16    17    2
    17    16    18   am
    18    18    19    1
    19    19    20   ar
    20    20    21   ar
    21    21    22   ar
    22    22    23    1
    23    23    24    1
    24    24    25    1
    25    25    26    1
    26    26    27    1
    27    27    28    1
    28    28    29    1
    29    29    30    1
    30    30    31    1
    31    22    32   ar
    32    32    33   ar
    33    33    34   ar
    34    34    35   ar
    35    35    36   ar
    36    36    37   ar
    37     5    38   ar
    38    38    39   ar
    39    39     2   ar
    40    14     6   ar
    41    37    19   ar
    42    31    26    1
    43    37    32   ar
    44     1    40    1
    45     1    41    1
    46     1    42    1
    47     3    43    1
    48     4    44    1
    49    10    45    1
    50    10    46    1
    51    10    47    1
    52    11    48    1
    53    11    49    1
    54    11    50    1
    55    12    51    1
    56    12    52    1
    57    12    53    1
    58    13    54    1
    59    15    55    1
    60    18    56    1
    61    20    57    1
    62    21    58    1
    63    24    59    1
    64    24    60    1
    65    25    61    1
    66    25    62    1
    67    27    63    1
    68    27    64    1
    69    28    65    1
    70    28    66    1
    71    30    67    1
    72    30    68    1
    73    31    69    1
    74    31    70    1
    75    33    71    1
    76    34    72    1
    77    35    73    1
    78    36    74    1
    79    38    75    1
    80    39    76    1
