
     RDKit          3D

 76 80  0  0  0  0  0  0  0  0999 V2000
   -6.3170    5.9356    1.2816 C   0  0  0  0  0  0  0  0  0  0  0  0
   -5.9891    4.5091    1.0300 C   0  0  0  0  0  0  0  0  0  0  0  0
   -5.2172    3.7864    1.9164 C   0  0  0  0  0  0  0  0  0  0  0  0
   -4.8977    2.4494    1.7009 C   0  0  0  0  0  0  0  0  0  0  0  0
   -5.3624    1.8154    0.5673 C   0  0  0  0  0  0  0  0  0  0  0  0
   -5.0403    0.4359    0.3325 N   0  0  0  0  0  0  0  0  0  0  0  0
   -5.9815   -0.4873    0.2337 N   0  0  0  0  0  0  0  0  0  0  0  0
   -5.4317   -1.6927    0.0151 C   0  0  0  0  0  0  0  0  0  0  0  0
   -6.1287   -3.0068   -0.1580 C   0  0  0  0  0  0  0  0  0  0  0  0
   -5.0692   -4.0619   -0.3784 C   0  0  0  0  0  0  0  0  0  0  0  0
   -7.0195   -2.9418   -1.3849 C   0  0  0  0  0  0  0  0  0  0  0  0
   -6.9040   -3.3469    1.0740 C   0  0  0  0  0  0  0  0  0  0  0  0
   -4.0554   -1.4550   -0.0166 C   0  0  0  0  0  0  0  0  0  0  0  0
   -3.8263   -0.1172    0.1837 C   0  0  0  0  0  0  0  0  0  0  0  0
   -2.6055    0.5992    0.2358 N   0  0  0  0  0  0  0  0  0  0  0  0
   -1.3270   -0.0012    0.0782 C   0  0  0  0  0  0  0  0  0  0  0  0
   -1.2305   -1.2204   -0.1175 O   0  0  0  0  0  0  0  0  0  0  0  0
   -0.1214    0.7770    0.1403 N   0  0  0  0  0  0  0  0  0  0  0  0
    1.1647    0.1895   -0.0151 C   0  0  0  0  0  0  0  0  0  0  0  0
    1.8870   -0.2915    1.0473 C   0  0  0  0  0  0  0  0  0  0  0  0
    3.1484   -0.8627    0.8591 C   0  0  0  0  0  0  0  0  0  0  0  0
    3.7121   -0.9647   -0.3865 C   0  0  0  0  0  0  0  0  0  0  0  0
    4.9188   -1.5085   -0.5949 O   0  0  0  0  0  0  0  0  0  0  0  0
    5.8876   -2.0614    0.2016 C   0  0  0  0  0  0  0  0  0  0  0  0
    6.5189   -1.1939    1.2330 C   0  0  0  0  0  0  0  0  0  0  0  0
    7.1755   -0.0336    0.7128 N   0  0  0  0  0  0  0  0  0  0  0  0
    7.7701    0.7962    1.7117 C   0  0  0  0  0  0  0  0  0  0  0  0
    8.8990    1.6582    1.1939 C   0  0  0  0  0  0  0  0  0  0  0  0
    9.9199    0.8953    0.6340 O   0  0  0  0  0  0  0  0  0  0  0  0
    9.4899   -0.3862    0.3000 C   0  0  0  0  0  0  0  0  0  0  0  0
    8.1032   -0.2546   -0.3471 C   0  0  0  0  0  0  0  0  0  0  0  0
    2.9819   -0.4774   -1.4695 C   0  0  0  0  0  0  0  0  0  0  0  0
    3.5567   -0.5834   -2.7278 C   0  0  0  0  0  0  0  0  0  0  0  0
    2.8319   -0.1006   -3.7959 C   0  0  0  0  0  0  0  0  0  0  0  0
    1.5817    0.4639   -3.5985 C   0  0  0  0  0  0  0  0  0  0  0  0
    1.0341    0.5570   -2.3407 C   0  0  0  0  0  0  0  0  0  0  0  0
    1.7445    0.0798   -1.2626 C   0  0  0  0  0  0  0  0  0  0  0  0
   -6.1368    2.5299   -0.3278 C   0  0  0  0  0  0  0  0  0  0  0  0
   -6.4503    3.8591   -0.1066 C   0  0  0  0  0  0  0  0  0  0  0  0
   -7.0382    5.9442    2.1302 H   0  0  0  0  0  0  0  0  0  0  0  0
   -5.3926    6.4588    1.5979 H   0  0  0  0  0  0  0  0  0  0  0  0
   -6.7576    6.3705    0.3652 H   0  0  0  0  0  0  0  0  0  0  0  0
   -4.8498    4.2735    2.8048 H   0  0  0  0  0  0  0  0  0  0  0  0
   -4.2885    1.8948    2.4090 H   0  0  0  0  0  0  0  0  0  0  0  0
   -5.4832   -5.0469   -0.6039 H   0  0  0  0  0  0  0  0  0  0  0  0
   -4.3832   -3.7609   -1.2201 H   0  0  0  0  0  0  0  0  0  0  0  0
   -4.4168   -4.0719    0.5239 H   0  0  0  0  0  0  0  0  0  0  0  0
   -7.0801   -3.9405   -1.8360 H   0  0  0  0  0  0  0  0  0  0  0  0
   -8.0269   -2.6152   -1.0973 H   0  0  0  0  0  0  0  0  0  0  0  0
   -6.5600   -2.2412   -2.1001 H   0  0  0  0  0  0  0  0  0  0  0  0
   -7.3949   -4.3279    0.9074 H   0  0  0  0  0  0  0  0  0  0  0  0
   -7.6676   -2.5350    1.2195 H   0  0  0  0  0  0  0  0  0  0  0  0
   -6.2224   -3.4433    1.9176 H   0  0  0  0  0  0  0  0  0  0  0  0
   -3.3236   -2.2173   -0.1741 H   0  0  0  0  0  0  0  0  0  0  0  0
   -2.5819    1.6478    0.3990 H   0  0  0  0  0  0  0  0  0  0  0  0
   -0.2090    1.8035    0.3049 H   0  0  0  0  0  0  0  0  0  0  0  0
    1.4434   -0.2124    2.0395 H   0  0  0  0  0  0  0  0  0  0  0  0
    3.6144   -1.2117    1.7655 H   0  0  0  0  0  0  0  0  0  0  0  0
    6.6444   -2.6011   -0.4287 H   0  0  0  0  0  0  0  0  0  0  0  0
    5.3910   -2.9227    0.7589 H   0  0  0  0  0  0  0  0  0  0  0  0
    7.3493   -1.8108    1.7086 H   0  0  0  0  0  0  0  0  0  0  0  0
    5.8957   -0.8928    2.0770 H   0  0  0  0  0  0  0  0  0  0  0  0
    8.2003    0.1443    2.5089 H   0  0  0  0  0  0  0  0  0  0  0  0
    7.0278    1.5008    2.1645 H   0  0  0  0  0  0  0  0  0  0  0  0
    8.5447    2.4658    0.5215 H   0  0  0  0  0  0  0  0  0  0  0  0
    9.3395    2.1731    2.0861 H   0  0  0  0  0  0  0  0  0  0  0  0
   10.2190   -0.8391   -0.3889 H   0  0  0  0  0  0  0  0  0  0  0  0
    9.3741   -0.9474    1.2496 H   0  0  0  0  0  0  0  0  0  0  0  0
    8.2013    0.6556   -1.0108 H   0  0  0  0  0  0  0  0  0  0  0  0
    7.9688   -1.1606   -0.9378 H   0  0  0  0  0  0  0  0  0  0  0  0
    4.5290   -1.0195   -2.9042 H   0  0  0  0  0  0  0  0  0  0  0  0
    3.2310   -0.1595   -4.7812 H   0  0  0  0  0  0  0  0  0  0  0  0
    1.0061    0.8473   -4.4477 H   0  0  0  0  0  0  0  0  0  0  0  0
    0.0549    0.9976   -2.1741 H   0  0  0  0  0  0  0  0  0  0  0  0
   -6.5158    2.0658   -1.2227 H   0  0  0  0  0  0  0  0  0  0  0  0
   -7.0568    4.4471   -0.7917 H   0  0  0  0  0  0  0  0  0  0  0  0
  1  2  1  0
  2  3  2  0
  3  4  1  0
  4  5  2  0
  5  6  1  0
  6  7  1  0
  7  8  2  0
  8  9  1  0
  9 10  1  0
  9 11  1  0
  9 12  1  0
  8 13  1  0
 13 14  2  0
 14 15  1  0
 15 16  1  0
 16 17  2  0
 16 18  1  0
 18 19  1  0
 19 20  2  0
 20 21  1  0
 21 22  2  0
 22 23  1  0
 23 24  1  0
 24 25  1  0
 25 26  1  0
 26 27  1  0
 27 28  1  0
 28 29  1  0
 29 30  1  0
 30 31  1  0
 22 32  1  0
 32 33  2  0
 33 34  1  0
 34 35  2  0
 35 36  1  0
 36 37  2  0
  5 38  1  0
 38 39  2  0
 39  2  1  0
 14  6  1  0
 37 19  1  0
 31 26  1  0
 37 32  1  0
  1 40  1  0
  1 41  1  0
  1 42  1  0
  3 43  1  0
  4 44  1  0
 10 45  1  0
 10 46  1  0
 10 47  1  0
 11 48  1  0
 11 49  1  0
 11 50  1  0
 12 51  1  0
 12 52  1  0
 12 53  1  0
 13 54  1  0
 15 55  1  0
 18 56  1  0
 20 57  1  0
 21 58  1  0
 24 59  1  0
 24 60  1  0
 25 61  1  0
 25 62  1  0
 27 63  1  0
 27 64  1  0
 28 65  1  0
 28 66  1  0
 30 67  1  0
 30 68  1  0
 31 69  1  0
 31 70  1  0
 33 71  1  0
 34 72  1  0
 35 73  1  0
 36 74  1  0
 38 75  1  0
 39 76  1  0
M  END
$$$$
