@<TRIPOS>MOLECULE
*****
 46 49 0 0 0
SMALL
GASTEIGER

@<TRIPOS>ATOM
      1 C          -2.5367   -2.3574   -1.1808 C.3     1  UNL1       -0.0275
      2 C          -2.2700   -1.0315   -0.4801 C.3     1  UNL1        0.1021
      3 O          -0.9599   -0.7659   -0.3993 O.3     1  UNL1       -0.4880
      4 C           0.1126   -0.5322    0.2990 C.ar    1  UNL1        0.1321
      5 C           1.3140   -0.3080   -0.3983 C.ar    1  UNL1       -0.0113
      6 C           2.4820   -0.0566    0.2443 C.ar    1  UNL1       -0.0094
      7 C           3.7182    0.1728   -0.5203 C.ar    1  UNL1        0.0199
      8 C           4.9802   -0.1515   -0.1023 C.ar    1  UNL1        0.0573
      9 N           5.8083    0.2157   -1.0728 N.ar    1  UNL1       -0.1744
     10 N           5.1606    0.7544   -2.0861 N.ar    1  UNL1       -0.2107
     11 C           5.7256    1.2689   -3.3146 C.3     1  UNL1        0.3342
     12 F           5.5324    0.2888   -4.2948 F       1  UNL1       -0.1832
     13 F           5.0275    2.3867   -3.7055 F       1  UNL1       -0.1832
     14 C           3.8633    0.7397   -1.7689 C.ar    1  UNL1        0.0389
     15 C           2.5299   -0.0121    1.6146 C.ar    1  UNL1       -0.0259
     16 C           1.3633   -0.2293    2.3052 C.ar    1  UNL1        0.0968
     17 N           1.1071   -0.2471    3.6431 N.ar    1  UNL1       -0.1713
     18 N          -0.1556   -0.4957    3.8645 N.ar    1  UNL1       -0.2732
     19 C          -0.8606   -0.6062    5.1307 C.3     1  UNL1        0.0302
     20 C          -0.7745   -0.6503    2.6787 C.ar    1  UNL1        0.0364
     21 C           0.1711   -0.4855    1.6717 C.ar    1  UNL1        0.0614
     22 C          -2.9570    0.1065   -1.2220 C.3     1  UNL1        0.0195
     23 C          -4.4356   -0.0605   -1.3022 C.3     1  UNL1        0.0182
     24 N          -4.8815    1.3010   -1.5644 N.am    1  UNL1       -0.3149
     25 C          -3.9144    2.2140   -1.0677 C.2     1  UNL1        0.2135
     26 O          -3.9583    3.4646   -1.1125 O.2     1  UNL1       -0.2758
     27 C          -2.8180    1.4110   -0.4728 C.3     1  UNL1        0.0315
     28 H          -2.8118   -2.2342   -2.2343 H       1  UNL1        0.0265
     29 H          -1.5996   -2.9569   -1.1565 H       1  UNL1        0.0265
     30 H          -3.3362   -2.9270   -0.6763 H       1  UNL1        0.0265
     31 H          -2.7669   -1.1043    0.5047 H       1  UNL1        0.0733
     32 H           1.2976   -0.3392   -1.5019 H       1  UNL1        0.0660
     33 H           5.2294   -0.6155    0.8383 H       1  UNL1        0.0854
     34 H           6.8028    1.4635   -3.1776 H       1  UNL1        0.1295
     35 H           3.0382    1.0952   -2.3501 H       1  UNL1        0.0834
     36 H           3.4309    0.1831    2.1642 H       1  UNL1        0.0646
     37 H          -1.1807   -1.6635    5.2264 H       1  UNL1        0.0473
     38 H          -1.7181    0.1070    5.1737 H       1  UNL1        0.0473
     39 H          -0.1797   -0.3049    5.9477 H       1  UNL1        0.0473
     40 H          -1.8188   -0.8642    2.5265 H       1  UNL1        0.0833
     41 H          -2.5500    0.2343   -2.2398 H       1  UNL1        0.0356
     42 H          -4.8352   -0.3475   -0.2919 H       1  UNL1        0.0466
     43 H          -4.7665   -0.7652   -2.0905 H       1  UNL1        0.0466
     44 H          -5.7755    1.5446   -2.0437 H       1  UNL1        0.1487
     45 H          -1.8256    1.8787   -0.6186 H       1  UNL1        0.0363
     46 H          -3.0084    1.2816    0.6137 H       1  UNL1        0.0363
@<TRIPOS>BOND
     1     1     2    1
     2     2     3    1
     3     3     4    1
     4     4     5   ar
     5     5     6   ar
     6     6     7    1
     7     7     8   ar
     8     8     9   ar
     9     9    10   ar
    10    10    11    1
    11    11    12    1
    12    11    13    1
    13    10    14   ar
    14     6    15   ar
    15    15    16   ar
    16    16    17   ar
    17    17    18   ar
    18    18    19    1
    19    18    20   ar
    20    20    21   ar
    21     2    22    1
    22    22    23    1
    23    23    24    1
    24    24    25   am
    25    25    26    2
    26    25    27    1
    27    21     4   ar
    28    27    22    1
    29    14     7   ar
    30    21    16   ar
    31     1    28    1
    32     1    29    1
    33     1    30    1
    34     2    31    1
    35     5    32    1
    36     8    33    1
    37    11    34    1
    38    14    35    1
    39    15    36    1
    40    19    37    1
    41    19    38    1
    42    19    39    1
    43    20    40    1
    44    22    41    1
    45    23    42    1
    46    23    43    1
    47    24    44    1
    48    27    45    1
    49    27    46    1
