@<TRIPOS>MOLECULE
*****
 48 49 0 0 0
SMALL
GASTEIGER

@<TRIPOS>ATOM
      1 C          -7.6380    0.8636    0.0652 C.3     1  UNL1       -0.0046
      2 C          -6.2988    0.2412   -0.0392 C.ar    1  UNL1        0.1280
      3 N          -5.8637   -0.6386    0.8849 N.ar    1  UNL1       -0.2400
      4 C          -4.6204   -1.1443    0.6905 C.ar    1  UNL1        0.0421
      5 C          -3.7247   -0.8613   -0.3634 C.ar    1  UNL1        0.0747
      6 C          -2.4357   -1.5538   -0.2737 C.3     1  UNL1        0.1806
      7 N          -1.3575   -0.7817    0.2829 N.ar    1  UNL1       -0.1968
      8 C          -1.3828   -0.8278    1.6484 C.ar    1  UNL1        0.1718
      9 C          -0.5052   -0.1742    2.5034 C.ar    1  UNL1        0.0024
     10 C           0.4809    0.5893    1.9115 C.ar    1  UNL1       -0.0470
     11 C           0.5137    0.6398    0.5104 C.ar    1  UNL1        0.0214
     12 C           1.6545    1.4392    0.0163 C.3     1  UNL1        0.0023
     13 C           2.8188    0.5663   -0.2474 C.3     1  UNL1        0.0633
     14 O           3.9451    1.2243   -0.7318 O.3     1  UNL1       -0.2861
     15 P           5.1628    0.0202   -0.8101 P.3     1  UNL1        0.4834
     16 O           5.1187   -0.7166   -2.3360 O.3     1  UNL1       -0.3022
     17 O           4.8895   -1.0144    0.2560 O.2     1  UNL1       -0.2269
     18 O           6.6775    0.6643   -0.5662 O.3     1  UNL1       -0.1862
     19 P           7.4551   -0.1989    0.6589 P.3     1  UNL1        0.4808
     20 O           6.8969   -1.7959    0.7475 O.3     1  UNL1       -0.3023
     21 O           7.1318    0.5111    2.1828 O.3     1  UNL1       -0.3023
     22 O           8.9579   -0.2777    0.4375 O.2     1  UNL1       -0.2271
     23 C          -0.3948   -0.0369   -0.2634 C.ar    1  UNL1        0.1843
     24 C          -0.3479    0.0606   -1.7159 C.3     1  UNL1        0.0210
     25 C          -4.2979    0.0423   -1.2216 C.ar    1  UNL1        0.1289
     26 N          -3.4825    0.3764   -2.3311 N.pl3   1  UNL1       -0.3427
     27 N          -5.5115    0.5676   -1.0761 N.ar    1  UNL1       -0.2176
     28 H          -7.8255    1.0881    1.1456 H       1  UNL1        0.0308
     29 H          -7.7095    1.7736   -0.5468 H       1  UNL1        0.0308
     30 H          -8.3819    0.0858   -0.2280 H       1  UNL1        0.0308
     31 H          -4.3553   -1.8436    1.4852 H       1  UNL1        0.0836
     32 H          -2.5748   -2.4904    0.3413 H       1  UNL1        0.1087
     33 H          -2.0941   -1.9316   -1.2779 H       1  UNL1        0.1087
     34 H          -2.1135   -1.3980    2.2179 H       1  UNL1        0.1376
     35 H          -0.5611   -0.2369    3.5813 H       1  UNL1        0.0677
     36 H           1.1847    1.1149    2.5624 H       1  UNL1        0.0624
     37 H           1.8771    2.3055    0.6757 H       1  UNL1        0.0338
     38 H           1.3605    1.9058   -0.9613 H       1  UNL1        0.0338
     39 H           2.5741   -0.2383   -0.9476 H       1  UNL1        0.0569
     40 H           3.1480    0.1575    0.7511 H       1  UNL1        0.0569
     41 H           4.4669   -1.4523   -2.2628 H       1  UNL1        0.2220
     42 H           6.6799   -2.0692    1.6781 H       1  UNL1        0.2220
     43 H           7.8152    0.1399    2.8066 H       1  UNL1        0.2220
     44 H           0.6669    0.1545   -2.1060 H       1  UNL1        0.0336
     45 H          -0.9064   -0.7032   -2.2774 H       1  UNL1        0.0336
     46 H          -0.8229    1.0679   -1.9675 H       1  UNL1        0.0336
     47 H          -3.2058    1.3865   -2.3027 H       1  UNL1        0.1437
     48 H          -3.0642   -0.0961   -3.1877 H       1  UNL1        0.1437
@<TRIPOS>UNITY_ATOM_ATTR
7 1
charge 1
@<TRIPOS>BOND
     1     1     2    1
     2     2     3   ar
     3     3     4   ar
     4     4     5   ar
     5     5     6    1
     6     6     7    1
     7     7     8   ar
     8     8     9   ar
     9     9    10   ar
    10    10    11   ar
    11    11    12    1
    12    12    13    1
    13    13    14    1
    14    15    14    1
    15    15    16    1
    16    15    17    2
    17    15    18    1
    18    18    19    1
    19    19    20    1
    20    19    21    1
    21    19    22    2
    22    11    23   ar
    23    23    24    1
    24     5    25   ar
    25    25    26    1
    26    25    27   ar
    27    27     2   ar
    28    23     7   ar
    29     1    28    1
    30     1    29    1
    31     1    30    1
    32     4    31    1
    33     6    32    1
    34     6    33    1
    35     8    34    1
    36     9    35    1
    37    10    36    1
    38    12    37    1
    39    12    38    1
    40    13    39    1
    41    13    40    1
    42    16    41    1
    43    20    42    1
    44    21    43    1
    45    24    44    1
    46    24    45    1
    47    24    46    1
    48    26    47    1
    49    26    48    1
