
     RDKit          3D

 48 50  0  0  0  0  0  0  0  0999 V2000
    7.7016    2.7729    0.9989 C   0  0  0  0  0  0  0  0  0  0  0  0
    8.0333    1.6381    1.0639 C   0  0  0  0  0  0  0  0  0  0  0  0
    8.4683    0.2295    1.1426 C   0  0  0  0  0  0  0  0  0  0  0  0
    7.6116   -0.5336    0.2971 O   0  0  0  0  0  0  0  0  0  0  0  0
    6.2371   -0.5749    0.5333 C   0  0  0  0  0  0  0  0  0  0  0  0
    5.4510   -1.3247   -0.3162 C   0  0  0  0  0  0  0  0  0  0  0  0
    4.1323   -1.4093   -0.1504 N   0  0  0  0  0  0  0  0  0  0  0  0
    3.5701   -0.7417    0.8749 C   0  0  0  0  0  0  0  0  0  0  0  0
    2.1068   -0.8752    0.9933 C   0  0  0  0  0  0  0  0  0  0  0  0
    1.5138   -0.2831    1.9602 O   0  0  0  0  0  0  0  0  0  0  0  0
    1.3065   -1.6150    0.1089 N   0  0  0  0  0  0  0  0  0  0  0  0
   -0.1015   -1.7333    0.2383 C   0  0  0  0  0  0  0  0  0  0  0  0
   -0.7622   -2.7162    0.9199 C   0  0  0  0  0  0  0  0  0  0  0  0
   -2.1369   -2.7948    1.0295 C   0  0  0  0  0  0  0  0  0  0  0  0
   -2.8815   -1.7962    0.3961 C   0  0  0  0  0  0  0  0  0  0  0  0
   -4.2242   -1.8787    0.5064 F   0  0  0  0  0  0  0  0  0  0  0  0
   -2.2075   -0.8126   -0.2862 C   0  0  0  0  0  0  0  0  0  0  0  0
   -3.0503    0.2484   -0.9514 C   0  0  2  0  0  0  0  0  0  0  0  0
   -2.0425    1.1174   -1.7317 C   0  0  0  0  0  0  0  0  0  0  0  0
   -3.6712    1.0951    0.1048 C   0  0  0  0  0  0  0  0  0  0  0  0
   -5.1486    1.2586    0.0348 C   0  0  1  0  0  0  0  0  0  0  0  0
   -5.5442    2.6188    0.5768 C   0  0  0  0  0  0  0  0  0  0  0  0
   -4.9148    3.5830   -0.2102 F   0  0  0  0  0  0  0  0  0  0  0  0
   -6.8897    2.8261    0.6007 F   0  0  0  0  0  0  0  0  0  0  0  0
   -5.0527    2.7846    1.8653 F   0  0  0  0  0  0  0  0  0  0  0  0
   -5.5293    1.2002   -1.3465 O   0  0  0  0  0  0  0  0  0  0  0  0
   -5.1041    0.1164   -2.1077 C   0  0  0  0  0  0  0  0  0  0  0  0
   -5.9729   -0.4762   -3.0831 N   0  0  0  0  0  0  0  0  0  0  0  0
   -3.9220   -0.3285   -1.9104 N   0  0  0  0  0  0  0  0  0  0  0  0
   -0.8896   -0.7862   -0.3591 N   0  0  0  0  0  0  0  0  0  0  0  0
    4.3089    0.0065    1.7330 C   0  0  0  0  0  0  0  0  0  0  0  0
    5.6418    0.0776    1.5455 N   0  0  0  0  0  0  0  0  0  0  0  0
    7.4137    3.8094    0.9286 H   0  0  0  0  0  0  0  0  0  0  0  0
    8.4820   -0.1262    2.1733 H   0  0  0  0  0  0  0  0  0  0  0  0
    9.4991    0.1509    0.7255 H   0  0  0  0  0  0  0  0  0  0  0  0
    5.8768   -1.8754   -1.1533 H   0  0  0  0  0  0  0  0  0  0  0  0
    1.8240   -2.0972   -0.6874 H   0  0  0  0  0  0  0  0  0  0  0  0
   -0.1905   -3.4908    1.4105 H   0  0  0  0  0  0  0  0  0  0  0  0
   -2.6187   -3.5932    1.5811 H   0  0  0  0  0  0  0  0  0  0  0  0
   -1.3303    0.4679   -2.2838 H   0  0  0  0  0  0  0  0  0  0  0  0
   -2.5879    1.7933   -2.3918 H   0  0  0  0  0  0  0  0  0  0  0  0
   -1.4534    1.6517   -0.9443 H   0  0  0  0  0  0  0  0  0  0  0  0
   -3.1895    2.1136    0.0648 H   0  0  0  0  0  0  0  0  0  0  0  0
   -3.3756    0.6979    1.1250 H   0  0  0  0  0  0  0  0  0  0  0  0
   -5.6478    0.4508    0.6143 H   0  0  0  0  0  0  0  0  0  0  0  0
   -6.9798   -0.5464   -2.8986 H   0  0  0  0  0  0  0  0  0  0  0  0
   -5.5531   -0.8178   -3.9526 H   0  0  0  0  0  0  0  0  0  0  0  0
    3.7936    0.5186    2.5389 H   0  0  0  0  0  0  0  0  0  0  0  0
  1  2  3  0
  2  3  1  0
  3  4  1  0
  4  5  1  0
  5  6  2  0
  6  7  1  0
  7  8  2  0
  8  9  1  0
  9 10  2  0
  9 11  1  0
 11 12  1  0
 12 13  2  0
 13 14  1  0
 14 15  2  0
 15 16  1  0
 15 17  1  0
 17 18  1  0
 18 19  1  6
 18 20  1  0
 20 21  1  0
 21 22  1  0
 22 23  1  0
 22 24  1  0
 22 25  1  0
 21 26  1  0
 26 27  1  0
 27 28  1  0
 27 29  2  0
 17 30  2  0
  8 31  1  0
 31 32  2  0
 32  5  1  0
 30 12  1  0
 29 18  1  0
  1 33  1  0
  3 34  1  0
  3 35  1  0
  6 36  1  0
 11 37  1  0
 13 38  1  0
 14 39  1  0
 19 40  1  0
 19 41  1  0
 19 42  1  0
 20 43  1  0
 20 44  1  0
 21 45  1  1
 28 46  1  0
 28 47  1  0
 31 48  1  0
M  END
$$$$
