@<TRIPOS>MOLECULE
*****
 48 50 0 0 0
SMALL
GASTEIGER

@<TRIPOS>ATOM
      1 C           7.7016    2.7729    0.9989 C.1     1  UNL1       -0.1158
      2 C           8.0333    1.6381    1.0639 C.1     1  UNL1       -0.0647
      3 C           8.4683    0.2295    1.1426 C.3     1  UNL1        0.1513
      4 O           7.6116   -0.5336    0.2971 O.3     1  UNL1       -0.4624
      5 C           6.2371   -0.5749    0.5333 C.ar    1  UNL1        0.2344
      6 C           5.4510   -1.3247   -0.3162 C.ar    1  UNL1        0.0899
      7 N           4.1323   -1.4093   -0.1504 N.ar    1  UNL1       -0.2435
      8 C           3.5701   -0.7417    0.8749 C.ar    1  UNL1        0.1439
      9 C           2.1068   -0.8752    0.9933 C.2     1  UNL1        0.2691
     10 O           1.5138   -0.2831    1.9602 O.2     1  UNL1       -0.2681
     11 N           1.3065   -1.6150    0.1089 N.am    1  UNL1       -0.2650
     12 C          -0.1015   -1.7333    0.2383 C.ar    1  UNL1        0.1257
     13 C          -0.7622   -2.7162    0.9199 C.ar    1  UNL1       -0.0188
     14 C          -2.1369   -2.7948    1.0295 C.ar    1  UNL1       -0.0213
     15 C          -2.8815   -1.7962    0.3961 C.ar    1  UNL1        0.1471
     16 F          -4.2242   -1.8787    0.5064 F       1  UNL1       -0.2035
     17 C          -2.2075   -0.8126   -0.2862 C.ar    1  UNL1        0.1058
     18 C          -3.0503    0.2484   -0.9514 C.3     1  UNL1        0.1120
     19 C          -2.0425    1.1174   -1.7317 C.3     1  UNL1       -0.0338
     20 C          -3.6712    1.0951    0.1048 C.3     1  UNL1        0.0238
     21 C          -5.1486    1.2586    0.0348 C.3     1  UNL1        0.1998
     22 C          -5.5442    2.6188    0.5768 C.3     1  UNL1        0.4266
     23 F          -4.9148    3.5830   -0.2102 F       1  UNL1       -0.1669
     24 F          -6.8897    2.8261    0.6007 F       1  UNL1       -0.1669
     25 F          -5.0527    2.7846    1.8653 F       1  UNL1       -0.1669
     26 O          -5.5293    1.2002   -1.3465 O.2     1  UNL1       -0.4534
     27 C          -5.1041    0.1164   -2.1077 C.2     1  UNL1        0.2765
     28 N          -5.9729   -0.4762   -3.0831 N.pl3   1  UNL1       -0.3134
     29 N          -3.9220   -0.3285   -1.9104 N.2     1  UNL1       -0.2241
     30 N          -0.8896   -0.7862   -0.3591 N.ar    1  UNL1       -0.2314
     31 C           4.3089    0.0065    1.7330 C.ar    1  UNL1        0.0619
     32 N           5.6418    0.0776    1.5455 N.ar    1  UNL1       -0.2177
     33 H           7.4137    3.8094    0.9286 H       1  UNL1        0.1229
     34 H           8.4820   -0.1262    2.1733 H       1  UNL1        0.0837
     35 H           9.4991    0.1509    0.7255 H       1  UNL1        0.0837
     36 H           5.8768   -1.8754   -1.1533 H       1  UNL1        0.0884
     37 H           1.8240   -2.0972   -0.6874 H       1  UNL1        0.1566
     38 H          -0.1905   -3.4908    1.4105 H       1  UNL1        0.0653
     39 H          -2.6187   -3.5932    1.5811 H       1  UNL1        0.0648
     40 H          -1.3303    0.4679   -2.2838 H       1  UNL1        0.0257
     41 H          -2.5879    1.7933   -2.3918 H       1  UNL1        0.0257
     42 H          -1.4534    1.6517   -0.9443 H       1  UNL1        0.0257
     43 H          -3.1895    2.1136    0.0648 H       1  UNL1        0.0331
     44 H          -3.3756    0.6979    1.1250 H       1  UNL1        0.0331
     45 H          -5.6478    0.4508    0.6143 H       1  UNL1        0.0826
     46 H          -6.9798   -0.5464   -2.8986 H       1  UNL1        0.1466
     47 H          -5.5531   -0.8178   -3.9526 H       1  UNL1        0.1466
     48 H           3.7936    0.5186    2.5389 H       1  UNL1        0.0854
@<TRIPOS>BOND
     1     1     2    3
     2     2     3    1
     3     3     4    1
     4     4     5    1
     5     5     6   ar
     6     6     7   ar
     7     7     8   ar
     8     8     9    1
     9     9    10    2
    10     9    11   am
    11    11    12    1
    12    12    13   ar
    13    13    14   ar
    14    14    15   ar
    15    15    16    1
    16    15    17   ar
    17    17    18    1
    18    18    19    1
    19    18    20    1
    20    20    21    1
    21    21    22    1
    22    22    23    1
    23    22    24    1
    24    22    25    1
    25    21    26    1
    26    26    27    1
    27    27    28    1
    28    27    29    2
    29    17    30   ar
    30     8    31   ar
    31    31    32   ar
    32    32     5   ar
    33    30    12   ar
    34    29    18    1
    35     1    33    1
    36     3    34    1
    37     3    35    1
    38     6    36    1
    39    11    37    1
    40    13    38    1
    41    14    39    1
    42    19    40    1
    43    19    41    1
    44    19    42    1
    45    20    43    1
    46    20    44    1
    47    21    45    1
    48    28    46    1
    49    28    47    1
    50    31    48    1
