@<TRIPOS>MOLECULE
*****
 65 68 0 0 0
SMALL
GASTEIGER

@<TRIPOS>ATOM
      1 C          10.1843   -0.1361    0.1520 C.3     1  UNL1       -0.0306
      2 C           9.4132   -0.1200   -1.1632 C.3     1  UNL1        0.0897
      3 O           8.1540    0.4962   -0.9894 O.3     1  UNL1       -0.4647
      4 C           7.2735   -0.0692   -0.0779 C.2     1  UNL1        0.3102
      5 O           7.6558   -1.0973    0.5362 O.2     1  UNL1       -0.2505
      6 C           5.9261    0.4961    0.1828 C.3     1  UNL1        0.0565
      7 C           5.0833    0.5161   -1.0853 C.3     1  UNL1       -0.0387
      8 C           3.8617    1.3444   -0.7837 C.3     1  UNL1       -0.0366
      9 C           3.2605    1.0243    0.5601 C.3     1  UNL1        0.0106
     10 N           1.8511    1.0907    0.4596 N.3     1  UNL1       -0.2958
     11 C           1.0599    0.8235    1.6156 C.3     1  UNL1        0.0189
     12 C           0.5043   -0.4014    0.9301 C.3     1  UNL1        0.0486
     13 N          -0.9336   -0.4234    0.7869 N.am    1  UNL1       -0.3087
     14 C          -1.6433   -1.5791    1.1838 C.2     1  UNL1        0.2305
     15 O          -0.9175   -2.5461    1.6558 O.2     1  UNL1       -0.2741
     16 C          -3.0883   -1.7915    1.1174 C.3     1  UNL1        0.0870
     17 N          -3.7758   -0.6582    0.5815 N.pl3   1  UNL1       -0.3186
     18 C          -5.2153   -0.7634    0.4721 C.ar    1  UNL1        0.1494
     19 N          -5.9400   -1.8080    0.8225 N.ar    1  UNL1       -0.1467
     20 N          -7.2302   -1.5943    0.5985 N.ar    1  UNL1       -0.1819
     21 C          -8.2465   -2.5376    0.8767 C.2     1  UNL1        0.3328
     22 N          -7.9510   -3.8032    1.4255 N.am    1  UNL1       -0.3097
     23 O          -9.4354   -2.2363    0.6277 O.2     1  UNL1       -0.2479
     24 C          -7.3821   -0.3452    0.0718 C.ar    1  UNL1        0.0810
     25 C          -8.4754    0.3698   -0.3363 C.ar    1  UNL1       -0.0349
     26 C          -8.2706    1.6389   -0.8335 C.ar    1  UNL1       -0.0481
     27 C          -7.0004    2.1915   -0.9249 C.ar    1  UNL1        0.0556
     28 C          -6.7491    3.5526   -1.4548 C.3     1  UNL1        0.4174
     29 F          -6.2406    3.4821   -2.7386 F       1  UNL1       -0.1659
     30 F          -5.7364    4.1014   -0.6567 F       1  UNL1       -0.1659
     31 F          -7.8412    4.3671   -1.3862 F       1  UNL1       -0.1659
     32 C          -5.9116    1.4459   -0.5049 C.ar    1  UNL1       -0.0376
     33 C          -6.1016    0.1787   -0.0069 C.ar    1  UNL1        0.0425
     34 C           1.1563    0.1304   -0.3156 C.3     1  UNL1        0.0189
     35 C           3.7333   -0.2879    1.1208 C.3     1  UNL1       -0.0366
     36 C           5.2207   -0.4164    1.1539 C.3     1  UNL1       -0.0387
     37 H          11.2732    0.0607   -0.0292 H       1  UNL1        0.0262
     38 H           9.9985   -1.0584    0.7150 H       1  UNL1        0.0262
     39 H           9.7594    0.7114    0.7553 H       1  UNL1        0.0262
     40 H          10.0009    0.3911   -1.9354 H       1  UNL1        0.0694
     41 H           9.2976   -1.1958   -1.4573 H       1  UNL1        0.0694
     42 H           5.9970    1.5172    0.5998 H       1  UNL1        0.0413
     43 H           4.7620   -0.4995   -1.3459 H       1  UNL1        0.0274
     44 H           5.6021    0.9654   -1.9368 H       1  UNL1        0.0274
     45 H           3.1103    1.1681   -1.5730 H       1  UNL1        0.0280
     46 H           4.1531    2.4130   -0.8506 H       1  UNL1        0.0280
     47 H           3.6022    1.8177    1.2624 H       1  UNL1        0.0462
     48 H           0.3150    1.6430    1.7719 H       1  UNL1        0.0445
     49 H           1.5924    0.6323    2.5621 H       1  UNL1        0.0445
     50 H           0.8950   -1.3173    1.3459 H       1  UNL1        0.0523
     51 H          -1.4526    0.4004    0.3954 H       1  UNL1        0.1491
     52 H          -3.5221   -2.0878    2.1055 H       1  UNL1        0.0557
     53 H          -3.2714   -2.6838    0.4698 H       1  UNL1        0.0557
     54 H          -3.3424    0.2393    0.2604 H       1  UNL1        0.1480
     55 H          -8.4921   -4.6747    1.1764 H       1  UNL1        0.1467
     56 H          -7.1694   -3.9586    2.1205 H       1  UNL1        0.1467
     57 H          -9.4684   -0.0472   -0.2709 H       1  UNL1        0.0639
     58 H          -9.0799    2.2721   -1.1780 H       1  UNL1        0.0624
     59 H          -4.8949    1.8469   -0.5612 H       1  UNL1        0.0631
     60 H           0.4379    0.6214   -1.0044 H       1  UNL1        0.0445
     61 H           1.7550   -0.5959   -0.8939 H       1  UNL1        0.0445
     62 H           3.3658   -0.3487    2.1677 H       1  UNL1        0.0280
     63 H           3.3243   -1.1695    0.5959 H       1  UNL1        0.0280
     64 H           5.5525   -1.4627    0.8955 H       1  UNL1        0.0274
     65 H           5.6470   -0.2351    2.1765 H       1  UNL1        0.0274
@<TRIPOS>BOND
     1     1     2    1
     2     2     3    1
     3     3     4    1
     4     4     5    2
     5     4     6    1
     6     6     7    1
     7     7     8    1
     8     8     9    1
     9     9    10    1
    10    10    11    1
    11    11    12    1
    12    12    13    1
    13    13    14   am
    14    14    15    2
    15    14    16    1
    16    16    17    1
    17    17    18    1
    18    18    19   ar
    19    19    20   ar
    20    20    21   am
    21    21    22   am
    22    21    23    2
    23    20    24   ar
    24    24    25   ar
    25    25    26   ar
    26    26    27   ar
    27    27    28    1
    28    28    29    1
    29    28    30    1
    30    28    31    1
    31    27    32   ar
    32    32    33   ar
    33    12    34    1
    34     9    35    1
    35    35    36    1
    36    36     6    1
    37    34    10    1
    38    33    18   ar
    39    33    24   ar
    40     1    37    1
    41     1    38    1
    42     1    39    1
    43     2    40    1
    44     2    41    1
    45     6    42    1
    46     7    43    1
    47     7    44    1
    48     8    45    1
    49     8    46    1
    50     9    47    1
    51    11    48    1
    52    11    49    1
    53    12    50    1
    54    13    51    1
    55    16    52    1
    56    16    53    1
    57    17    54    1
    58    22    55    1
    59    22    56    1
    60    25    57    1
    61    26    58    1
    62    32    59    1
    63    34    60    1
    64    34    61    1
    65    35    62    1
    66    35    63    1
    67    36    64    1
    68    36    65    1
