@<TRIPOS>MOLECULE
*****
 53 55 0 0 0
SMALL
GASTEIGER

@<TRIPOS>ATOM
      1 C           9.1304   -0.7507   -0.0680 C.3     1  UNL1        0.0788
      2 O           8.1377   -1.0375   -1.0421 O.3     1  UNL1       -0.4951
      3 C           6.8250   -0.6650   -0.7729 C.ar    1  UNL1        0.1201
      4 C           6.4812   -0.0326    0.4059 C.ar    1  UNL1       -0.0194
      5 C           5.1840    0.3375    0.6763 C.ar    1  UNL1       -0.0506
      6 C           4.1639    0.0863   -0.2345 C.ar    1  UNL1       -0.0177
      7 C           2.7840    0.4708    0.0363 C.ar    1  UNL1       -0.0178
      8 C           2.3137    0.4708    1.3395 C.ar    1  UNL1       -0.0522
      9 C           1.0308    0.8194    1.6641 C.ar    1  UNL1       -0.0348
     10 C           0.1664    1.1872    0.6513 C.ar    1  UNL1        0.1053
     11 S          -1.4682    1.6299    1.0864 S.O2    1  UNL1        0.0591
     12 O          -1.9556    2.5612   -0.0149 O.2     1  UNL1       -0.1530
     13 O          -1.5274    2.4096    2.3531 O.2     1  UNL1       -0.1530
     14 N          -2.5246    0.2651    1.1167 N.3     1  UNL1       -0.1759
     15 C          -2.6208   -0.3588   -0.1745 C.3     1  UNL1        0.1281
     16 C          -2.0315   -1.7418   -0.1354 C.2     1  UNL1        0.3238
     17 O          -1.9896   -2.5027   -1.1282 O.2     1  UNL1       -0.2492
     18 O          -1.5091   -2.1937    1.0623 O.3     1  UNL1       -0.4795
     19 C          -4.0363   -0.4300   -0.7043 C.3     1  UNL1       -0.0137
     20 C          -4.9470   -1.2097    0.1864 C.3     1  UNL1       -0.0482
     21 C          -5.9911   -0.3860    0.8725 C.3     1  UNL1       -0.0527
     22 C          -6.7659    0.5252   -0.0190 C.3     1  UNL1       -0.0530
     23 C          -6.0423    0.9418   -1.2699 C.3     1  UNL1       -0.0527
     24 C          -4.5646    0.9605   -0.9478 C.3     1  UNL1       -0.0482
     25 C           0.5992    1.1985   -0.6518 C.ar    1  UNL1       -0.0348
     26 C           1.9157    0.8380   -0.9593 C.ar    1  UNL1       -0.0522
     27 C           4.5260   -0.5481   -1.4104 C.ar    1  UNL1       -0.0506
     28 C           5.8281   -0.9157   -1.6738 C.ar    1  UNL1       -0.0194
     29 H           8.9214   -1.2709    0.8872 H       1  UNL1        0.0660
     30 H           9.0971    0.3559    0.1359 H       1  UNL1        0.0660
     31 H          10.1355   -0.9815   -0.4424 H       1  UNL1        0.0660
     32 H           7.2986    0.1576    1.1124 H       1  UNL1        0.0654
     33 H           4.9637    0.8269    1.6060 H       1  UNL1        0.0625
     34 H           2.9885    0.1847    2.1220 H       1  UNL1        0.0624
     35 H           0.6803    0.8130    2.6937 H       1  UNL1        0.0637
     36 H          -2.1146   -0.4203    1.7863 H       1  UNL1        0.1489
     37 H          -1.9901    0.2148   -0.8834 H       1  UNL1        0.0595
     38 H          -1.1641   -3.1567    1.1740 H       1  UNL1        0.2951
     39 H          -3.9795   -0.9409   -1.6866 H       1  UNL1        0.0322
     40 H          -5.4871   -1.9962   -0.3975 H       1  UNL1        0.0269
     41 H          -4.4002   -1.7681    0.9807 H       1  UNL1        0.0269
     42 H          -5.5383    0.1192    1.7496 H       1  UNL1        0.0265
     43 H          -6.7328   -1.1155    1.3134 H       1  UNL1        0.0265
     44 H          -7.7671    0.1460   -0.3069 H       1  UNL1        0.0265
     45 H          -6.9769    1.4606    0.5784 H       1  UNL1        0.0265
     46 H          -6.2877    0.3064   -2.1409 H       1  UNL1        0.0265
     47 H          -6.3334    1.9827   -1.5178 H       1  UNL1        0.0265
     48 H          -3.9456    1.4812   -1.6749 H       1  UNL1        0.0269
     49 H          -4.4822    1.5013    0.0293 H       1  UNL1        0.0269
     50 H          -0.0483    1.4815   -1.4670 H       1  UNL1        0.0637
     51 H           2.2449    0.8507   -1.9886 H       1  UNL1        0.0624
     52 H           3.7380   -0.7485   -2.1273 H       1  UNL1        0.0625
     53 H           6.0676   -1.4136   -2.6135 H       1  UNL1        0.0654
@<TRIPOS>BOND
     1     1     2    1
     2     2     3    1
     3     3     4   ar
     4     4     5   ar
     5     5     6   ar
     6     6     7    1
     7     7     8   ar
     8     8     9   ar
     9     9    10   ar
    10    10    11    1
    11    11    12    2
    12    11    13    2
    13    11    14    1
    14    14    15    1
    15    15    16    1
    16    16    17    2
    17    16    18    1
    18    15    19    1
    19    19    20    1
    20    20    21    1
    21    21    22    1
    22    22    23    1
    23    23    24    1
    24    10    25   ar
    25    25    26   ar
    26     6    27   ar
    27    27    28   ar
    28    28     3   ar
    29    26     7   ar
    30    24    19    1
    31     1    29    1
    32     1    30    1
    33     1    31    1
    34     4    32    1
    35     5    33    1
    36     8    34    1
    37     9    35    1
    38    14    36    1
    39    15    37    1
    40    18    38    1
    41    19    39    1
    42    20    40    1
    43    20    41    1
    44    21    42    1
    45    21    43    1
    46    22    44    1
    47    22    45    1
    48    23    46    1
    49    23    47    1
    50    24    48    1
    51    24    49    1
    52    25    50    1
    53    26    51    1
    54    27    52    1
    55    28    53    1
