
     RDKit          3D

 53 55  0  0  0  0  0  0  0  0999 V2000
    9.1304   -0.7507   -0.0680 C   0  0  0  0  0  0  0  0  0  0  0  0
    8.1377   -1.0375   -1.0421 O   0  0  0  0  0  0  0  0  0  0  0  0
    6.8250   -0.6650   -0.7729 C   0  0  0  0  0  0  0  0  0  0  0  0
    6.4812   -0.0326    0.4059 C   0  0  0  0  0  0  0  0  0  0  0  0
    5.1840    0.3375    0.6763 C   0  0  0  0  0  0  0  0  0  0  0  0
    4.1639    0.0863   -0.2345 C   0  0  0  0  0  0  0  0  0  0  0  0
    2.7840    0.4708    0.0363 C   0  0  0  0  0  0  0  0  0  0  0  0
    2.3137    0.4708    1.3395 C   0  0  0  0  0  0  0  0  0  0  0  0
    1.0308    0.8194    1.6641 C   0  0  0  0  0  0  0  0  0  0  0  0
    0.1664    1.1872    0.6513 C   0  0  0  0  0  0  0  0  0  0  0  0
   -1.4682    1.6299    1.0864 S   0  0  0  0  0  6  0  0  0  0  0  0
   -1.9556    2.5612   -0.0149 O   0  0  0  0  0  0  0  0  0  0  0  0
   -1.5274    2.4096    2.3531 O   0  0  0  0  0  0  0  0  0  0  0  0
   -2.5246    0.2651    1.1167 N   0  0  0  0  0  0  0  0  0  0  0  0
   -2.6208   -0.3588   -0.1745 C   0  0  1  0  0  0  0  0  0  0  0  0
   -2.0315   -1.7418   -0.1354 C   0  0  0  0  0  0  0  0  0  0  0  0
   -1.9896   -2.5027   -1.1282 O   0  0  0  0  0  0  0  0  0  0  0  0
   -1.5091   -2.1937    1.0623 O   0  0  0  0  0  0  0  0  0  0  0  0
   -4.0363   -0.4300   -0.7043 C   0  0  0  0  0  0  0  0  0  0  0  0
   -4.9470   -1.2097    0.1864 C   0  0  0  0  0  0  0  0  0  0  0  0
   -5.9911   -0.3860    0.8725 C   0  0  0  0  0  0  0  0  0  0  0  0
   -6.7659    0.5252   -0.0190 C   0  0  0  0  0  0  0  0  0  0  0  0
   -6.0423    0.9418   -1.2699 C   0  0  0  0  0  0  0  0  0  0  0  0
   -4.5646    0.9605   -0.9478 C   0  0  0  0  0  0  0  0  0  0  0  0
    0.5992    1.1985   -0.6518 C   0  0  0  0  0  0  0  0  0  0  0  0
    1.9157    0.8380   -0.9593 C   0  0  0  0  0  0  0  0  0  0  0  0
    4.5260   -0.5481   -1.4104 C   0  0  0  0  0  0  0  0  0  0  0  0
    5.8281   -0.9157   -1.6738 C   0  0  0  0  0  0  0  0  0  0  0  0
    8.9214   -1.2709    0.8872 H   0  0  0  0  0  0  0  0  0  0  0  0
    9.0971    0.3559    0.1359 H   0  0  0  0  0  0  0  0  0  0  0  0
   10.1355   -0.9815   -0.4424 H   0  0  0  0  0  0  0  0  0  0  0  0
    7.2986    0.1576    1.1124 H   0  0  0  0  0  0  0  0  0  0  0  0
    4.9637    0.8269    1.6060 H   0  0  0  0  0  0  0  0  0  0  0  0
    2.9885    0.1847    2.1220 H   0  0  0  0  0  0  0  0  0  0  0  0
    0.6803    0.8130    2.6937 H   0  0  0  0  0  0  0  0  0  0  0  0
   -2.1146   -0.4203    1.7863 H   0  0  0  0  0  0  0  0  0  0  0  0
   -1.9901    0.2148   -0.8834 H   0  0  0  0  0  0  0  0  0  0  0  0
   -1.1641   -3.1567    1.1740 H   0  0  0  0  0  0  0  0  0  0  0  0
   -3.9795   -0.9409   -1.6866 H   0  0  0  0  0  0  0  0  0  0  0  0
   -5.4871   -1.9962   -0.3975 H   0  0  0  0  0  0  0  0  0  0  0  0
   -4.4002   -1.7681    0.9807 H   0  0  0  0  0  0  0  0  0  0  0  0
   -5.5383    0.1192    1.7496 H   0  0  0  0  0  0  0  0  0  0  0  0
   -6.7328   -1.1155    1.3134 H   0  0  0  0  0  0  0  0  0  0  0  0
   -7.7671    0.1460   -0.3069 H   0  0  0  0  0  0  0  0  0  0  0  0
   -6.9769    1.4606    0.5784 H   0  0  0  0  0  0  0  0  0  0  0  0
   -6.2877    0.3064   -2.1409 H   0  0  0  0  0  0  0  0  0  0  0  0
   -6.3334    1.9827   -1.5178 H   0  0  0  0  0  0  0  0  0  0  0  0
   -3.9456    1.4812   -1.6749 H   0  0  0  0  0  0  0  0  0  0  0  0
   -4.4822    1.5013    0.0293 H   0  0  0  0  0  0  0  0  0  0  0  0
   -0.0483    1.4815   -1.4670 H   0  0  0  0  0  0  0  0  0  0  0  0
    2.2449    0.8507   -1.9886 H   0  0  0  0  0  0  0  0  0  0  0  0
    3.7380   -0.7485   -2.1273 H   0  0  0  0  0  0  0  0  0  0  0  0
    6.0676   -1.4136   -2.6135 H   0  0  0  0  0  0  0  0  0  0  0  0
  1  2  1  0
  2  3  1  0
  3  4  2  0
  4  5  1  0
  5  6  2  0
  6  7  1  0
  7  8  2  0
  8  9  1  0
  9 10  2  0
 10 11  1  0
 11 12  2  0
 11 13  2  0
 11 14  1  0
 14 15  1  0
 15 16  1  0
 16 17  2  0
 16 18  1  0
 15 19  1  0
 19 20  1  0
 20 21  1  0
 21 22  1  0
 22 23  1  0
 23 24  1  0
 10 25  1  0
 25 26  2  0
  6 27  1  0
 27 28  2  0
 28  3  1  0
 26  7  1  0
 24 19  1  0
  1 29  1  0
  1 30  1  0
  1 31  1  0
  4 32  1  0
  5 33  1  0
  8 34  1  0
  9 35  1  0
 14 36  1  0
 15 37  1  6
 18 38  1  0
 19 39  1  0
 20 40  1  0
 20 41  1  0
 21 42  1  0
 21 43  1  0
 22 44  1  0
 22 45  1  0
 23 46  1  0
 23 47  1  0
 24 48  1  0
 24 49  1  0
 25 50  1  0
 26 51  1  0
 27 52  1  0
 28 53  1  0
M  END
$$$$
