@<TRIPOS>MOLECULE
*****
 52 55 0 0 0
SMALL
GASTEIGER

@<TRIPOS>ATOM
      1 N           1.5262    1.0119   -4.0069 N.am    1  UNL1       -0.3240
      2 C           1.7180    1.3231   -2.6418 C.2     1  UNL1        0.2635
      3 O           2.8441    1.7080   -2.2787 O.2     1  UNL1       -0.2686
      4 C           0.6333    1.1944   -1.7056 C.ar    1  UNL1        0.1685
      5 N          -0.6129    0.9528   -2.2185 N.ar    1  UNL1       -0.1409
      6 N          -1.6360    0.8988   -1.4012 N.ar    1  UNL1       -0.1336
      7 C          -1.5719    1.0621   -0.0730 C.ar    1  UNL1        0.1433
      8 N          -2.7228    1.0064    0.7664 N.pl3   1  UNL1       -0.3233
      9 C          -4.0633    0.7855    0.2667 C.3     1  UNL1        0.0371
     10 C          -4.9988    0.8195    1.4449 C.3     1  UNL1       -0.0331
     11 C          -6.3254    0.1913    1.1906 C.3     1  UNL1       -0.0513
     12 C          -6.1597   -1.1918    0.5736 C.3     1  UNL1       -0.0515
     13 C          -5.5170   -0.9661   -0.7791 C.3     1  UNL1       -0.0360
     14 C          -4.1000   -0.4784   -0.5060 C.3     1  UNL1        0.0234
     15 N          -3.3796   -1.5775    0.0893 N.3     1  UNL1       -0.3257
     16 C          -0.3338    1.3034    0.4631 C.ar    1  UNL1        0.0034
     17 C           0.7577    1.3658   -0.3633 C.ar    1  UNL1        0.0683
     18 N           2.0004    1.6258    0.2477 N.pl3   1  UNL1       -0.2975
     19 C           3.0440    0.6730    0.2663 C.ar    1  UNL1        0.1232
     20 C           2.8331   -0.6171   -0.2103 C.ar    1  UNL1       -0.0213
     21 C           3.8806   -1.5168   -0.1709 C.ar    1  UNL1       -0.0536
     22 C           5.1249   -1.1881    0.3212 C.ar    1  UNL1       -0.0259
     23 C           5.2948    0.0933    0.7825 C.ar    1  UNL1        0.0466
     24 N           4.2735    0.9628    0.7414 N.ar    1  UNL1       -0.2366
     25 C           6.6978    0.2310    1.2674 C.3     1  UNL1       -0.0098
     26 C           7.0703   -1.1987    1.5858 C.3     1  UNL1       -0.0436
     27 C           6.3960   -1.9584    0.4708 C.3     1  UNL1       -0.0256
     28 H           0.5687    1.0756   -4.4147 H       1  UNL1        0.1453
     29 H           2.3209    0.7231   -4.6037 H       1  UNL1        0.1453
     30 H          -2.5386    1.1385    1.8070 H       1  UNL1        0.1478
     31 H          -4.2639    1.6462   -0.4337 H       1  UNL1        0.0513
     32 H          -4.5166    0.3930    2.3643 H       1  UNL1        0.0284
     33 H          -5.1666    1.8991    1.6887 H       1  UNL1        0.0284
     34 H          -6.9477    0.7968    0.5221 H       1  UNL1        0.0266
     35 H          -6.8279    0.0573    2.1808 H       1  UNL1        0.0266
     36 H          -5.4342   -1.7264    1.2184 H       1  UNL1        0.0266
     37 H          -7.1396   -1.6950    0.4943 H       1  UNL1        0.0266
     38 H          -6.0686   -0.1255   -1.2556 H       1  UNL1        0.0281
     39 H          -5.4475   -1.8661   -1.3886 H       1  UNL1        0.0281
     40 H          -3.6659   -0.3035   -1.5305 H       1  UNL1        0.0476
     41 H          -3.3297   -1.5009    1.1121 H       1  UNL1        0.1185
     42 H          -3.7534   -2.5028   -0.2565 H       1  UNL1        0.1185
     43 H          -0.2258    1.4430    1.5386 H       1  UNL1        0.0672
     44 H           2.1930    2.5582    0.7191 H       1  UNL1        0.1536
     45 H           1.8730   -0.9089   -0.6022 H       1  UNL1        0.0652
     46 H           3.7299   -2.5333   -0.5425 H       1  UNL1        0.0622
     47 H           6.6759    0.8154    2.2173 H       1  UNL1        0.0328
     48 H           7.3694    0.6599    0.5190 H       1  UNL1        0.0328
     49 H           6.5493   -1.4908    2.5382 H       1  UNL1        0.0272
     50 H           8.1626   -1.3625    1.6333 H       1  UNL1        0.0272
     51 H           6.9760   -1.9044   -0.4587 H       1  UNL1        0.0314
     52 H           6.2336   -2.9877    0.8110 H       1  UNL1        0.0314
@<TRIPOS>BOND
     1     1     2   am
     2     2     3    2
     3     2     4    1
     4     4     5   ar
     5     5     6   ar
     6     6     7   ar
     7     7     8    1
     8     8     9    1
     9     9    10    1
    10    10    11    1
    11    11    12    1
    12    12    13    1
    13    13    14    1
    14    14    15    1
    15     7    16   ar
    16    16    17   ar
    17    17    18    1
    18    18    19    1
    19    19    20   ar
    20    20    21   ar
    21    21    22   ar
    22    22    23   ar
    23    23    24   ar
    24    23    25    1
    25    25    26    1
    26    26    27    1
    27    17     4   ar
    28    24    19   ar
    29    14     9    1
    30    27    22    1
    31     1    28    1
    32     1    29    1
    33     8    30    1
    34     9    31    1
    35    10    32    1
    36    10    33    1
    37    11    34    1
    38    11    35    1
    39    12    36    1
    40    12    37    1
    41    13    38    1
    42    13    39    1
    43    14    40    1
    44    15    41    1
    45    15    42    1
    46    16    43    1
    47    18    44    1
    48    20    45    1
    49    21    46    1
    50    25    47    1
    51    25    48    1
    52    26    49    1
    53    26    50    1
    54    27    51    1
    55    27    52    1
