@<TRIPOS>MOLECULE
*****
 37 40 0 0 0
SMALL
GASTEIGER

@<TRIPOS>ATOM
      1 F           2.6343    0.3237   -2.4326 F       1  UNL1       -0.2051
      2 C           3.2843    0.2178   -1.2512 C.ar    1  UNL1        0.1291
      3 C           2.8212   -0.7276   -0.3688 C.ar    1  UNL1        0.0056
      4 C           1.7046   -1.6589   -0.4800 C.3     1  UNL1        0.0505
      5 N           0.3945   -1.1094   -0.2614 N.am    1  UNL1       -0.2301
      6 C          -0.0531   -1.1339    1.1127 C.2     1  UNL1        0.2697
      7 O           0.6169   -1.5873    2.0890 O.2     1  UNL1       -0.2679
      8 C          -1.3802   -0.6076    1.4819 C.ar    1  UNL1        0.1062
      9 C          -2.0619   -0.5266    2.6992 C.ar    1  UNL1       -0.0317
     10 C          -3.3049    0.0527    2.4525 C.ar    1  UNL1       -0.0434
     11 C          -3.3507    0.3089    1.0987 C.ar    1  UNL1        0.0068
     12 N          -2.2041   -0.0887    0.5497 N.ar    1  UNL1       -0.3206
     13 C          -1.8575    0.0294   -0.8700 C.3     1  UNL1        0.2069
     14 C          -1.9324    1.5020   -1.2922 C.3     1  UNL1        0.0653
     15 C          -3.3963    1.7177   -1.3343 C.2     1  UNL1        0.2225
     16 O          -3.9841    2.8117   -1.1356 O.2     1  UNL1       -0.2753
     17 N          -3.9957    0.4575   -1.6401 N.am    1  UNL1       -0.2539
     18 C          -2.9658   -0.5195   -1.6980 C.2     1  UNL1        0.2550
     19 O          -3.0916   -1.5906   -2.3531 O.2     1  UNL1       -0.2722
     20 C          -0.5502   -0.5518   -1.1602 C.2     1  UNL1        0.2581
     21 O          -0.2116   -0.5638   -2.3675 O.2     1  UNL1       -0.2720
     22 C           3.5687   -0.7541    0.8088 C.ar    1  UNL1       -0.0533
     23 C           4.6391    0.0375    1.1063 C.ar    1  UNL1       -0.0473
     24 C           5.0450    0.9589    0.1785 C.ar    1  UNL1        0.0206
     25 BR          6.5210    2.1293    0.4545 Br      1  UNL1       -0.0502
     26 C           4.3575    1.0459   -1.0104 C.ar    1  UNL1       -0.0122
     27 H           1.7201   -2.1374   -1.5013 H       1  UNL1        0.0520
     28 H           1.8620   -2.5216    0.2210 H       1  UNL1        0.0520
     29 H          -1.6806   -0.8621    3.6741 H       1  UNL1        0.0640
     30 H          -4.0076    0.2128    3.2740 H       1  UNL1        0.0633
     31 H          -4.2598    0.7588    0.7490 H       1  UNL1        0.0809
     32 H          -1.5682    1.5526   -2.3224 H       1  UNL1        0.0392
     33 H          -1.3942    2.1571   -0.5799 H       1  UNL1        0.0392
     34 H          -5.0394    0.3955   -1.7759 H       1  UNL1        0.1576
     35 H           3.3082   -1.4625    1.5978 H       1  UNL1        0.0622
     36 H           5.1789   -0.0281    2.0370 H       1  UNL1        0.0629
     37 H           4.6336    1.7617   -1.7903 H       1  UNL1        0.0657
@<TRIPOS>BOND
     1     1     2    1
     2     2     3   ar
     3     3     4    1
     4     4     5    1
     5     5     6   am
     6     6     7    2
     7     6     8    1
     8     8     9   ar
     9     9    10   ar
    10    10    11   ar
    11    11    12   ar
    12    12    13    1
    13    13    14    1
    14    14    15    1
    15    15    16    2
    16    15    17   am
    17    17    18   am
    18    18    19    2
    19    13    20    1
    20    20    21    2
    21     3    22   ar
    22    22    23   ar
    23    23    24   ar
    24    24    25    1
    25    24    26   ar
    26    26     2   ar
    27    20     5   am
    28    12     8   ar
    29    18    13    1
    30     4    27    1
    31     4    28    1
    32     9    29    1
    33    10    30    1
    34    11    31    1
    35    14    32    1
    36    14    33    1
    37    17    34    1
    38    22    35    1
    39    23    36    1
    40    26    37    1
