
     RDKit          3D

 37 40  0  0  0  0  0  0  0  0999 V2000
    2.6343    0.3237   -2.4326 F   0  0  0  0  0  0  0  0  0  0  0  0
    3.2843    0.2178   -1.2512 C   0  0  0  0  0  0  0  0  0  0  0  0
    2.8212   -0.7276   -0.3688 C   0  0  0  0  0  0  0  0  0  0  0  0
    1.7046   -1.6589   -0.4800 C   0  0  0  0  0  0  0  0  0  0  0  0
    0.3945   -1.1094   -0.2614 N   0  0  0  0  0  0  0  0  0  0  0  0
   -0.0531   -1.1339    1.1127 C   0  0  0  0  0  0  0  0  0  0  0  0
    0.6169   -1.5873    2.0890 O   0  0  0  0  0  0  0  0  0  0  0  0
   -1.3802   -0.6076    1.4819 C   0  0  0  0  0  0  0  0  0  0  0  0
   -2.0619   -0.5266    2.6992 C   0  0  0  0  0  0  0  0  0  0  0  0
   -3.3049    0.0527    2.4525 C   0  0  0  0  0  0  0  0  0  0  0  0
   -3.3507    0.3089    1.0987 C   0  0  0  0  0  0  0  0  0  0  0  0
   -2.2041   -0.0887    0.5497 N   0  0  0  0  0  0  0  0  0  0  0  0
   -1.8575    0.0294   -0.8700 C   0  0  2  0  0  0  0  0  0  0  0  0
   -1.9324    1.5020   -1.2922 C   0  0  0  0  0  0  0  0  0  0  0  0
   -3.3963    1.7177   -1.3343 C   0  0  0  0  0  0  0  0  0  0  0  0
   -3.9841    2.8117   -1.1356 O   0  0  0  0  0  0  0  0  0  0  0  0
   -3.9957    0.4575   -1.6401 N   0  0  0  0  0  0  0  0  0  0  0  0
   -2.9658   -0.5195   -1.6980 C   0  0  0  0  0  0  0  0  0  0  0  0
   -3.0916   -1.5906   -2.3531 O   0  0  0  0  0  0  0  0  0  0  0  0
   -0.5502   -0.5518   -1.1602 C   0  0  0  0  0  0  0  0  0  0  0  0
   -0.2116   -0.5638   -2.3675 O   0  0  0  0  0  0  0  0  0  0  0  0
    3.5687   -0.7541    0.8088 C   0  0  0  0  0  0  0  0  0  0  0  0
    4.6391    0.0375    1.1063 C   0  0  0  0  0  0  0  0  0  0  0  0
    5.0450    0.9589    0.1785 C   0  0  0  0  0  0  0  0  0  0  0  0
    6.5210    2.1293    0.4545 Br  0  0  0  0  0  0  0  0  0  0  0  0
    4.3575    1.0459   -1.0104 C   0  0  0  0  0  0  0  0  0  0  0  0
    1.7201   -2.1374   -1.5013 H   0  0  0  0  0  0  0  0  0  0  0  0
    1.8620   -2.5216    0.2210 H   0  0  0  0  0  0  0  0  0  0  0  0
   -1.6806   -0.8621    3.6741 H   0  0  0  0  0  0  0  0  0  0  0  0
   -4.0076    0.2128    3.2740 H   0  0  0  0  0  0  0  0  0  0  0  0
   -4.2598    0.7588    0.7490 H   0  0  0  0  0  0  0  0  0  0  0  0
   -1.5682    1.5526   -2.3224 H   0  0  0  0  0  0  0  0  0  0  0  0
   -1.3942    2.1571   -0.5799 H   0  0  0  0  0  0  0  0  0  0  0  0
   -5.0394    0.3955   -1.7759 H   0  0  0  0  0  0  0  0  0  0  0  0
    3.3082   -1.4625    1.5978 H   0  0  0  0  0  0  0  0  0  0  0  0
    5.1789   -0.0281    2.0370 H   0  0  0  0  0  0  0  0  0  0  0  0
    4.6336    1.7617   -1.7903 H   0  0  0  0  0  0  0  0  0  0  0  0
  1  2  1  0
  2  3  2  0
  3  4  1  0
  4  5  1  0
  5  6  1  0
  6  7  2  0
  6  8  1  0
  8  9  2  0
  9 10  1  0
 10 11  2  0
 11 12  1  0
 12 13  1  0
 13 14  1  6
 14 15  1  0
 15 16  2  0
 15 17  1  0
 17 18  1  0
 18 19  2  0
 13 20  1  0
 20 21  2  0
  3 22  1  0
 22 23  2  0
 23 24  1  0
 24 25  1  0
 24 26  2  0
 26  2  1  0
 20  5  1  0
 12  8  1  0
 18 13  1  0
  4 27  1  0
  4 28  1  0
  9 29  1  0
 10 30  1  0
 11 31  1  0
 14 32  1  0
 14 33  1  0
 17 34  1  0
 22 35  1  0
 23 36  1  0
 26 37  1  0
M  END
$$$$
