
     RDKit          3D

 62 66  0  0  0  0  0  0  0  0999 V2000
   -2.9197   -1.9266    1.3023 O   0  0  0  0  0  0  0  0  0  0  0  0
   -2.7715   -1.1488    0.3336 C   0  0  0  0  0  0  0  0  0  0  0  0
   -1.3944   -0.8790   -0.0687 C   0  0  0  0  0  0  0  0  0  0  0  0
   -0.2940   -1.2600    0.6723 C   0  0  0  0  0  0  0  0  0  0  0  0
    0.8372   -0.8468    0.0007 C   0  0  0  0  0  0  0  0  0  0  0  0
    2.2265   -1.0426    0.4283 C   0  0  0  0  0  0  0  0  0  0  0  0
    2.4793   -1.6986    1.6112 C   0  0  0  0  0  0  0  0  0  0  0  0
    3.7678   -1.8998    2.0430 C   0  0  0  0  0  0  0  0  0  0  0  0
    4.7816   -1.4307    1.2649 N   0  0  0  0  0  0  0  0  0  0  0  0
    4.5463   -0.7905    0.1112 C   0  0  0  0  0  0  0  0  0  0  0  0
    5.6411   -0.3252   -0.6551 N   0  0  0  0  0  0  0  0  0  0  0  0
    7.0076   -0.4814   -0.2694 C   0  0  2  0  0  0  0  0  0  0  0  0
    7.2630    0.2922    0.9955 C   0  0  0  0  0  0  0  0  0  0  0  0
    7.5111    1.7203    0.5038 C   0  0  2  0  0  0  0  0  0  0  0  0
    6.3512    2.4533    0.7470 O   0  0  0  0  0  0  0  0  0  0  0  0
    7.7970    1.6153   -0.9668 C   0  0  1  0  0  0  0  0  0  0  0  0
    8.9063    2.3485   -1.3187 F   0  0  0  0  0  0  0  0  0  0  0  0
    7.9662    0.1385   -1.2527 C   0  0  0  0  0  0  0  0  0  0  0  0
    3.2639   -0.6026   -0.2964 N   0  0  0  0  0  0  0  0  0  0  0  0
    0.3768   -0.2227   -1.1372 C   0  0  0  0  0  0  0  0  0  0  0  0
   -0.9673   -0.2357   -1.1905 N   0  0  0  0  0  0  0  0  0  0  0  0
   -1.7625    0.3447   -2.2694 C   0  0  0  0  0  0  0  0  0  0  0  0
   -3.0941   -0.3615   -2.4091 C   0  0  0  0  0  0  0  0  0  0  0  0
   -4.1005    0.1533   -1.4113 C   0  0  0  0  0  0  0  0  0  0  0  0
   -3.9885   -0.6568   -0.2135 N   0  0  0  0  0  0  0  0  0  0  0  0
   -5.2405   -0.9757    0.4614 C   0  0  2  0  0  0  0  0  0  0  0  0
   -6.1379   -1.8196   -0.3693 C   0  0  0  0  0  0  0  0  0  0  0  0
   -7.3017   -2.1263    0.3042 O   0  0  0  0  0  0  0  0  0  0  0  0
   -5.8111    0.3154    0.8888 C   0  0  0  0  0  0  0  0  0  0  0  0
   -7.1002    0.7201    0.6858 C   0  0  0  0  0  0  0  0  0  0  0  0
   -7.5636    1.9656    1.1322 C   0  0  0  0  0  0  0  0  0  0  0  0
   -6.6908    2.7903    1.7881 C   0  0  0  0  0  0  0  0  0  0  0  0
   -5.3866    2.4121    2.0080 C   0  0  0  0  0  0  0  0  0  0  0  0
   -4.9586    1.1846    1.5594 C   0  0  0  0  0  0  0  0  0  0  0  0
   -0.2819   -1.7978    1.6311 H   0  0  0  0  0  0  0  0  0  0  0  0
    1.6683   -2.0677    2.2226 H   0  0  0  0  0  0  0  0  0  0  0  0
    3.9778   -2.4155    2.9734 H   0  0  0  0  0  0  0  0  0  0  0  0
    5.4608    0.1688   -1.5681 H   0  0  0  0  0  0  0  0  0  0  0  0
    7.2762   -1.5502   -0.0935 H   0  0  0  0  0  0  0  0  0  0  0  0
    8.1750   -0.0749    1.5197 H   0  0  0  0  0  0  0  0  0  0  0  0
    6.3769    0.2394    1.6335 H   0  0  0  0  0  0  0  0  0  0  0  0
    8.3560    2.1290    1.0936 H   0  0  0  0  0  0  0  0  0  0  0  0
    6.0919    2.9747   -0.0611 H   0  0  0  0  0  0  0  0  0  0  0  0
    6.8925    1.9340   -1.5632 H   0  0  0  0  0  0  0  0  0  0  0  0
    7.7638   -0.1146   -2.2966 H   0  0  0  0  0  0  0  0  0  0  0  0
    8.9906   -0.1337   -0.9362 H   0  0  0  0  0  0  0  0  0  0  0  0
    1.0448    0.2184   -1.8849 H   0  0  0  0  0  0  0  0  0  0  0  0
   -1.9144    1.4332   -2.1184 H   0  0  0  0  0  0  0  0  0  0  0  0
   -1.2399    0.2419   -3.2523 H   0  0  0  0  0  0  0  0  0  0  0  0
   -3.4513   -0.2079   -3.4469 H   0  0  0  0  0  0  0  0  0  0  0  0
   -2.9089   -1.4480   -2.2837 H   0  0  0  0  0  0  0  0  0  0  0  0
   -5.1212    0.1898   -1.8107 H   0  0  0  0  0  0  0  0  0  0  0  0
   -3.7765    1.1905   -1.1271 H   0  0  0  0  0  0  0  0  0  0  0  0
   -4.9473   -1.6008    1.3532 H   0  0  0  0  0  0  0  0  0  0  0  0
   -6.4035   -1.3657   -1.3466 H   0  0  0  0  0  0  0  0  0  0  0  0
   -5.6258   -2.7721   -0.5962 H   0  0  0  0  0  0  0  0  0  0  0  0
   -7.5975   -3.0247    0.0759 H   0  0  0  0  0  0  0  0  0  0  0  0
   -7.7884    0.0921    0.1734 H   0  0  0  0  0  0  0  0  0  0  0  0
   -8.5765    2.2828    0.9725 H   0  0  0  0  0  0  0  0  0  0  0  0
   -7.0187    3.7637    2.1474 H   0  0  0  0  0  0  0  0  0  0  0  0
   -4.7379    3.0933    2.5276 H   0  0  0  0  0  0  0  0  0  0  0  0
   -3.9243    0.8984    1.7403 H   0  0  0  0  0  0  0  0  0  0  0  0
  1  2  2  0
  2  3  1  0
  3  4  2  0
  4  5  1  0
  5  6  1  0
  6  7  2  0
  7  8  1  0
  8  9  2  0
  9 10  1  0
 10 11  1  0
 11 12  1  0
 12 13  1  0
 13 14  1  0
 14 15  1  0
 14 16  1  0
 16 17  1  0
 16 18  1  0
 10 19  2  0
  5 20  2  0
 20 21  1  0
 21 22  1  0
 22 23  1  0
 23 24  1  0
 24 25  1  0
 25 26  1  0
 26 27  1  0
 27 28  1  0
 26 29  1  0
 29 30  2  0
 30 31  1  0
 31 32  2  0
 32 33  1  0
 33 34  2  0
 25  2  1  0
 34 29  1  0
 21  3  1  0
 19  6  1  0
 18 12  1  0
  4 35  1  0
  7 36  1  0
  8 37  1  0
 11 38  1  0
 12 39  1  1
 13 40  1  0
 13 41  1  0
 14 42  1  1
 15 43  1  0
 16 44  1  6
 18 45  1  0
 18 46  1  0
 20 47  1  0
 22 48  1  0
 22 49  1  0
 23 50  1  0
 23 51  1  0
 24 52  1  0
 24 53  1  0
 26 54  1  1
 27 55  1  0
 27 56  1  0
 28 57  1  0
 30 58  1  0
 31 59  1  0
 32 60  1  0
 33 61  1  0
 34 62  1  0
M  END
$$$$
