@<TRIPOS>MOLECULE
*****
 62 66 0 0 0
SMALL
GASTEIGER

@<TRIPOS>ATOM
      1 O          -2.9197   -1.9266    1.3023 O.2     1  UNL1       -0.2684
      2 C          -2.7715   -1.1488    0.3336 C.2     1  UNL1        0.2637
      3 C          -1.3944   -0.8790   -0.0687 C.ar    1  UNL1        0.1052
      4 C          -0.2940   -1.2600    0.6723 C.ar    1  UNL1       -0.0225
      5 C           0.8372   -0.8468    0.0007 C.ar    1  UNL1        0.0187
      6 C           2.2265   -1.0426    0.4283 C.ar    1  UNL1        0.0775
      7 C           2.4793   -1.6986    1.6112 C.ar    1  UNL1       -0.0174
      8 C           3.7678   -1.8998    2.0430 C.ar    1  UNL1        0.0332
      9 N           4.7816   -1.4307    1.2649 N.ar    1  UNL1       -0.2229
     10 C           4.5463   -0.7905    0.1112 C.ar    1  UNL1        0.2159
     11 N           5.6411   -0.3252   -0.6551 N.pl3   1  UNL1       -0.3104
     12 C           7.0076   -0.4814   -0.2694 C.3     1  UNL1        0.0284
     13 C           7.2630    0.2922    0.9955 C.3     1  UNL1       -0.0055
     14 C           7.5111    1.7203    0.5038 C.3     1  UNL1        0.0879
     15 O           6.3512    2.4533    0.7470 O.3     1  UNL1       -0.3889
     16 C           7.7970    1.6153   -0.9668 C.3     1  UNL1        0.1284
     17 F           8.9063    2.3485   -1.3187 F       1  UNL1       -0.2428
     18 C           7.9662    0.1385   -1.2527 C.3     1  UNL1       -0.0007
     19 N           3.2639   -0.6026   -0.2964 N.ar    1  UNL1       -0.2145
     20 C           0.3768   -0.2227   -1.1372 C.ar    1  UNL1        0.0145
     21 N          -0.9673   -0.2357   -1.1905 N.ar    1  UNL1       -0.3424
     22 C          -1.7625    0.3447   -2.2694 C.3     1  UNL1        0.0249
     23 C          -3.0941   -0.3615   -2.4091 C.3     1  UNL1       -0.0191
     24 C          -4.1005    0.1533   -1.4113 C.3     1  UNL1        0.0173
     25 N          -3.9885   -0.6568   -0.2135 N.am    1  UNL1       -0.2870
     26 C          -5.2405   -0.9757    0.4614 C.3     1  UNL1        0.0745
     27 C          -6.1379   -1.8196   -0.3693 C.3     1  UNL1        0.0669
     28 O          -7.3017   -2.1263    0.3042 O.3     1  UNL1       -0.3928
     29 C          -5.8111    0.3154    0.8888 C.ar    1  UNL1       -0.0248
     30 C          -7.1002    0.7201    0.6858 C.ar    1  UNL1       -0.0567
     31 C          -7.5636    1.9656    1.1322 C.ar    1  UNL1       -0.0614
     32 C          -6.6908    2.7903    1.7881 C.ar    1  UNL1       -0.0617
     33 C          -5.3866    2.4121    2.0080 C.ar    1  UNL1       -0.0614
     34 C          -4.9586    1.1846    1.5594 C.ar    1  UNL1       -0.0567
     35 H          -0.2819   -1.7978    1.6311 H       1  UNL1        0.0647
     36 H           1.6683   -2.0677    2.2226 H       1  UNL1        0.0654
     37 H           3.9778   -2.4155    2.9734 H       1  UNL1        0.0831
     38 H           5.4608    0.1688   -1.5681 H       1  UNL1        0.1492
     39 H           7.2762   -1.5502   -0.0935 H       1  UNL1        0.0500
     40 H           8.1750   -0.0749    1.5197 H       1  UNL1        0.0309
     41 H           6.3769    0.2394    1.6335 H       1  UNL1        0.0309
     42 H           8.3560    2.1290    1.0936 H       1  UNL1        0.0622
     43 H           6.0919    2.9747   -0.0611 H       1  UNL1        0.2099
     44 H           6.8925    1.9340   -1.5632 H       1  UNL1        0.0678
     45 H           7.7638   -0.1146   -2.2966 H       1  UNL1        0.0312
     46 H           8.9906   -0.1337   -0.9362 H       1  UNL1        0.0312
     47 H           1.0448    0.2184   -1.8849 H       1  UNL1        0.0816
     48 H          -1.9144    1.4332   -2.1184 H       1  UNL1        0.0492
     49 H          -1.2399    0.2419   -3.2523 H       1  UNL1        0.0492
     50 H          -3.4513   -0.2079   -3.4469 H       1  UNL1        0.0298
     51 H          -2.9089   -1.4480   -2.2837 H       1  UNL1        0.0298
     52 H          -5.1212    0.1898   -1.8107 H       1  UNL1        0.0465
     53 H          -3.7765    1.1905   -1.1271 H       1  UNL1        0.0465
     54 H          -4.9473   -1.6008    1.3532 H       1  UNL1        0.0573
     55 H          -6.4035   -1.3657   -1.3466 H       1  UNL1        0.0579
     56 H          -5.6258   -2.7721   -0.5962 H       1  UNL1        0.0579
     57 H          -7.5975   -3.0247    0.0759 H       1  UNL1        0.2095
     58 H          -7.7884    0.0921    0.1734 H       1  UNL1        0.0621
     59 H          -8.5765    2.2828    0.9725 H       1  UNL1        0.0618
     60 H          -7.0187    3.7637    2.1474 H       1  UNL1        0.0618
     61 H          -4.7379    3.0933    2.5276 H       1  UNL1        0.0618
     62 H          -3.9243    0.8984    1.7403 H       1  UNL1        0.0621
@<TRIPOS>BOND
     1     1     2    2
     2     2     3    1
     3     3     4   ar
     4     4     5   ar
     5     5     6    1
     6     6     7   ar
     7     7     8   ar
     8     8     9   ar
     9     9    10   ar
    10    10    11    1
    11    11    12    1
    12    12    13    1
    13    13    14    1
    14    14    15    1
    15    14    16    1
    16    16    17    1
    17    16    18    1
    18    10    19   ar
    19     5    20   ar
    20    20    21   ar
    21    21    22    1
    22    22    23    1
    23    23    24    1
    24    24    25    1
    25    25    26    1
    26    26    27    1
    27    27    28    1
    28    26    29    1
    29    29    30   ar
    30    30    31   ar
    31    31    32   ar
    32    32    33   ar
    33    33    34   ar
    34    25     2   am
    35    34    29   ar
    36    21     3   ar
    37    19     6   ar
    38    18    12    1
    39     4    35    1
    40     7    36    1
    41     8    37    1
    42    11    38    1
    43    12    39    1
    44    13    40    1
    45    13    41    1
    46    14    42    1
    47    15    43    1
    48    16    44    1
    49    18    45    1
    50    18    46    1
    51    20    47    1
    52    22    48    1
    53    22    49    1
    54    23    50    1
    55    23    51    1
    56    24    52    1
    57    24    53    1
    58    26    54    1
    59    27    55    1
    60    27    56    1
    61    28    57    1
    62    30    58    1
    63    31    59    1
    64    32    60    1
    65    33    61    1
    66    34    62    1
