
     RDKit          3D

 30 32  0  0  0  0  0  0  0  0999 V2000
    1.4781   -2.9239    0.5851 O   0  0  0  0  0  0  0  0  0  0  0  0
    1.0708   -1.7677    0.3163 C   0  0  0  0  0  0  0  0  0  0  0  0
   -0.2850   -1.4976    0.1062 C   0  0  0  0  0  0  0  0  0  0  0  0
   -1.1294   -2.5862    0.2158 O   0  0  0  0  0  0  0  0  0  0  0  0
   -0.7464   -0.2463   -0.1870 C   0  0  0  0  0  0  0  0  0  0  0  0
   -2.1649    0.0652   -0.4124 C   0  0  0  0  0  0  0  0  0  0  0  0
   -3.2054   -0.7828   -0.3717 C   0  0  0  0  0  0  0  0  0  0  0  0
   -4.5149   -0.3425   -0.6090 C   0  0  0  0  0  0  0  0  0  0  0  0
   -4.7907    0.9742   -0.8931 C   0  0  0  0  0  0  0  0  0  0  0  0
   -3.7407    1.8471   -0.9374 C   0  0  0  0  0  0  0  0  0  0  0  0
   -2.4724    1.4033   -0.7043 C   0  0  0  0  0  0  0  0  0  0  0  0
    0.1424    0.7442   -0.2726 O   0  0  0  0  0  0  0  0  0  0  0  0
    1.4129    0.5562   -0.0882 C   0  0  0  0  0  0  0  0  0  0  0  0
    2.3269    1.6129   -0.1836 C   0  0  0  0  0  0  0  0  0  0  0  0
    3.6735    1.4128    0.0120 C   0  0  0  0  0  0  0  0  0  0  0  0
    4.5940    2.4651   -0.0817 O   0  0  0  0  0  0  0  0  0  0  0  0
    4.1236    0.1464    0.3069 C   0  0  0  0  0  0  0  0  0  0  0  0
    3.2624   -0.9237    0.4109 C   0  0  0  0  0  0  0  0  0  0  0  0
    3.6770   -2.2055    0.7046 O   0  0  0  0  0  0  0  0  0  0  0  0
    1.9253   -0.6969    0.2113 C   0  0  0  0  0  0  0  0  0  0  0  0
   -0.9744   -3.2560    0.9571 H   0  0  0  0  0  0  0  0  0  0  0  0
   -3.0426   -1.8133   -0.1556 H   0  0  0  0  0  0  0  0  0  0  0  0
   -5.3409   -1.0372   -0.5726 H   0  0  0  0  0  0  0  0  0  0  0  0
   -5.8160    1.3065   -1.0765 H   0  0  0  0  0  0  0  0  0  0  0  0
   -3.9524    2.8819   -1.1601 H   0  0  0  0  0  0  0  0  0  0  0  0
   -1.6896    2.1446   -0.7546 H   0  0  0  0  0  0  0  0  0  0  0  0
    1.9503    2.6173   -0.4197 H   0  0  0  0  0  0  0  0  0  0  0  0
    5.3957    2.4117    0.5517 H   0  0  0  0  0  0  0  0  0  0  0  0
    5.1895   -0.0399    0.4671 H   0  0  0  0  0  0  0  0  0  0  0  0
    3.6435   -2.4699    1.6996 H   0  0  0  0  0  0  0  0  0  0  0  0
  1  2  2  0
  2  3  1  0
  3  4  1  0
  3  5  2  0
  5  6  1  0
  6  7  2  0
  7  8  1  0
  8  9  2  0
  9 10  1  0
 10 11  2  0
  5 12  1  0
 12 13  1  0
 13 14  2  0
 14 15  1  0
 15 16  1  0
 15 17  2  0
 17 18  1  0
 18 19  1  0
 18 20  2  0
 20  2  1  0
 11  6  1  0
 20 13  1  0
  4 21  1  0
  7 22  1  0
  8 23  1  0
  9 24  1  0
 10 25  1  0
 11 26  1  0
 14 27  1  0
 16 28  1  0
 17 29  1  0
 19 30  1  0
M  END
$$$$
