@<TRIPOS>MOLECULE
*****
 30 32 0 0 0
SMALL
GASTEIGER

@<TRIPOS>ATOM
      1 O           1.4781   -2.9239    0.5851 O.2     1  UNL1       -0.2830
      2 C           1.0708   -1.7677    0.3163 C.ar    1  UNL1        0.2379
      3 C          -0.2850   -1.4976    0.1062 C.ar    1  UNL1        0.2082
      4 O          -1.1294   -2.5862    0.2158 O.3     1  UNL1       -0.5007
      5 C          -0.7464   -0.2463   -0.1870 C.ar    1  UNL1        0.1806
      6 C          -2.1649    0.0652   -0.4124 C.ar    1  UNL1        0.0211
      7 C          -3.2054   -0.7828   -0.3717 C.ar    1  UNL1       -0.0510
      8 C          -4.5149   -0.3425   -0.6090 C.ar    1  UNL1       -0.0611
      9 C          -4.7907    0.9742   -0.8931 C.ar    1  UNL1       -0.0617
     10 C          -3.7407    1.8471   -0.9374 C.ar    1  UNL1       -0.0611
     11 C          -2.4724    1.4033   -0.7043 C.ar    1  UNL1       -0.0510
     12 O           0.1424    0.7442   -0.2726 O.2     1  UNL1       -0.4507
     13 C           1.4129    0.5562   -0.0882 C.ar    1  UNL1        0.1465
     14 C           2.3269    1.6129   -0.1836 C.ar    1  UNL1        0.0231
     15 C           3.6735    1.4128    0.0120 C.ar    1  UNL1        0.1239
     16 O           4.5940    2.4651   -0.0817 O.3     1  UNL1       -0.5065
     17 C           4.1236    0.1464    0.3069 C.ar    1  UNL1        0.0223
     18 C           3.2624   -0.9237    0.4109 C.ar    1  UNL1        0.1348
     19 O           3.6770   -2.2055    0.7046 O.3     1  UNL1       -0.5058
     20 C           1.9253   -0.6969    0.2113 C.ar    1  UNL1        0.1092
     21 H          -0.9744   -3.2560    0.9571 H       1  UNL1        0.2924
     22 H          -3.0426   -1.8133   -0.1556 H       1  UNL1        0.0625
     23 H          -5.3409   -1.0372   -0.5726 H       1  UNL1        0.0618
     24 H          -5.8160    1.3065   -1.0765 H       1  UNL1        0.0618
     25 H          -3.9524    2.8819   -1.1601 H       1  UNL1        0.0618
     26 H          -1.6896    2.1446   -0.7546 H       1  UNL1        0.0625
     27 H           1.9503    2.6173   -0.4197 H       1  UNL1        0.0691
     28 H           5.3957    2.4117    0.5517 H       1  UNL1        0.2921
     29 H           5.1895   -0.0399    0.4671 H       1  UNL1        0.0691
     30 H           3.6435   -2.4699    1.6996 H       1  UNL1        0.2922
@<TRIPOS>BOND
     1     1     2    2
     2     2     3   ar
     3     3     4    1
     4     3     5   ar
     5     5     6    1
     6     6     7   ar
     7     7     8   ar
     8     8     9   ar
     9     9    10   ar
    10    10    11   ar
    11     5    12   ar
    12    12    13   ar
    13    13    14   ar
    14    14    15   ar
    15    15    16    1
    16    15    17   ar
    17    17    18   ar
    18    18    19    1
    19    18    20   ar
    20    20     2   ar
    21    11     6   ar
    22    20    13   ar
    23     4    21    1
    24     7    22    1
    25     8    23    1
    26     9    24    1
    27    10    25    1
    28    11    26    1
    29    14    27    1
    30    16    28    1
    31    17    29    1
    32    19    30    1
