@<TRIPOS>MOLECULE
*****
 51 53 0 0 0
SMALL
GASTEIGER

@<TRIPOS>ATOM
      1 N          10.2336   -0.5775    1.7556 N.pl3   0  UNK0       -0.3289
      2 C           8.9586    0.0156    1.4541 C.ar    0  UNK0        0.1953
      3 N           8.4869    1.2005    1.9076 N.ar    0  UNK0       -0.1756
      4 C           7.2703    1.6007    1.5231 C.ar    0  UNK0        0.3021
      5 O           6.8576    2.7088    1.9616 O.2     0  UNK0       -0.2633
      6 C           6.4798    0.8551    0.6847 C.ar    0  UNK0        0.1725
      7 N           5.2532    1.2564    0.2956 N.ar    0  UNK0       -0.2400
      8 C           4.5084    0.4949   -0.5288 C.ar    0  UNK0        0.0773
      9 C           3.1600    0.8368   -1.0146 C.3     0  UNK0        0.0530
     10 N           2.1114    0.3441   -0.1350 N.pl3   0  UNK0       -0.3382
     11 C           0.7160    0.5277   -0.3559 C.ar    0  UNK0        0.0275
     12 C          -0.2286    0.0379    0.5128 C.ar    0  UNK0       -0.0401
     13 C          -1.5758    0.2241    0.2848 C.ar    0  UNK0       -0.0479
     14 C          -2.0287    0.9010   -0.8104 C.ar    0  UNK0        0.0368
     15 C          -1.0869    1.3881   -1.6746 C.ar    0  UNK0       -0.0479
     16 C           0.2751    1.2174   -1.4730 C.ar    0  UNK0       -0.0401
     17 C          -3.4296    1.1198   -1.0894 C.2     0  UNK0        0.2447
     18 O          -3.8633    1.7372   -2.0873 O.2     0  UNK0       -0.2702
     19 N          -4.4671    0.6416   -0.2342 N.am    1  GLU1       -0.2983
     20 CA         -5.8811    0.8140   -0.4355 C.3     1  GLU1        0.1209
     21 CB         -6.5844   -0.4970   -0.7180 C.3     1  GLU1       -0.0140
     22 CG         -6.4446   -1.5060    0.3990 C.3     1  GLU1        0.0470
     23 CD         -7.1677   -2.7807    0.0461 C.2     1  GLU1        0.3048
     24 OE1        -7.9135   -3.7107   -0.6394 O.3     1  GLU1       -0.4806
     25 OE2        -7.0484   -3.6313    0.9907 O.2     1  GLU1       -0.2510
     26 C          -6.5444    1.5952    0.6155 C.2     1  GLU1        0.3253
     27 O          -7.1388    2.3366    1.6252 O.3     1  GLU1       -0.4793
     28 OXT        -7.7824    1.6622    0.3018 O.2     1  GLU1       -0.2489
     29 C           4.9968   -0.7099   -0.9855 C.ar    0  UNK0        0.0528
     30 N           6.2221   -1.1330   -0.6098 N.ar    0  UNK0       -0.2339
     31 C           6.9700   -0.3558    0.2254 C.ar    0  UNK0        0.1644
     32 N           8.1996   -0.7294    0.6321 N.ar    0  UNK0       -0.3109
     33 H          11.1563   -0.2178    1.3920 H       0  UNK0        0.1451
     34 H          10.3724   -1.4090    2.3541 H       0  UNK0        0.1451
     35 H           3.0924    1.9612   -1.0293 H       0  UNK0        0.0527
     36 H           2.9812    0.5059   -2.0512 H       0  UNK0        0.0527
     37 H           2.4109   -0.1828    0.7205 H       0  UNK0        0.1465
     38 H           0.1117   -0.5083    1.3982 H       0  UNK0        0.0636
     39 H          -2.2515   -0.1824    0.9993 H       0  UNK0        0.0626
     40 H          -1.4303    1.9330   -2.5575 H       0  UNK0        0.0626
     41 H           0.9518    1.6367   -2.2088 H       0  UNK0        0.0636
     42 H          -4.2379    0.1088    0.6357 H       1  GLU1        0.1498
     43 HA         -5.9799    1.3919   -1.3879 H       1  GLU1        0.0614
     44 HB1        -6.2222   -0.8780   -1.6804 H       1  GLU1        0.0294
     45 HB2        -7.6711   -0.3034   -0.8266 H       1  GLU1        0.0294
     46 HG1        -5.3737   -1.7898    0.4652 H       1  GLU1        0.0378
     47 HG2        -6.8973   -1.1736    1.3331 H       1  GLU1        0.0378
     48 HE1        -8.9161   -3.5608   -0.6627 H       1  GLU1        0.2951
     49 H          -6.6187    3.0782    2.0921 H       1  GLU1        0.2951
     50 H           4.4999   -1.4157   -1.6511 H       0  UNK0        0.0849
     51 H           8.5078   -1.6657    0.2410 H       0  UNK0        0.1701
@<TRIPOS>BOND
     1     1     2    1
     2     2     3   ar
     3     3     4   ar
     4     4     5    2
     5     4     6   ar
     6     6     7   ar
     7     7     8   ar
     8     8     9    1
     9     9    10    1
    10    10    11    1
    11    11    12   ar
    12    12    13   ar
    13    13    14   ar
    14    14    15   ar
    15    15    16   ar
    16    14    17    1
    17    17    18    2
    18    17    19   am
    19    19    20    1
    20    20    21    1
    21    21    22    1
    22    22    23    1
    23    23    24    1
    24    23    25    2
    25    20    26    1
    26    26    27    1
    27    26    28    2
    28     8    29   ar
    29    29    30   ar
    30    30    31   ar
    31    31    32   ar
    32    32     2   ar
    33    31     6   ar
    34    16    11   ar
    35     1    33    1
    36     1    34    1
    37     9    35    1
    38     9    36    1
    39    10    37    1
    40    12    38    1
    41    13    39    1
    42    15    40    1
    43    16    41    1
    44    19    42    1
    45    20    43    1
    46    21    44    1
    47    21    45    1
    48    22    46    1
    49    22    47    1
    50    24    48    1
    51    27    49    1
    52    29    50    1
    53    32    51    1
