@<TRIPOS>MOLECULE
*****
 62 67 0 0 0
SMALL
GASTEIGER

@<TRIPOS>ATOM
      1 O           3.8048    1.8742    1.1920 O.2     1  UNL1       -0.2702
      2 C           4.0437    0.8108    0.5661 C.2     1  UNL1        0.2443
      3 N           5.3785    0.4719    0.3140 N.am    1  UNL1       -0.3085
      4 C           6.4602    1.3282    0.7649 C.3     1  UNL1        0.0236
      5 C           7.3837    0.6310    1.7219 C.3     1  UNL1       -0.0322
      6 C           8.3812   -0.2655    1.0655 C.3     1  UNL1       -0.0252
      7 C           9.1350    0.4250   -0.0513 C.3     1  UNL1        0.0554
      8 O           9.7673    1.5544    0.4357 O.3     1  UNL1       -0.3918
      9 C           8.1006    0.8644   -1.0787 C.3     1  UNL1       -0.0252
     10 C           7.2354    1.8991   -0.4041 C.3     1  UNL1       -0.0322
     11 C           2.9112   -0.0179    0.1336 C.ar    1  UNL1        0.0370
     12 C           3.0755   -1.1892   -0.5476 C.ar    1  UNL1       -0.0490
     13 C           1.9697   -1.9261   -0.9288 C.ar    1  UNL1       -0.0516
     14 C           0.6741   -1.5368   -0.6537 C.ar    1  UNL1        0.0036
     15 C           0.5093   -0.3533    0.0346 C.ar    1  UNL1       -0.0331
     16 C           1.6071    0.3835    0.4160 C.ar    1  UNL1       -0.0455
     17 C          -0.9582   -0.1226    0.2250 C.3     1  UNL1        0.0023
     18 C          -1.5609   -1.2973   -0.4285 C.ar    1  UNL1        0.0099
     19 C          -2.8080   -1.8410   -0.6932 C.ar    1  UNL1        0.0966
     20 C          -4.1151   -1.3049   -0.3332 C.ar    1  UNL1        0.0024
     21 C          -5.1174   -1.3055   -1.2795 C.ar    1  UNL1       -0.0519
     22 C          -6.3523   -0.8071   -0.9640 C.ar    1  UNL1       -0.0534
     23 C          -6.5815   -0.3070    0.3042 C.ar    1  UNL1       -0.0178
     24 C          -7.8831    0.2143    0.6262 C.ar    1  UNL1       -0.0177
     25 C          -8.3814    0.1323    1.9042 C.ar    1  UNL1       -0.0506
     26 C          -9.6336    0.6263    2.2433 C.ar    1  UNL1       -0.0196
     27 C         -10.3973    1.2131    1.2780 C.ar    1  UNL1        0.1169
     28 O         -11.6681    1.7227    1.5880 O.3     1  UNL1       -0.5068
     29 C          -9.9118    1.3026   -0.0072 C.ar    1  UNL1       -0.0196
     30 C          -8.6682    0.8088   -0.3306 C.ar    1  UNL1       -0.0506
     31 C          -5.5919   -0.3028    1.2490 C.ar    1  UNL1       -0.0534
     32 C          -4.3276   -0.8116    0.9305 C.ar    1  UNL1       -0.0519
     33 N          -2.5659   -2.9914   -1.3654 N.ar    1  UNL1       -0.1730
     34 N          -1.2698   -3.1762   -1.5225 N.ar    1  UNL1       -0.2761
     35 C          -0.6280   -2.1406   -0.9508 C.ar    1  UNL1        0.0701
     36 H           5.6258   -0.4184   -0.2123 H       1  UNL1        0.1493
     37 H           6.0153    2.1958    1.2919 H       1  UNL1        0.0498
     38 H           7.9174    1.4006    2.3328 H       1  UNL1        0.0284
     39 H           6.7949    0.0218    2.4374 H       1  UNL1        0.0284
     40 H           7.9396   -1.2117    0.7130 H       1  UNL1        0.0291
     41 H           9.1296   -0.5534    1.8480 H       1  UNL1        0.0291
     42 H           9.8597   -0.2865   -0.4810 H       1  UNL1        0.0593
     43 H           9.9758    2.1336   -0.3633 H       1  UNL1        0.2098
     44 H           8.5532    1.3227   -1.9652 H       1  UNL1        0.0291
     45 H           7.4374    0.0079   -1.3345 H       1  UNL1        0.0291
     46 H           6.5557    2.3179   -1.1515 H       1  UNL1        0.0284
     47 H           7.8429    2.7559   -0.0136 H       1  UNL1        0.0284
     48 H           4.0674   -1.5585   -0.7990 H       1  UNL1        0.0625
     49 H           2.0777   -2.8616   -1.4720 H       1  UNL1        0.0624
     50 H           1.4800    1.3128    0.9564 H       1  UNL1        0.0628
     51 H          -1.2790    0.8207   -0.2331 H       1  UNL1        0.0363
     52 H          -1.1844   -0.1005    1.3279 H       1  UNL1        0.0363
     53 H          -4.9343   -1.6976   -2.2704 H       1  UNL1        0.0624
     54 H          -7.1326   -0.8117   -1.7126 H       1  UNL1        0.0624
     55 H          -7.7930   -0.3251    2.6696 H       1  UNL1        0.0625
     56 H          -9.9973    0.5466    3.2576 H       1  UNL1        0.0654
     57 H         -12.0251    2.5058    1.0481 H       1  UNL1        0.2921
     58 H         -10.5054    1.7607   -0.7675 H       1  UNL1        0.0654
     59 H          -8.2911    0.8798   -1.3335 H       1  UNL1        0.0625
     60 H          -5.7788    0.0855    2.2246 H       1  UNL1        0.0624
     61 H          -3.5565   -0.8101    1.6618 H       1  UNL1        0.0624
     62 H          -0.8120   -3.9988   -2.0143 H       1  UNL1        0.1889
@<TRIPOS>BOND
     1     1     2    2
     2     2     3   am
     3     3     4    1
     4     4     5    1
     5     5     6    1
     6     6     7    1
     7     7     8    1
     8     7     9    1
     9     9    10    1
    10     2    11    1
    11    11    12   ar
    12    12    13   ar
    13    13    14   ar
    14    14    15   ar
    15    15    16   ar
    16    15    17    1
    17    17    18    1
    18    18    19   ar
    19    19    20    1
    20    20    21   ar
    21    21    22   ar
    22    22    23   ar
    23    23    24    1
    24    24    25   ar
    25    25    26   ar
    26    26    27   ar
    27    27    28    1
    28    27    29   ar
    29    29    30   ar
    30    23    31   ar
    31    31    32   ar
    32    19    33   ar
    33    33    34   ar
    34    34    35   ar
    35    10     4    1
    36    16    11   ar
    37    35    18   ar
    38    35    14    1
    39    32    20   ar
    40    30    24   ar
    41     3    36    1
    42     4    37    1
    43     5    38    1
    44     5    39    1
    45     6    40    1
    46     6    41    1
    47     7    42    1
    48     8    43    1
    49     9    44    1
    50     9    45    1
    51    10    46    1
    52    10    47    1
    53    12    48    1
    54    13    49    1
    55    16    50    1
    56    17    51    1
    57    17    52    1
    58    21    53    1
    59    22    54    1
    60    25    55    1
    61    26    56    1
    62    28    57    1
    63    29    58    1
    64    30    59    1
    65    31    60    1
    66    32    61    1
    67    34    62    1
