@<TRIPOS>MOLECULE
*****
 34 36 0 0 0
SMALL
GASTEIGER

@<TRIPOS>ATOM
      1 O          -0.5870   -1.3670   -1.6582 O.3     1  UNL1       -0.3802
      2 C          -0.2411   -0.5190   -0.5890 C.3     1  UNL1        0.1323
      3 C           0.9930    0.2297   -0.9732 C.3     1  UNL1        0.0780
      4 N           1.4499    1.1476    0.0293 N.ar    1  UNL1       -0.2489
      5 C           1.0767    2.4285    0.1243 C.ar    1  UNL1        0.1144
      6 N           1.6826    3.0067    1.1644 N.ar    1  UNL1       -0.2228
      7 C           2.4526    2.0715    1.7356 C.ar    1  UNL1        0.1379
      8 N           2.2918    0.9466    1.0230 N.ar    1  UNL1       -0.1583
      9 C           0.1075   -1.3963    0.6109 C.3     1  UNL1        0.0780
     10 N           1.2106   -2.2820    0.3076 N.ar    1  UNL1       -0.2489
     11 C           1.0075   -3.5204   -0.2139 C.ar    1  UNL1        0.1144
     12 N           2.1917   -4.1242   -0.3945 N.ar    1  UNL1       -0.2228
     13 C           3.1292   -3.2590    0.0155 C.ar    1  UNL1        0.1379
     14 N           2.4971   -2.1591    0.4320 N.ar    1  UNL1       -0.1583
     15 C          -1.3892    0.3498   -0.2983 C.ar    1  UNL1        0.0228
     16 C          -1.9917    0.3339    0.9596 C.ar    1  UNL1       -0.0503
     17 C          -3.0681    1.1468    1.2439 C.ar    1  UNL1       -0.0259
     18 C          -3.5226    1.9732    0.2369 C.ar    1  UNL1        0.1261
     19 F          -4.5826    2.7759    0.5124 F       1  UNL1       -0.2054
     20 C          -2.9325    1.9949   -1.0090 C.ar    1  UNL1        0.0092
     21 C          -1.8552    1.1810   -1.2934 C.ar    1  UNL1        0.1321
     22 F          -1.2625    1.1935   -2.5302 F       1  UNL1       -0.2050
     23 H          -0.3182   -0.8988   -2.5016 H       1  UNL1        0.2108
     24 H           1.8507   -0.4833   -1.1615 H       1  UNL1        0.0542
     25 H           0.9038    0.7805   -1.9406 H       1  UNL1        0.0542
     26 H           0.3868    2.9076   -0.5488 H       1  UNL1        0.1044
     27 H           3.0787    2.2379    2.6166 H       1  UNL1        0.1065
     28 H          -0.7688   -1.9876    0.9409 H       1  UNL1        0.0542
     29 H           0.3939   -0.7463    1.4606 H       1  UNL1        0.0542
     30 H           0.0692   -3.9873   -0.4599 H       1  UNL1        0.1044
     31 H           4.2168   -3.4523   -0.0017 H       1  UNL1        0.1065
     32 H          -1.6238   -0.3202    1.7406 H       1  UNL1        0.0623
     33 H          -3.5484    1.1425    2.2270 H       1  UNL1        0.0646
     34 H          -3.2983    2.6549   -1.8074 H       1  UNL1        0.0675
@<TRIPOS>BOND
     1     1     2    1
     2     2     3    1
     3     3     4    1
     4     4     5   ar
     5     5     6   ar
     6     6     7   ar
     7     7     8   ar
     8     2     9    1
     9     9    10    1
    10    10    11   ar
    11    11    12   ar
    12    12    13   ar
    13    13    14   ar
    14     2    15    1
    15    15    16   ar
    16    16    17   ar
    17    17    18   ar
    18    18    19    1
    19    18    20   ar
    20    20    21   ar
    21    21    22    1
    22     8     4   ar
    23    14    10   ar
    24    21    15   ar
    25     1    23    1
    26     3    24    1
    27     3    25    1
    28     5    26    1
    29     7    27    1
    30     9    28    1
    31     9    29    1
    32    11    30    1
    33    13    31    1
    34    16    32    1
    35    17    33    1
    36    20    34    1
