@<TRIPOS>MOLECULE
*****
 97 102 0 0 0
SMALL
GASTEIGER

@<TRIPOS>ATOM
      1 C          -1.0707    2.4930    1.1989 C.3     1  UNL1        0.1073
      2 O          -0.2888    3.5072    1.8230 O.3     1  UNL1       -0.3868
      3 C          -0.3213    2.0240   -0.0473 C.3     1  UNL1        0.0875
      4 O           0.9228    1.5543    0.4018 O.3     1  UNL1       -0.2837
      5 P           1.9138    1.0437   -0.8710 P.3     1  UNL1        0.4835
      6 O           1.5208    1.9184   -2.2828 O.3     1  UNL1       -0.3022
      7 O           1.7249   -0.4126   -1.1833 O.2     1  UNL1       -0.2269
      8 O           3.4988    1.4277   -0.4279 O.3     1  UNL1       -0.1861
      9 P           4.5979    1.3168   -1.6765 P.3     1  UNL1        0.4835
     10 O           5.0644    2.9171   -2.0681 O.3     1  UNL1       -0.3022
     11 O           4.0331    0.7148   -2.9425 O.2     1  UNL1       -0.2269
     12 O           6.0373    0.5479   -1.1887 O.3     1  UNL1       -0.2837
     13 C           6.1028   -0.7689   -1.5680 C.3     1  UNL1        0.0879
     14 C           7.3613   -1.4604   -1.1016 C.3     1  UNL1        0.1155
     15 O           8.5283   -0.9043   -1.5706 O.3     1  UNL1       -0.3277
     16 C           9.5106   -1.4888   -0.8008 C.3     1  UNL1        0.2352
     17 N          10.6935   -0.6399   -0.6444 N.2     1  UNL1       -0.1816
     18 C          11.0480    0.5100   -1.1129 C.2     1  UNL1        0.1878
     19 N          12.3498    0.8973   -0.6261 N.2     1  UNL1       -0.1997
     20 C          12.7871   -0.0389    0.1512 C.2     1  UNL1        0.2566
     21 C          11.7644   -1.0936    0.2007 C.2     1  UNL1        0.3669
     22 N          12.0280   -2.1260    0.9385 N.2     1  UNL1        0.0019
     23 C          13.2463   -2.2331    1.6644 C.2     1  UNL1        0.3390
     24 N          14.1897   -1.3273    1.6575 N.2     1  UNL1        0.0051
     25 C          14.0362   -0.1402    0.8905 C.2     1  UNL1        0.3960
     26 N          14.9703    0.7468    0.8897 N.2     1  UNL1       -0.0924
     27 C           8.9377   -1.6527    0.5916 C.3     1  UNL1        0.1497
     28 O           8.8266   -3.0336    0.8588 O.3     1  UNL1       -0.3823
     29 C           7.5133   -1.1661    0.3979 C.3     1  UNL1        0.1158
     30 O           6.5897   -1.8661    1.1538 O.3     1  UNL1       -0.3863
     31 C          -2.3639    3.1247    0.7811 C.3     1  UNL1        0.1104
     32 O          -2.1342    4.1549   -0.1270 O.3     1  UNL1       -0.3865
     33 C          -3.3943    2.1933    0.2204 C.3     1  UNL1        0.0995
     34 O          -3.0122    1.6421   -1.0077 O.3     1  UNL1       -0.3876
     35 C          -3.6613    1.1086    1.2257 C.3     1  UNL1        0.0472
     36 N          -4.7247    0.2058    0.8657 N.pl3   1  UNL1       -0.2794
     37 C          -6.0775    0.6114    0.9594 C.ar    1  UNL1        0.0574
     38 C          -7.0703   -0.2536    0.5645 C.ar    1  UNL1        0.0630
     39 C          -8.3386    0.2467    0.7204 C.ar    1  UNL1       -0.0349
     40 C          -8.6827    1.4845    1.2159 C.ar    1  UNL1       -0.0457
     41 C         -10.1007    1.9306    1.3433 C.3     1  UNL1       -0.0394
     42 C          -7.6492    2.3106    1.5971 C.ar    1  UNL1       -0.0457
     43 C          -8.0052    3.6606    2.1378 C.3     1  UNL1       -0.0394
     44 C          -6.3396    1.8650    1.4658 C.ar    1  UNL1       -0.0353
     45 N          -6.7651   -1.5317    0.0711 N.am    1  UNL1       -0.2341
     46 C          -7.7746   -2.3958   -0.3439 C.2     1  UNL1        0.2269
     47 O          -8.0151   -3.5075   -0.7917 O.2     1  UNL1       -0.2746
     48 C          -9.1716   -2.7108   -0.5803 C.3     1  UNL1        0.0308
     49 C          -9.4506   -4.1591   -0.9335 C.3     1  UNL1       -0.0543
     50 C          -9.7963   -1.9170   -1.7389 C.3     1  UNL1       -0.0543
     51 C          -5.4306   -1.9419   -0.0232 C.ar    1  UNL1        0.0925
     52 C          -4.4138   -1.0999    0.3633 C.ar    1  UNL1        0.1539
     53 N          -3.1159   -1.4038    0.3100 N.ar    1  UNL1       -0.1779
     54 C          -2.7106   -2.5964   -0.1419 C.ar    1  UNL1        0.3167
     55 O          -1.3681   -2.9342   -0.2065 O.3     1  UNL1       -0.4784
     56 N          -3.6637   -3.4844   -0.5431 N.ar    1  UNL1       -0.2094
     57 C          -4.9484   -3.1364   -0.4717 C.ar    1  UNL1        0.0190
     58 O          -5.8224   -4.0899   -0.8950 O.co2   1  UNL1       -0.8587
     59 H          -1.1673    1.6851    1.9383 H       1  UNL1        0.0643
     60 H           0.5032    3.0637    2.2174 H       1  UNL1        0.2100
     61 H          -0.2601    2.7983   -0.8074 H       1  UNL1        0.0592
     62 H          -0.8668    1.1432   -0.4416 H       1  UNL1        0.0592
     63 H           1.7883    2.8824   -2.1986 H       1  UNL1        0.2220
     64 H           5.5623    3.3502   -1.3309 H       1  UNL1        0.2220
     65 H           5.2653   -1.3051   -1.0514 H       1  UNL1        0.0592
     66 H           5.9363   -0.9210   -2.6495 H       1  UNL1        0.0592
     67 H           7.3014   -2.5344   -1.2694 H       1  UNL1        0.0647
     68 H           9.8678   -2.4584   -1.2319 H       1  UNL1        0.1144
     69 H          10.3894    1.0462   -1.7809 H       1  UNL1        0.1313
     70 H          13.4527   -3.0998    2.2759 H       1  UNL1        0.1668
     71 H          14.8923    1.6289    0.3401 H       1  UNL1        0.3637
     72 H           9.4906   -1.1096    1.3703 H       1  UNL1        0.0689
     73 H           8.8061   -3.5472    0.0167 H       1  UNL1        0.2102
     74 H           7.4745   -0.0656    0.5304 H       1  UNL1        0.0648
     75 H           6.1913   -1.2558    1.8173 H       1  UNL1        0.2100
     76 H          -2.7829    3.6296    1.6994 H       1  UNL1        0.0646
     77 H          -2.2594    3.8973   -1.0544 H       1  UNL1        0.2100
     78 H          -4.2827    2.8239   -0.0260 H       1  UNL1        0.0636
     79 H          -3.2340    2.2394   -1.7735 H       1  UNL1        0.2100
     80 H          -3.9198    1.5747    2.1959 H       1  UNL1        0.0494
     81 H          -2.7118    0.5249    1.3096 H       1  UNL1        0.0494
     82 H          -9.1403   -0.3738    0.4399 H       1  UNL1        0.0640
     83 H         -10.8070    1.1512    1.0372 H       1  UNL1        0.0278
     84 H         -10.1796    2.8762    0.7672 H       1  UNL1        0.0278
     85 H         -10.2908    2.1959    2.4144 H       1  UNL1        0.0278
     86 H          -8.1066    4.3772    1.2978 H       1  UNL1        0.0278
     87 H          -7.1229    4.0499    2.7260 H       1  UNL1        0.0278
     88 H          -8.8777    3.6299    2.8086 H       1  UNL1        0.0278
     89 H          -5.6431    2.5874    1.8081 H       1  UNL1        0.0639
     90 H          -9.7607   -2.5372    0.3742 H       1  UNL1        0.0389
     91 H          -9.0508   -4.3598   -1.9435 H       1  UNL1        0.0237
     92 H         -10.5767   -4.2694   -0.9447 H       1  UNL1        0.0237
     93 H          -8.9956   -4.8344   -0.2160 H       1  UNL1        0.0237
     94 H          -9.1909   -1.0198   -1.9807 H       1  UNL1        0.0237
     95 H         -10.8367   -1.6793   -1.4368 H       1  UNL1        0.0237
     96 H          -9.8550   -2.5338   -2.6551 H       1  UNL1        0.0237
     97 H          -1.1172   -3.8943   -0.4498 H       1  UNL1        0.2953
@<TRIPOS>UNITY_ATOM_ATTR
17 1
charge 1
58 1
charge -1
@<TRIPOS>BOND
     1     1     2    1
     2     1     3    1
     3     3     4    1
     4     4     5    1
     5     5     6    1
     6     5     7    2
     7     5     8    1
     8     8     9    1
     9     9    10    1
    10     9    11    2
    11     9    12    1
    12    12    13    1
    13    13    14    1
    14    14    15    1
    15    15    16    1
    16    16    17    1
    17    17    18    2
    18    18    19    1
    19    19    20    2
    20    20    21    1
    21    21    22    2
    22    22    23    1
    23    23    24    2
    24    24    25    1
    25    25    26    2
    26    16    27    1
    27    27    28    1
    28    27    29    1
    29    29    30    1
    30     1    31    1
    31    31    32    1
    32    31    33    1
    33    33    34    1
    34    33    35    1
    35    35    36    1
    36    36    37    1
    37    37    38   ar
    38    38    39   ar
    39    39    40   ar
    40    40    41    1
    41    40    42   ar
    42    42    43    1
    43    42    44   ar
    44    38    45    1
    45    45    46   am
    46    46    47    2
    47    46    48    1
    48    48    49    1
    49    48    50    1
    50    45    51    1
    51    51    52   ar
    52    52    53   ar
    53    53    54   ar
    54    54    55    1
    55    54    56   ar
    56    56    57   ar
    57    57    58    1
    58    29    14    1
    59    52    36    1
    60    21    17    1
    61    44    37   ar
    62    57    51   ar
    63    25    20    1
    64     1    59    1
    65     2    60    1
    66     3    61    1
    67     3    62    1
    68     6    63    1
    69    10    64    1
    70    13    65    1
    71    13    66    1
    72    14    67    1
    73    16    68    1
    74    18    69    1
    75    23    70    1
    76    26    71    1
    77    27    72    1
    78    28    73    1
    79    29    74    1
    80    30    75    1
    81    31    76    1
    82    32    77    1
    83    33    78    1
    84    34    79    1
    85    35    80    1
    86    35    81    1
    87    39    82    1
    88    41    83    1
    89    41    84    1
    90    41    85    1
    91    43    86    1
    92    43    87    1
    93    43    88    1
    94    44    89    1
    95    48    90    1
    96    49    91    1
    97    49    92    1
    98    49    93    1
    99    50    94    1
   100    50    95    1
   101    50    96    1
   102    55    97    1
