@<TRIPOS>MOLECULE
*****
 51 53 0 0 0
SMALL
GASTEIGER

@<TRIPOS>ATOM
      1 CA         -3.0321   -2.0278    0.3710 C.3     1  UNL1        0.0461
      2 C          -3.5846   -3.1889    1.1238 C.3     1  UNL1       -0.0352
      3 C          -4.6287   -3.9801    0.3962 C.3     1  UNL1       -0.0635
      4 C          -2.3614   -2.3260   -0.9206 C.3     1  UNL1        0.0626
      5 O          -3.1891   -2.9587   -1.8434 O.3     1  UNL1       -0.3932
      6 N          -2.0631   -1.3658    1.2536 N.pl3   1  UNL1       -0.3083
      7 C          -1.2680   -0.2775    0.7983 C.ar    1  UNL1        0.2205
      8 N          -1.6185    0.9851    0.4999 N.ar    1  UNL1       -0.1946
      9 C          -0.6706    1.8537    0.0993 C.ar    1  UNL1        0.1693
     10 C           0.6510    1.4482   -0.0033 C.ar    1  UNL1        0.1692
     11 N           1.2894    2.5676   -0.4222 N.ar    1  UNL1       -0.2287
     12 C           0.4277    3.5851   -0.5658 C.ar    1  UNL1        0.0986
     13 N          -0.7954    3.1450   -0.2424 N.ar    1  UNL1       -0.3122
     14 C          -2.0257    3.9100   -0.2591 C.3     1  UNL1        0.0317
     15 C          -1.7577    5.3468   -0.6266 C.3     1  UNL1       -0.0444
     16 C          -2.6546    3.7542    1.0941 C.3     1  UNL1       -0.0444
     17 C           1.0103    0.1343    0.3082 C.ar    1  UNL1        0.2480
     18 O           2.3639   -0.0675    0.1424 O.3     1  UNL1       -0.4700
     19 C           2.9504   -1.3189    0.4048 C.3     1  UNL1        0.1163
     20 C           4.4165   -1.2385    0.1376 C.ar    1  UNL1       -0.0103
     21 C           4.9341   -1.6061   -1.0936 C.ar    1  UNL1       -0.0554
     22 C           6.2846   -1.4950   -1.2959 C.ar    1  UNL1       -0.0614
     23 C           7.1545   -1.0343   -0.3316 C.ar    1  UNL1       -0.0617
     24 C           6.6321   -0.6649    0.9074 C.ar    1  UNL1       -0.0614
     25 C           5.2762   -0.7824    1.0931 C.ar    1  UNL1       -0.0554
     26 N           0.0151   -0.6693    0.6982 N.ar    1  UNL1       -0.1775
     27 HA         -3.8391   -1.2626    0.1756 H       1  UNL1        0.0521
     28 H          -4.0720   -2.7791    2.0293 H       1  UNL1        0.0281
     29 H          -2.7452   -3.8453    1.4406 H       1  UNL1        0.0281
     30 H          -4.9289   -4.8020    1.1110 H       1  UNL1        0.0230
     31 H          -4.2582   -4.5180   -0.4909 H       1  UNL1        0.0230
     32 H          -5.5403   -3.3949    0.2477 H       1  UNL1        0.0230
     33 H1         -2.1394   -1.3193   -1.3890 H       1  UNL1        0.0575
     34 H2         -1.3799   -2.8078   -0.8162 H       1  UNL1        0.0575
     35 H          -4.0688   -2.4948   -1.8102 H       1  UNL1        0.2095
     36 H          -1.8906   -1.6407    2.2632 H       1  UNL1        0.1493
     37 H           0.6810    4.5874   -0.8856 H       1  UNL1        0.1029
     38 H          -2.6932    3.4350   -1.0213 H       1  UNL1        0.0523
     39 H          -1.1400    5.8016    0.1729 H       1  UNL1        0.0249
     40 H          -2.7100    5.8889   -0.7555 H       1  UNL1        0.0249
     41 H          -1.1985    5.3530   -1.5852 H       1  UNL1        0.0249
     42 H          -3.5864    3.1540    1.0681 H       1  UNL1        0.0249
     43 H          -2.8939    4.7671    1.4770 H       1  UNL1        0.0249
     44 H          -1.9831    3.2869    1.8545 H       1  UNL1        0.0249
     45 H           2.7792   -1.5874    1.4796 H       1  UNL1        0.0748
     46 H           2.4598   -2.0810   -0.2376 H       1  UNL1        0.0748
     47 H           4.2790   -1.9741   -1.8737 H       1  UNL1        0.0621
     48 H           6.7584   -1.7630   -2.2316 H       1  UNL1        0.0618
     49 H           8.2141   -0.9475   -0.5008 H       1  UNL1        0.0618
     50 H           7.2579   -0.2932    1.7082 H       1  UNL1        0.0618
     51 H           4.8820   -0.4917    2.0595 H       1  UNL1        0.0621
@<TRIPOS>BOND
     1     1     2    1
     2     2     3    1
     3     1     4    1
     4     4     5    1
     5     1     6    1
     6     6     7    1
     7     7     8   ar
     8     8     9   ar
     9     9    10   ar
    10    10    11   ar
    11    11    12   ar
    12    12    13   ar
    13    13    14    1
    14    14    15    1
    15    14    16    1
    16    10    17   ar
    17    17    18    1
    18    18    19    1
    19    19    20    1
    20    20    21   ar
    21    21    22   ar
    22    22    23   ar
    23    23    24   ar
    24    24    25   ar
    25    17    26   ar
    26    26     7   ar
    27    13     9   ar
    28    25    20   ar
    29     1    27    1
    30     2    28    1
    31     2    29    1
    32     3    30    1
    33     3    31    1
    34     3    32    1
    35     4    33    1
    36     4    34    1
    37     5    35    1
    38     6    36    1
    39    12    37    1
    40    14    38    1
    41    15    39    1
    42    15    40    1
    43    15    41    1
    44    16    42    1
    45    16    43    1
    46    16    44    1
    47    19    45    1
    48    19    46    1
    49    21    47    1
    50    22    48    1
    51    23    49    1
    52    24    50    1
    53    25    51    1
