
     RDKit          3D

 51 53  0  0  0  0  0  0  0  0999 V2000
   -3.0321   -2.0278    0.3710 C   0  0  2  0  0  0  0  0  0  0  0  0
   -3.5846   -3.1889    1.1238 C   0  0  0  0  0  0  0  0  0  0  0  0
   -4.6287   -3.9801    0.3962 C   0  0  0  0  0  0  0  0  0  0  0  0
   -2.3614   -2.3260   -0.9206 C   0  0  0  0  0  0  0  0  0  0  0  0
   -3.1891   -2.9587   -1.8434 O   0  0  0  0  0  0  0  0  0  0  0  0
   -2.0631   -1.3658    1.2536 N   0  0  0  0  0  0  0  0  0  0  0  0
   -1.2680   -0.2775    0.7983 C   0  0  0  0  0  0  0  0  0  0  0  0
   -1.6185    0.9851    0.4999 N   0  0  0  0  0  0  0  0  0  0  0  0
   -0.6706    1.8537    0.0993 C   0  0  0  0  0  0  0  0  0  0  0  0
    0.6510    1.4482   -0.0033 C   0  0  0  0  0  0  0  0  0  0  0  0
    1.2894    2.5676   -0.4222 N   0  0  0  0  0  0  0  0  0  0  0  0
    0.4277    3.5851   -0.5658 C   0  0  0  0  0  0  0  0  0  0  0  0
   -0.7954    3.1450   -0.2424 N   0  0  0  0  0  0  0  0  0  0  0  0
   -2.0257    3.9100   -0.2591 C   0  0  0  0  0  0  0  0  0  0  0  0
   -1.7577    5.3468   -0.6266 C   0  0  0  0  0  0  0  0  0  0  0  0
   -2.6546    3.7542    1.0941 C   0  0  0  0  0  0  0  0  0  0  0  0
    1.0103    0.1343    0.3082 C   0  0  0  0  0  0  0  0  0  0  0  0
    2.3639   -0.0675    0.1424 O   0  0  0  0  0  0  0  0  0  0  0  0
    2.9504   -1.3189    0.4048 C   0  0  0  0  0  0  0  0  0  0  0  0
    4.4165   -1.2385    0.1376 C   0  0  0  0  0  0  0  0  0  0  0  0
    4.9341   -1.6061   -1.0936 C   0  0  0  0  0  0  0  0  0  0  0  0
    6.2846   -1.4950   -1.2959 C   0  0  0  0  0  0  0  0  0  0  0  0
    7.1545   -1.0343   -0.3316 C   0  0  0  0  0  0  0  0  0  0  0  0
    6.6321   -0.6649    0.9074 C   0  0  0  0  0  0  0  0  0  0  0  0
    5.2762   -0.7824    1.0931 C   0  0  0  0  0  0  0  0  0  0  0  0
    0.0151   -0.6693    0.6982 N   0  0  0  0  0  0  0  0  0  0  0  0
   -3.8391   -1.2626    0.1756 H   0  0  0  0  0  0  0  0  0  0  0  0
   -4.0720   -2.7791    2.0293 H   0  0  0  0  0  0  0  0  0  0  0  0
   -2.7452   -3.8453    1.4406 H   0  0  0  0  0  0  0  0  0  0  0  0
   -4.9289   -4.8020    1.1110 H   0  0  0  0  0  0  0  0  0  0  0  0
   -4.2582   -4.5180   -0.4909 H   0  0  0  0  0  0  0  0  0  0  0  0
   -5.5403   -3.3949    0.2477 H   0  0  0  0  0  0  0  0  0  0  0  0
   -2.1394   -1.3193   -1.3890 H   0  0  0  0  0  0  0  0  0  0  0  0
   -1.3799   -2.8078   -0.8162 H   0  0  0  0  0  0  0  0  0  0  0  0
   -4.0688   -2.4948   -1.8102 H   0  0  0  0  0  0  0  0  0  0  0  0
   -1.8906   -1.6407    2.2632 H   0  0  0  0  0  0  0  0  0  0  0  0
    0.6810    4.5874   -0.8856 H   0  0  0  0  0  0  0  0  0  0  0  0
   -2.6932    3.4350   -1.0213 H   0  0  0  0  0  0  0  0  0  0  0  0
   -1.1400    5.8016    0.1729 H   0  0  0  0  0  0  0  0  0  0  0  0
   -2.7100    5.8889   -0.7555 H   0  0  0  0  0  0  0  0  0  0  0  0
   -1.1985    5.3530   -1.5852 H   0  0  0  0  0  0  0  0  0  0  0  0
   -3.5864    3.1540    1.0681 H   0  0  0  0  0  0  0  0  0  0  0  0
   -2.8939    4.7671    1.4770 H   0  0  0  0  0  0  0  0  0  0  0  0
   -1.9831    3.2869    1.8545 H   0  0  0  0  0  0  0  0  0  0  0  0
    2.7792   -1.5874    1.4796 H   0  0  0  0  0  0  0  0  0  0  0  0
    2.4598   -2.0810   -0.2376 H   0  0  0  0  0  0  0  0  0  0  0  0
    4.2790   -1.9741   -1.8737 H   0  0  0  0  0  0  0  0  0  0  0  0
    6.7584   -1.7630   -2.2316 H   0  0  0  0  0  0  0  0  0  0  0  0
    8.2141   -0.9475   -0.5008 H   0  0  0  0  0  0  0  0  0  0  0  0
    7.2579   -0.2932    1.7082 H   0  0  0  0  0  0  0  0  0  0  0  0
    4.8820   -0.4917    2.0595 H   0  0  0  0  0  0  0  0  0  0  0  0
  1  2  1  0
  2  3  1  0
  1  4  1  0
  4  5  1  0
  1  6  1  0
  6  7  1  0
  7  8  2  0
  8  9  1  0
  9 10  2  0
 10 11  1  0
 11 12  2  0
 12 13  1  0
 13 14  1  0
 14 15  1  0
 14 16  1  0
 10 17  1  0
 17 18  1  0
 18 19  1  0
 19 20  1  0
 20 21  2  0
 21 22  1  0
 22 23  2  0
 23 24  1  0
 24 25  2  0
 17 26  2  0
 26  7  1  0
 13  9  1  0
 25 20  1  0
  1 27  1  6
  2 28  1  0
  2 29  1  0
  3 30  1  0
  3 31  1  0
  3 32  1  0
  4 33  1  0
  4 34  1  0
  5 35  1  0
  6 36  1  0
 12 37  1  0
 14 38  1  0
 15 39  1  0
 15 40  1  0
 15 41  1  0
 16 42  1  0
 16 43  1  0
 16 44  1  0
 19 45  1  0
 19 46  1  0
 21 47  1  0
 22 48  1  0
 23 49  1  0
 24 50  1  0
 25 51  1  0
M  END
$$$$
