@<TRIPOS>MOLECULE
*****
 51 55 0 0 0
SMALL
GASTEIGER

@<TRIPOS>ATOM
      1 C          -5.1219    2.7187    0.0192 C.3     1  UNL1       -0.0120
      2 N          -4.2106    1.6135    0.0578 N.3     1  UNL1       -0.2940
      3 C          -4.0304    1.0230   -1.2066 C.3     1  UNL1        0.0262
      4 C          -3.1822   -0.1890   -1.2790 C.ar    1  UNL1       -0.0081
      5 C          -3.2910   -0.8553   -2.4724 C.ar    1  UNL1       -0.0370
      6 C          -2.6017   -2.0339   -2.6894 C.ar    1  UNL1        0.0414
      7 CL         -2.7799   -2.8314   -4.2271 Cl      1  UNL1       -0.0835
      8 C          -1.7790   -2.5671   -1.6851 C.ar    1  UNL1       -0.0414
      9 C          -1.6471   -1.9233   -0.4716 C.ar    1  UNL1       -0.0361
     10 C          -2.3511   -0.7654   -0.3283 C.ar    1  UNL1        0.0539
     11 N          -2.1064   -0.1762    0.9547 N.ar    1  UNL1       -0.2814
     12 C          -3.0355    0.4921    1.7278 C.ar    1  UNL1        0.1521
     13 N          -2.4304    0.8232    2.8271 N.ar    1  UNL1       -0.1327
     14 N          -1.1852    0.3991    2.7663 N.ar    1  UNL1       -0.1337
     15 C          -0.9382   -0.2471    1.5716 C.ar    1  UNL1        0.1412
     16 C           0.3367   -0.7769    1.0853 C.3     1  UNL1        0.0223
     17 C           0.7786   -0.3545   -0.2747 C.3     1  UNL1       -0.0274
     18 C           2.0540    0.4995   -0.2997 C.3     1  UNL1        0.0141
     19 N           3.1189   -0.0848    0.4579 N.pl3   1  UNL1       -0.3151
     20 C           4.4467   -0.0275    0.0383 C.ar    1  UNL1        0.1212
     21 C           4.8666    0.6591   -1.0797 C.ar    1  UNL1       -0.0217
     22 C           6.2112    0.6617   -1.4288 C.ar    1  UNL1       -0.0571
     23 C           7.1452   -0.0149   -0.6730 C.ar    1  UNL1       -0.0435
     24 C           6.6940   -0.6899    0.4363 C.ar    1  UNL1        0.0297
     25 N           5.3890   -0.6819    0.7595 N.ar    1  UNL1       -0.2403
     26 C           2.7329   -0.7346    1.6951 C.3     1  UNL1        0.0141
     27 C           1.3822   -0.0861    2.0310 C.3     1  UNL1       -0.0274
     28 C          -4.4214    0.7665    1.2061 C.3     1  UNL1        0.0594
     29 H          -5.9237    2.6168   -0.7343 H       1  UNL1        0.0391
     30 H          -4.5066    3.6409   -0.1670 H       1  UNL1        0.0391
     31 H          -5.6165    2.9070    1.0101 H       1  UNL1        0.0391
     32 H          -3.5215    1.7835   -1.8602 H       1  UNL1        0.0476
     33 H          -5.0103    0.8507   -1.7413 H       1  UNL1        0.0476
     34 H          -3.9209   -0.4611   -3.2580 H       1  UNL1        0.0636
     35 H          -1.2649   -3.4749   -1.8868 H       1  UNL1        0.0633
     36 H          -1.1004   -2.3424    0.2993 H       1  UNL1        0.0639
     37 H           0.6093   -1.8139    1.3540 H       1  UNL1        0.0381
     38 H           1.0506   -1.2193   -0.9508 H       1  UNL1        0.0287
     39 H           0.0457    0.3065   -0.8162 H       1  UNL1        0.0287
     40 H           2.3477    0.5240   -1.3843 H       1  UNL1        0.0464
     41 H           1.8271    1.5553   -0.0441 H       1  UNL1        0.0464
     42 H           4.2024    1.2055   -1.7090 H       1  UNL1        0.0652
     43 H           6.5363    1.2076   -2.3156 H       1  UNL1        0.0619
     44 H           8.1999   -0.0410   -0.9054 H       1  UNL1        0.0633
     45 H           7.4185   -1.2261    1.0395 H       1  UNL1        0.0830
     46 H           2.5857   -1.8248    1.5472 H       1  UNL1        0.0464
     47 H           3.3991   -0.5163    2.5468 H       1  UNL1        0.0464
     48 H           1.3930    0.9778    1.8443 H       1  UNL1        0.0287
     49 H           1.0762   -0.2899    3.0692 H       1  UNL1        0.0287
     50 H          -4.8513   -0.2090    0.8928 H       1  UNL1        0.0507
     51 H          -5.0193    1.2266    1.9894 H       1  UNL1        0.0507
@<TRIPOS>BOND
     1     1     2    1
     2     2     3    1
     3     3     4    1
     4     4     5   ar
     5     5     6   ar
     6     6     7    1
     7     6     8   ar
     8     8     9   ar
     9     9    10   ar
    10    10    11    1
    11    11    12   ar
    12    12    13   ar
    13    13    14   ar
    14    14    15   ar
    15    15    16    1
    16    16    17    1
    17    17    18    1
    18    18    19    1
    19    19    20    1
    20    20    21   ar
    21    21    22   ar
    22    22    23   ar
    23    23    24   ar
    24    24    25   ar
    25    19    26    1
    26    26    27    1
    27    12    28    1
    28    28     2    1
    29    10     4   ar
    30    15    11   ar
    31    27    16    1
    32    25    20   ar
    33     1    29    1
    34     1    30    1
    35     1    31    1
    36     3    32    1
    37     3    33    1
    38     5    34    1
    39     8    35    1
    40     9    36    1
    41    16    37    1
    42    17    38    1
    43    17    39    1
    44    18    40    1
    45    18    41    1
    46    21    42    1
    47    22    43    1
    48    23    44    1
    49    24    45    1
    50    26    46    1
    51    26    47    1
    52    27    48    1
    53    27    49    1
    54    28    50    1
    55    28    51    1
