
     RDKit          3D

 51 55  0  0  0  0  0  0  0  0999 V2000
   -6.2639   -1.3002   -1.1956 C   0  0  0  0  0  0  0  0  0  0  0  0
   -6.3869   -0.8788    0.1459 O   0  0  0  0  0  0  0  0  0  0  0  0
   -5.2179   -0.5013    0.8340 C   0  0  0  0  0  0  0  0  0  0  0  0
   -5.3540   -0.0919    2.1442 C   0  0  0  0  0  0  0  0  0  0  0  0
   -4.2406    0.2828    2.8458 C   0  0  0  0  0  0  0  0  0  0  0  0
   -4.3713    0.6812    4.1198 F   0  0  0  0  0  0  0  0  0  0  0  0
   -2.9841    0.2485    2.2358 C   0  0  0  0  0  0  0  0  0  0  0  0
   -2.8678   -0.1583    0.9421 C   0  0  0  0  0  0  0  0  0  0  0  0
   -4.0098   -0.5487    0.2035 C   0  0  0  0  0  0  0  0  0  0  0  0
   -1.5577   -0.2129    0.2521 C   0  0  0  0  0  0  0  0  0  0  0  0
   -1.3047   -1.5792   -0.3223 C   0  0  0  0  0  0  0  0  0  0  0  0
   -1.2635   -1.6911   -1.8045 C   0  0  0  0  0  0  0  0  0  0  0  0
   -0.7509   -0.5511   -2.4483 O   0  0  0  0  0  0  0  0  0  0  0  0
   -1.2935    0.6702   -2.0113 C   0  0  0  0  0  0  0  0  0  0  0  0
   -1.4394    1.7570   -2.9412 N   0  0  0  0  0  0  0  0  0  0  0  0
   -1.6344    0.7618   -0.8009 N   0  0  0  0  0  0  0  0  0  0  0  0
   -0.4559    0.2200    1.1306 C   0  0  0  0  0  0  0  0  0  0  0  0
    0.8536    0.2327    0.6418 C   0  0  0  0  0  0  0  0  0  0  0  0
    1.9394    0.6098    1.3600 C   0  0  0  0  0  0  0  0  0  0  0  0
    3.2853    0.6401    0.9101 N   0  0  0  0  0  0  0  0  0  0  0  0
    3.7377    0.2795   -0.3784 C   0  0  0  0  0  0  0  0  0  0  0  0
    2.9060   -0.1075   -1.2301 O   0  0  0  0  0  0  0  0  0  0  0  0
    5.1699    0.3539   -0.7277 C   0  0  0  0  0  0  0  0  0  0  0  0
    5.6155    0.0080   -1.9686 C   0  0  0  0  0  0  0  0  0  0  0  0
    6.9809    0.1109   -2.2035 C   0  0  0  0  0  0  0  0  0  0  0  0
    7.8409    0.5461   -1.2151 C   0  0  0  0  0  0  0  0  0  0  0  0
    9.5767    0.6724   -1.5275 Cl  0  0  0  0  0  0  0  0  0  0  0  0
    7.3422    0.8856    0.0274 C   0  0  0  0  0  0  0  0  0  0  0  0
    6.0182    0.7724    0.2143 N   0  0  0  0  0  0  0  0  0  0  0  0
    1.6862    1.0094    2.6869 C   0  0  0  0  0  0  0  0  0  0  0  0
    0.4284    1.0169    3.2168 C   0  0  0  0  0  0  0  0  0  0  0  0
   -0.6573    0.6109    2.4097 C   0  0  0  0  0  0  0  0  0  0  0  0
   -1.9089    0.6448    3.0177 O   0  0  0  0  0  0  0  0  0  0  0  0
   -6.0565   -0.4053   -1.8337 H   0  0  0  0  0  0  0  0  0  0  0  0
   -7.2621   -1.7353   -1.4743 H   0  0  0  0  0  0  0  0  0  0  0  0
   -5.4563   -2.0354   -1.3006 H   0  0  0  0  0  0  0  0  0  0  0  0
   -6.3581   -0.0762    2.5956 H   0  0  0  0  0  0  0  0  0  0  0  0
   -3.8606   -0.8607   -0.8161 H   0  0  0  0  0  0  0  0  0  0  0  0
   -2.1546   -2.2312    0.0239 H   0  0  0  0  0  0  0  0  0  0  0  0
   -0.4076   -2.0673    0.1397 H   0  0  0  0  0  0  0  0  0  0  0  0
   -2.2744   -1.8898   -2.2716 H   0  0  0  0  0  0  0  0  0  0  0  0
   -0.6817   -2.6153   -2.1210 H   0  0  0  0  0  0  0  0  0  0  0  0
   -2.3403    2.2301   -3.0047 H   0  0  0  0  0  0  0  0  0  0  0  0
   -0.6354    2.0224   -3.5103 H   0  0  0  0  0  0  0  0  0  0  0  0
    0.9506   -0.0831   -0.3633 H   0  0  0  0  0  0  0  0  0  0  0  0
    4.0313    0.9608    1.5931 H   0  0  0  0  0  0  0  0  0  0  0  0
    4.9202   -0.3323   -2.7321 H   0  0  0  0  0  0  0  0  0  0  0  0
    7.3749   -0.1543   -3.1760 H   0  0  0  0  0  0  0  0  0  0  0  0
    8.0121    1.2287    0.8101 H   0  0  0  0  0  0  0  0  0  0  0  0
    2.5490    1.3219    3.2970 H   0  0  0  0  0  0  0  0  0  0  0  0
    0.2312    1.3284    4.2510 H   0  0  0  0  0  0  0  0  0  0  0  0
  1  2  1  0
  2  3  1  0
  3  4  2  0
  4  5  1  0
  5  6  1  0
  5  7  2  0
  7  8  1  0
  8  9  2  0
  8 10  1  0
 10 11  1  0
 11 12  1  0
 12 13  1  0
 13 14  1  0
 14 15  1  0
 14 16  2  0
 10 17  1  0
 17 18  2  0
 18 19  1  0
 19 20  1  0
 20 21  1  0
 21 22  2  0
 21 23  1  0
 23 24  2  0
 24 25  1  0
 25 26  2  0
 26 27  1  0
 26 28  1  0
 28 29  2  0
 19 30  2  0
 30 31  1  0
 31 32  2  0
 32 33  1  0
  9  3  1  0
 16 10  1  0
 32 17  1  0
 33  7  1  0
 29 23  1  0
  1 34  1  0
  1 35  1  0
  1 36  1  0
  4 37  1  0
  9 38  1  0
 11 39  1  0
 11 40  1  0
 12 41  1  0
 12 42  1  0
 15 43  1  0
 15 44  1  0
 18 45  1  0
 20 46  1  0
 24 47  1  0
 25 48  1  0
 28 49  1  0
 30 50  1  0
 31 51  1  0
M  END
$$$$
