@<TRIPOS>MOLECULE
*****
 51 55 0 0 0
SMALL
GASTEIGER

@<TRIPOS>ATOM
      1 C          -6.2639   -1.3002   -1.1956 C.3     1  UNL1        0.0788
      2 O          -6.3869   -0.8788    0.1459 O.3     1  UNL1       -0.4950
      3 C          -5.2179   -0.5013    0.8340 C.ar    1  UNL1        0.1234
      4 C          -5.3540   -0.0919    2.1442 C.ar    1  UNL1        0.0190
      5 C          -4.2406    0.2828    2.8458 C.ar    1  UNL1        0.1692
      6 F          -4.3713    0.6812    4.1198 F       1  UNL1       -0.2015
      7 C          -2.9841    0.2485    2.2358 C.ar    1  UNL1        0.1695
      8 C          -2.8678   -0.1583    0.9421 C.ar    1  UNL1        0.0332
      9 C          -4.0098   -0.5487    0.2035 C.ar    1  UNL1       -0.0105
     10 C          -1.5577   -0.2129    0.2521 C.3     1  UNL1        0.1265
     11 C          -1.3047   -1.5792   -0.3223 C.3     1  UNL1        0.0155
     12 C          -1.2635   -1.6911   -1.8045 C.3     1  UNL1        0.0953
     13 O          -0.7509   -0.5511   -2.4483 O.2     1  UNL1       -0.4658
     14 C          -1.2935    0.6702   -2.0113 C.2     1  UNL1        0.2763
     15 N          -1.4394    1.7570   -2.9412 N.pl3   1  UNL1       -0.3134
     16 N          -1.6344    0.7618   -0.8009 N.2     1  UNL1       -0.2205
     17 C          -0.4559    0.2200    1.1306 C.ar    1  UNL1        0.0287
     18 C           0.8536    0.2327    0.6418 C.ar    1  UNL1       -0.0312
     19 C           1.9394    0.6098    1.3600 C.ar    1  UNL1        0.0343
     20 N           3.2853    0.6401    0.9101 N.am    1  UNL1       -0.2802
     21 C           3.7377    0.2795   -0.3784 C.2     1  UNL1        0.2666
     22 O           2.9060   -0.1075   -1.2301 O.2     1  UNL1       -0.2682
     23 C           5.1699    0.3539   -0.7277 C.ar    1  UNL1        0.1257
     24 C           5.6155    0.0080   -1.9686 C.ar    1  UNL1       -0.0298
     25 C           6.9809    0.1109   -2.2035 C.ar    1  UNL1       -0.0397
     26 C           7.8409    0.5461   -1.2151 C.ar    1  UNL1        0.0591
     27 CL          9.5767    0.6724   -1.5275 Cl      1  UNL1       -0.0820
     28 C           7.3422    0.8856    0.0274 C.ar    1  UNL1        0.0467
     29 N           6.0182    0.7724    0.2143 N.ar    1  UNL1       -0.2489
     30 C           1.6862    1.0094    2.6869 C.ar    1  UNL1       -0.0370
     31 C           0.4284    1.0169    3.2168 C.ar    1  UNL1       -0.0172
     32 C          -0.6573    0.6109    2.4097 C.ar    1  UNL1        0.1345
     33 O          -1.9089    0.6448    3.0177 O.3     1  UNL1       -0.4524
     34 H          -6.0565   -0.4053   -1.8337 H       1  UNL1        0.0660
     35 H          -7.2621   -1.7353   -1.4743 H       1  UNL1        0.0660
     36 H          -5.4563   -2.0354   -1.3006 H       1  UNL1        0.0660
     37 H          -6.3581   -0.0762    2.5956 H       1  UNL1        0.0684
     38 H          -3.8606   -0.8607   -0.8161 H       1  UNL1        0.0659
     39 H          -2.1546   -2.2312    0.0239 H       1  UNL1        0.0328
     40 H          -0.4076   -2.0673    0.1397 H       1  UNL1        0.0328
     41 H          -2.2744   -1.8898   -2.2716 H       1  UNL1        0.0698
     42 H          -0.6817   -2.6153   -2.1210 H       1  UNL1        0.0698
     43 H          -2.3403    2.2301   -3.0047 H       1  UNL1        0.1466
     44 H          -0.6354    2.0224   -3.5103 H       1  UNL1        0.1466
     45 H           0.9506   -0.0831   -0.3633 H       1  UNL1        0.0641
     46 H           4.0313    0.9608    1.5931 H       1  UNL1        0.1552
     47 H           4.9202   -0.3323   -2.7321 H       1  UNL1        0.0641
     48 H           7.3749   -0.1543   -3.1760 H       1  UNL1        0.0633
     49 H           8.0121    1.2287    0.8101 H       1  UNL1        0.0844
     50 H           2.5490    1.3219    3.2970 H       1  UNL1        0.0637
     51 H           0.2312    1.3284    4.2510 H       1  UNL1        0.0655
@<TRIPOS>BOND
     1     1     2    1
     2     2     3    1
     3     3     4   ar
     4     4     5   ar
     5     5     6    1
     6     5     7   ar
     7     7     8   ar
     8     8     9   ar
     9     8    10    1
    10    10    11    1
    11    11    12    1
    12    12    13    1
    13    13    14    1
    14    14    15    1
    15    14    16    2
    16    10    17    1
    17    17    18   ar
    18    18    19   ar
    19    19    20    1
    20    20    21   am
    21    21    22    2
    22    21    23    1
    23    23    24   ar
    24    24    25   ar
    25    25    26   ar
    26    26    27    1
    27    26    28   ar
    28    28    29   ar
    29    19    30   ar
    30    30    31   ar
    31    31    32   ar
    32    32    33    1
    33     9     3   ar
    34    16    10    1
    35    32    17   ar
    36    33     7    1
    37    29    23   ar
    38     1    34    1
    39     1    35    1
    40     1    36    1
    41     4    37    1
    42     9    38    1
    43    11    39    1
    44    11    40    1
    45    12    41    1
    46    12    42    1
    47    15    43    1
    48    15    44    1
    49    18    45    1
    50    20    46    1
    51    24    47    1
    52    25    48    1
    53    28    49    1
    54    30    50    1
    55    31    51    1
