@<TRIPOS>MOLECULE
*****
 36 38 0 0 0
SMALL
GASTEIGER

@<TRIPOS>ATOM
      1 C           7.4039   -0.3399    0.6271 C.3     1  UNL1        0.0125
      2 C           6.0173    0.1804    0.6781 C.2     1  UNL1        0.2152
      3 O           5.7744    1.3494    1.1134 O.2     1  UNL1       -0.2757
      4 N           4.8899   -0.5641    0.2576 N.am    1  UNL1       -0.2694
      5 C           3.5635   -0.0530    0.3116 C.ar    1  UNL1        0.1439
      6 C           2.4219   -0.7226   -0.0787 C.ar    1  UNL1        0.0513
      7 N           1.3621    0.0730    0.1172 N.ar    1  UNL1       -0.3041
      8 C           0.0566   -0.1401   -0.1113 C.ar    1  UNL1        0.0190
      9 C          -0.8770    0.8111    0.1600 C.ar    1  UNL1        0.0002
     10 C          -2.2870    0.5502   -0.0982 C.ar    1  UNL1        0.0023
     11 C          -3.1070    1.6063   -0.4495 C.ar    1  UNL1        0.0374
     12 N          -4.4057    1.3764   -0.6880 N.ar    1  UNL1       -0.2396
     13 C          -4.9652    0.1515   -0.6026 C.ar    1  UNL1        0.1279
     14 N          -6.3467   -0.0277   -0.8670 N.pl3   1  UNL1       -0.3427
     15 C          -4.1858   -0.9297   -0.2558 C.ar    1  UNL1        0.0948
     16 C          -4.8102   -2.2772   -0.1634 C.3     1  UNL1        0.4206
     17 F          -5.3617   -2.6480   -1.3934 F       1  UNL1       -0.1658
     18 F          -3.8267   -3.1871    0.1278 F       1  UNL1       -0.1658
     19 F          -5.7627   -2.3348    0.8291 F       1  UNL1       -0.1658
     20 C          -2.8489   -0.7050   -0.0083 C.ar    1  UNL1       -0.0376
     21 C          -0.4480    2.0344    0.6893 C.ar    1  UNL1       -0.0491
     22 C           0.8867    2.2419    0.9189 C.ar    1  UNL1       -0.0182
     23 C           1.7962    1.2510    0.6293 C.ar    1  UNL1        0.1397
     24 N           3.1303    1.1432    0.7347 N.ar    1  UNL1       -0.2129
     25 H           8.0869    0.5212    0.7735 H       1  UNL1        0.0323
     26 H           7.5856   -1.1233    1.4141 H       1  UNL1        0.0323
     27 H           7.6607   -0.7599   -0.3720 H       1  UNL1        0.0323
     28 H           5.0629   -1.5258   -0.1033 H       1  UNL1        0.1563
     29 H           2.4141   -1.7380   -0.4798 H       1  UNL1        0.0848
     30 H          -0.2446   -1.0876   -0.5177 H       1  UNL1        0.0819
     31 H          -2.6783    2.6134   -0.5265 H       1  UNL1        0.0836
     32 H          -6.8578    0.7202   -1.3708 H       1  UNL1        0.1437
     33 H          -6.8604   -0.8721   -0.5775 H       1  UNL1        0.1437
     34 H          -2.2430   -1.5501    0.2619 H       1  UNL1        0.0631
     35 H          -1.2063    2.7859    0.9014 H       1  UNL1        0.0625
     36 H           1.2102    3.1764    1.3229 H       1  UNL1        0.0654
@<TRIPOS>BOND
     1     1     2    1
     2     2     3    2
     3     2     4   am
     4     4     5    1
     5     5     6   ar
     6     6     7   ar
     7     7     8   ar
     8     8     9   ar
     9     9    10    1
    10    10    11   ar
    11    11    12   ar
    12    12    13   ar
    13    13    14    1
    14    13    15   ar
    15    15    16    1
    16    16    17    1
    17    16    18    1
    18    16    19    1
    19    15    20   ar
    20     9    21   ar
    21    21    22   ar
    22    22    23   ar
    23    23    24   ar
    24    24     5   ar
    25    23     7   ar
    26    20    10   ar
    27     1    25    1
    28     1    26    1
    29     1    27    1
    30     4    28    1
    31     6    29    1
    32     8    30    1
    33    11    31    1
    34    14    32    1
    35    14    33    1
    36    20    34    1
    37    21    35    1
    38    22    36    1
