
     RDKit          3D

 36 38  0  0  0  0  0  0  0  0999 V2000
    7.4039   -0.3399    0.6271 C   0  0  0  0  0  0  0  0  0  0  0  0
    6.0173    0.1804    0.6781 C   0  0  0  0  0  0  0  0  0  0  0  0
    5.7744    1.3494    1.1134 O   0  0  0  0  0  0  0  0  0  0  0  0
    4.8899   -0.5641    0.2576 N   0  0  0  0  0  0  0  0  0  0  0  0
    3.5635   -0.0530    0.3116 C   0  0  0  0  0  0  0  0  0  0  0  0
    2.4219   -0.7226   -0.0787 C   0  0  0  0  0  0  0  0  0  0  0  0
    1.3621    0.0730    0.1172 N   0  0  0  0  0  0  0  0  0  0  0  0
    0.0566   -0.1401   -0.1113 C   0  0  0  0  0  0  0  0  0  0  0  0
   -0.8770    0.8111    0.1600 C   0  0  0  0  0  0  0  0  0  0  0  0
   -2.2870    0.5502   -0.0982 C   0  0  0  0  0  0  0  0  0  0  0  0
   -3.1070    1.6063   -0.4495 C   0  0  0  0  0  0  0  0  0  0  0  0
   -4.4057    1.3764   -0.6880 N   0  0  0  0  0  0  0  0  0  0  0  0
   -4.9652    0.1515   -0.6026 C   0  0  0  0  0  0  0  0  0  0  0  0
   -6.3467   -0.0277   -0.8670 N   0  0  0  0  0  0  0  0  0  0  0  0
   -4.1858   -0.9297   -0.2558 C   0  0  0  0  0  0  0  0  0  0  0  0
   -4.8102   -2.2772   -0.1634 C   0  0  0  0  0  0  0  0  0  0  0  0
   -5.3617   -2.6480   -1.3934 F   0  0  0  0  0  0  0  0  0  0  0  0
   -3.8267   -3.1871    0.1278 F   0  0  0  0  0  0  0  0  0  0  0  0
   -5.7627   -2.3348    0.8291 F   0  0  0  0  0  0  0  0  0  0  0  0
   -2.8489   -0.7050   -0.0083 C   0  0  0  0  0  0  0  0  0  0  0  0
   -0.4480    2.0344    0.6893 C   0  0  0  0  0  0  0  0  0  0  0  0
    0.8867    2.2419    0.9189 C   0  0  0  0  0  0  0  0  0  0  0  0
    1.7962    1.2510    0.6293 C   0  0  0  0  0  0  0  0  0  0  0  0
    3.1303    1.1432    0.7347 N   0  0  0  0  0  0  0  0  0  0  0  0
    8.0869    0.5212    0.7735 H   0  0  0  0  0  0  0  0  0  0  0  0
    7.5856   -1.1233    1.4141 H   0  0  0  0  0  0  0  0  0  0  0  0
    7.6607   -0.7599   -0.3720 H   0  0  0  0  0  0  0  0  0  0  0  0
    5.0629   -1.5258   -0.1033 H   0  0  0  0  0  0  0  0  0  0  0  0
    2.4141   -1.7380   -0.4798 H   0  0  0  0  0  0  0  0  0  0  0  0
   -0.2446   -1.0876   -0.5177 H   0  0  0  0  0  0  0  0  0  0  0  0
   -2.6783    2.6134   -0.5265 H   0  0  0  0  0  0  0  0  0  0  0  0
   -6.8578    0.7202   -1.3708 H   0  0  0  0  0  0  0  0  0  0  0  0
   -6.8604   -0.8721   -0.5775 H   0  0  0  0  0  0  0  0  0  0  0  0
   -2.2430   -1.5501    0.2619 H   0  0  0  0  0  0  0  0  0  0  0  0
   -1.2063    2.7859    0.9014 H   0  0  0  0  0  0  0  0  0  0  0  0
    1.2102    3.1764    1.3229 H   0  0  0  0  0  0  0  0  0  0  0  0
  1  2  1  0
  2  3  2  0
  2  4  1  0
  4  5  1  0
  5  6  2  0
  6  7  1  0
  7  8  1  0
  8  9  2  0
  9 10  1  0
 10 11  2  0
 11 12  1  0
 12 13  2  0
 13 14  1  0
 13 15  1  0
 15 16  1  0
 16 17  1  0
 16 18  1  0
 16 19  1  0
 15 20  2  0
  9 21  1  0
 21 22  2  0
 22 23  1  0
 23 24  2  0
 24  5  1  0
 23  7  1  0
 20 10  1  0
  1 25  1  0
  1 26  1  0
  1 27  1  0
  4 28  1  0
  6 29  1  0
  8 30  1  0
 11 31  1  0
 14 32  1  0
 14 33  1  0
 20 34  1  0
 21 35  1  0
 22 36  1  0
M  END
$$$$
