@<TRIPOS>MOLECULE
*****
 31 33 0 0 0
SMALL
GASTEIGER

@<TRIPOS>ATOM
      1 C           3.6434   -1.6980   -0.3157 C.3     1  UNL1       -0.0482
      2 C           3.2201   -0.2805   -0.5882 C.3     1  UNL1        0.0785
      3 C           3.8846    0.7070    0.3001 C.2     1  UNL1        0.3119
      4 O           4.4493    1.5681    1.2268 O.3     1  UNL1       -0.4802
      5 O           4.6265    1.6190   -0.2015 O.2     1  UNL1       -0.2503
      6 C           1.7387   -0.1761   -0.4091 C.ar    1  UNL1       -0.0320
      7 C           0.8667    0.1633   -1.4241 C.ar    1  UNL1       -0.0338
      8 C          -0.4764    0.2197   -1.1073 C.ar    1  UNL1        0.0478
      9 C          -0.9451   -0.0491    0.1660 C.ar    1  UNL1        0.0075
     10 C          -0.0633   -0.3884    1.1770 C.ar    1  UNL1       -0.0517
     11 C           1.3022   -0.4545    0.8903 C.ar    1  UNL1       -0.0571
     12 C          -2.3113    0.1093    0.0809 C.ar    1  UNL1        0.0088
     13 C          -2.6526    0.4674   -1.2248 C.ar    1  UNL1        0.0476
     14 N          -1.4973    0.5260   -1.9288 N.ar    1  UNL1       -0.3541
     15 C          -3.9916    0.6755   -1.5213 C.ar    1  UNL1       -0.0364
     16 C          -4.9549    0.5277   -0.5354 C.ar    1  UNL1       -0.0414
     17 C          -4.6138    0.1706    0.7664 C.ar    1  UNL1        0.0417
     18 CL         -5.9169    0.0103    1.9402 Cl      1  UNL1       -0.0835
     19 C          -3.2874   -0.0370    1.0660 C.ar    1  UNL1       -0.0336
     20 H           2.7758   -2.3458   -0.5678 H       1  UNL1        0.0241
     21 H           3.8510   -1.8351    0.7477 H       1  UNL1        0.0241
     22 H           4.4965   -2.0230   -0.9482 H       1  UNL1        0.0241
     23 H           3.4874   -0.0469   -1.6378 H       1  UNL1        0.0459
     24 H           4.2394    1.4189    2.2230 H       1  UNL1        0.2951
     25 H           1.2564    0.3636   -2.3896 H       1  UNL1        0.0641
     26 H          -0.4435   -0.5973    2.1730 H       1  UNL1        0.0624
     27 H           1.9854   -0.7208    1.6872 H       1  UNL1        0.0621
     28 H          -1.4401    0.7718   -2.9427 H       1  UNL1        0.1659
     29 H          -4.1763    0.9471   -2.5414 H       1  UNL1        0.0639
     30 H          -5.9911    0.6999   -0.8096 H       1  UNL1        0.0633
     31 H          -3.0619   -0.3128    2.0865 H       1  UNL1        0.0639
@<TRIPOS>BOND
     1     1     2    1
     2     2     3    1
     3     3     4    1
     4     3     5    2
     5     2     6    1
     6     6     7   ar
     7     7     8   ar
     8     8     9   ar
     9     9    10   ar
    10    10    11   ar
    11     9    12   ar
    12    12    13   ar
    13    13    14   ar
    14    13    15   ar
    15    15    16   ar
    16    16    17   ar
    17    17    18    1
    18    17    19   ar
    19    11     6   ar
    20    19    12   ar
    21    14     8   ar
    22     1    20    1
    23     1    21    1
    24     1    22    1
    25     2    23    1
    26     4    24    1
    27     7    25    1
    28    10    26    1
    29    11    27    1
    30    14    28    1
    31    15    29    1
    32    16    30    1
    33    19    31    1
