@<TRIPOS>MOLECULE
*****
 33 33 0 0 0
SMALL
GASTEIGER

@<TRIPOS>ATOM
      1 C          -3.4059    0.3261   -1.6474 C.3     1  UNL1       -0.0316
      2 C          -3.9969   -0.2642   -0.3809 C.3     1  UNL1        0.0701
      3 C          -5.2772    0.4849   -0.0343 C.3     1  UNL1       -0.0316
      4 N          -3.0277   -0.0458    0.6766 N.pl3   1  UNL1       -0.2734
      5 C          -1.7330   -0.6012    0.5565 C.cat   1  UNL1        0.3880
      6 N          -1.5175   -1.6596   -0.1332 N.pl3   1  UNL1       -0.1292
      7 N          -0.6131    0.0240    1.2191 N.pl3   1  UNL1       -0.1858
      8 C           0.7009   -0.5589    1.0943 C.cat   1  UNL1        0.3926
      9 N           0.8715   -1.7562    0.7151 N.pl3   1  UNL1       -0.1289
     10 N           1.8329    0.2084    1.3994 N.pl3   1  UNL1       -0.2432
     11 C           3.0123    0.2552    0.6083 C.ar    1  UNL1        0.1000
     12 C           3.1758   -0.2847   -0.6439 C.ar    1  UNL1       -0.0218
     13 C           4.3448   -0.2163   -1.3552 C.ar    1  UNL1       -0.0401
     14 C           5.4401    0.4123   -0.8383 C.ar    1  UNL1        0.0412
     15 CL          6.9751    0.5517   -1.6685 Cl      1  UNL1       -0.0835
     16 C           5.3405    0.9718    0.4072 C.ar    1  UNL1       -0.0401
     17 C           4.1518    0.8883    1.1015 C.ar    1  UNL1       -0.0218
     18 H          -2.7864   -0.4004   -2.2085 H       1  UNL1        0.0263
     19 H          -4.1965    0.7649   -2.2931 H       1  UNL1        0.0263
     20 H          -2.7134    1.1728   -1.3753 H       1  UNL1        0.0263
     21 H          -4.1855   -1.3498   -0.4911 H       1  UNL1        0.0686
     22 H          -5.7627   -0.0646    0.8044 H       1  UNL1        0.0263
     23 H          -5.0098    1.5118    0.2628 H       1  UNL1        0.0263
     24 H          -5.9232    0.4606   -0.9234 H       1  UNL1        0.0263
     25 H          -3.2210    0.5071    1.5450 H       1  UNL1        0.2581
     26 H          -2.2954   -2.1299   -0.6184 H       1  UNL1        0.3062
     27 H          -0.7249    0.9072    1.8035 H       1  UNL1        0.2707
     28 H           1.7237   -2.2982    0.5818 H       1  UNL1        0.3062
     29 H           1.7999    0.8035    2.2817 H       1  UNL1        0.2648
     30 H           2.3482   -0.7801   -1.0979 H       1  UNL1        0.0652
     31 H           4.4194   -0.6578   -2.3352 H       1  UNL1        0.0633
     32 H           6.1653    1.4775    0.8637 H       1  UNL1        0.0633
     33 H           4.0880    1.3397    2.0944 H       1  UNL1        0.0652
@<TRIPOS>BOND
     1     1     2    1
     2     2     3    1
     3     2     4    1
     4     4     5    1
     5     5     6    2
     6     5     7    1
     7     7     8    1
     8     8     9    2
     9     8    10    1
    10    10    11    1
    11    11    12   ar
    12    12    13   ar
    13    13    14   ar
    14    14    15    1
    15    14    16   ar
    16    16    17   ar
    17    17    11   ar
    18     1    18    1
    19     1    19    1
    20     1    20    1
    21     2    21    1
    22     3    22    1
    23     3    23    1
    24     3    24    1
    25     4    25    1
    26     6    26    1
    27     7    27    1
    28     9    28    1
    29    10    29    1
    30    12    30    1
    31    13    31    1
    32    16    32    1
    33    17    33    1
