
     RDKit          3D

 17 17  0  0  0  0  0  0  0  0999 V2000
    3.4605    0.0851    0.3106 N   0  0  0  0  0  0  0  0  0  0  0  0
    2.0867    0.3016    0.2169 N   0  0  0  0  0  0  0  0  0  0  0  0
    1.0424   -0.6367    0.3688 C   0  0  0  0  0  0  0  0  0  0  0  0
    1.2674   -1.8426    0.6209 O   0  0  0  0  0  0  0  0  0  0  0  0
   -0.3580   -0.2559    0.2409 C   0  0  0  0  0  0  0  0  0  0  0  0
   -1.3349   -1.2214    0.4008 C   0  0  0  0  0  0  0  0  0  0  0  0
   -2.6673   -0.8328    0.2738 C   0  0  0  0  0  0  0  0  0  0  0  0
   -3.0541    0.4228    0.0058 N   0  0  0  0  0  0  0  0  0  0  0  0
   -2.1140    1.3834   -0.1544 C   0  0  0  0  0  0  0  0  0  0  0  0
   -0.8105    1.0178   -0.0331 C   0  0  0  0  0  0  0  0  0  0  0  0
    3.7198   -0.8944    0.5498 H   0  0  0  0  0  0  0  0  0  0  0  0
    3.9625    0.8000    0.8752 H   0  0  0  0  0  0  0  0  0  0  0  0
    1.9005    1.3081    0.0066 H   0  0  0  0  0  0  0  0  0  0  0  0
   -1.1240   -2.2732    0.6212 H   0  0  0  0  0  0  0  0  0  0  0  0
   -3.4760   -1.5455    0.3886 H   0  0  0  0  0  0  0  0  0  0  0  0
   -2.4285    2.3870   -0.3688 H   0  0  0  0  0  0  0  0  0  0  0  0
   -0.0725    1.7967   -0.1639 H   0  0  0  0  0  0  0  0  0  0  0  0
  1  2  1  0
  2  3  1  0
  3  4  2  0
  3  5  1  0
  5  6  2  0
  6  7  1  0
  7  8  2  0
  8  9  1  0
  9 10  2  0
 10  5  1  0
  1 11  1  0
  1 12  1  0
  2 13  1  0
  6 14  1  0
  7 15  1  0
  9 16  1  0
 10 17  1  0
M  END
$$$$
