@<TRIPOS>MOLECULE
*****
 17 17 0 0 0
SMALL
GASTEIGER

@<TRIPOS>ATOM
      1 N           3.4605    0.0851    0.3106 N.3     1  UNL1       -0.2541
      2 N           2.0867    0.3016    0.2169 N.am    1  UNL1       -0.2496
      3 C           1.0424   -0.6367    0.3688 C.2     1  UNL1        0.2575
      4 O           1.2674   -1.8426    0.6209 O.2     1  UNL1       -0.2689
      5 C          -0.3580   -0.2559    0.2409 C.ar    1  UNL1        0.0408
      6 C          -1.3349   -1.2214    0.4008 C.ar    1  UNL1       -0.0314
      7 C          -2.6673   -0.8328    0.2738 C.ar    1  UNL1        0.0283
      8 N          -3.0541    0.4228    0.0058 N.ar    1  UNL1       -0.2632
      9 C          -2.1140    1.3834   -0.1544 C.ar    1  UNL1        0.0283
     10 C          -0.8105    1.0178   -0.0331 C.ar    1  UNL1       -0.0314
     11 H           3.7198   -0.8944    0.5498 H       1  UNL1        0.1405
     12 H           3.9625    0.8000    0.8752 H       1  UNL1        0.1405
     13 H           1.9005    1.3081    0.0066 H       1  UNL1        0.1690
     14 H          -1.1240   -2.2732    0.6212 H       1  UNL1        0.0640
     15 H          -3.4760   -1.5455    0.3886 H       1  UNL1        0.0830
     16 H          -2.4285    2.3870   -0.3688 H       1  UNL1        0.0830
     17 H          -0.0725    1.7967   -0.1639 H       1  UNL1        0.0640
@<TRIPOS>BOND
     1     1     2    1
     2     2     3   am
     3     3     4    2
     4     3     5    1
     5     5     6   ar
     6     6     7   ar
     7     7     8   ar
     8     8     9   ar
     9     9    10   ar
    10    10     5   ar
    11     1    11    1
    12     1    12    1
    13     2    13    1
    14     6    14    1
    15     7    15    1
    16     9    16    1
    17    10    17    1
