
     RDKit          3D

 40 42  0  0  0  0  0  0  0  0999 V2000
    5.8448    0.4327   -1.1378 C   0  0  0  0  0  0  0  0  0  0  0  0
    4.5300    0.0866   -0.6421 N   0  0  0  0  0  0  0  0  0  0  0  0
    4.3811   -1.2801   -0.3012 C   0  0  0  0  0  0  0  0  0  0  0  0
    3.2910   -1.4803    0.7148 C   0  0  0  0  0  0  0  0  0  0  0  0
    2.1743   -0.5749    0.5251 N   0  0  0  0  0  0  0  0  0  0  0  0
    0.8468   -0.9878    0.4655 C   0  0  0  0  0  0  0  0  0  0  0  0
    0.5781   -2.1966    0.5725 O   0  0  0  0  0  0  0  0  0  0  0  0
   -0.2505   -0.0649    0.2829 C   0  0  0  0  0  0  0  0  0  0  0  0
   -0.1748    1.7159    0.1244 S   0  0  0  0  0  0  0  0  0  0  0  0
   -1.9966    1.9504   -0.0510 C   0  0  0  0  0  0  0  0  0  0  0  0
   -2.7041    3.3574   -0.2409 S   0  0  0  0  0  0  0  0  0  0  0  0
   -2.4161    0.7047    0.0289 N   0  0  0  0  0  0  0  0  0  0  0  0
   -3.8880    0.5126   -0.0775 C   0  0  0  0  0  0  0  0  0  0  0  0
   -4.6967    0.7144    0.9996 C   0  0  0  0  0  0  0  0  0  0  0  0
   -6.0602    0.5295    0.8750 C   0  0  0  0  0  0  0  0  0  0  0  0
   -6.6195    0.1403   -0.3334 C   0  0  0  0  0  0  0  0  0  0  0  0
   -5.7992   -0.0618   -1.4164 C   0  0  0  0  0  0  0  0  0  0  0  0
   -4.4433    0.1274   -1.2729 C   0  0  0  0  0  0  0  0  0  0  0  0
   -1.6137   -0.2974    0.1894 C   0  0  0  0  0  0  0  0  0  0  0  0
   -2.0615   -1.6906    0.2805 N   0  0  0  0  0  0  0  0  0  0  0  0
    2.5263    0.8254    0.3959 C   0  0  0  0  0  0  0  0  0  0  0  0
    4.0684    0.9472    0.3975 C   0  0  0  0  0  0  0  0  0  0  0  0
    6.6075    0.4806   -0.3595 H   0  0  0  0  0  0  0  0  0  0  0  0
    5.7726    1.4351   -1.5975 H   0  0  0  0  0  0  0  0  0  0  0  0
    6.1178   -0.2850   -1.9186 H   0  0  0  0  0  0  0  0  0  0  0  0
    4.1286   -1.9386   -1.1648 H   0  0  0  0  0  0  0  0  0  0  0  0
    5.3748   -1.6133    0.1281 H   0  0  0  0  0  0  0  0  0  0  0  0
    3.6867   -1.2612    1.7507 H   0  0  0  0  0  0  0  0  0  0  0  0
    2.9125   -2.5314    0.6974 H   0  0  0  0  0  0  0  0  0  0  0  0
   -4.2542    1.0173    1.9373 H   0  0  0  0  0  0  0  0  0  0  0  0
   -6.7371    0.6832    1.7205 H   0  0  0  0  0  0  0  0  0  0  0  0
   -7.6807   -0.0144   -0.4702 H   0  0  0  0  0  0  0  0  0  0  0  0
   -6.2405   -0.3704   -2.3756 H   0  0  0  0  0  0  0  0  0  0  0  0
   -3.7901   -0.0285   -2.1165 H   0  0  0  0  0  0  0  0  0  0  0  0
   -1.8511   -2.2338    1.1361 H   0  0  0  0  0  0  0  0  0  0  0  0
   -2.5705   -2.0597   -0.5267 H   0  0  0  0  0  0  0  0  0  0  0  0
    2.1913    1.2679   -0.5654 H   0  0  0  0  0  0  0  0  0  0  0  0
    2.0953    1.4192    1.2103 H   0  0  0  0  0  0  0  0  0  0  0  0
    4.3232    2.0184    0.2137 H   0  0  0  0  0  0  0  0  0  0  0  0
    4.3974    0.6046    1.3927 H   0  0  0  0  0  0  0  0  0  0  0  0
  1  2  1  0
  2  3  1  0
  3  4  1  0
  4  5  1  0
  5  6  1  0
  6  7  2  0
  6  8  1  0
  8  9  1  0
  9 10  1  0
 10 11  2  0
 10 12  1  0
 12 13  1  0
 13 14  2  0
 14 15  1  0
 15 16  2  0
 16 17  1  0
 17 18  2  0
 12 19  1  0
 19 20  1  0
  5 21  1  0
 21 22  1  0
 22  2  1  0
 19  8  2  0
 18 13  1  0
  1 23  1  0
  1 24  1  0
  1 25  1  0
  3 26  1  0
  3 27  1  0
  4 28  1  0
  4 29  1  0
 14 30  1  0
 15 31  1  0
 16 32  1  0
 17 33  1  0
 18 34  1  0
 20 35  1  0
 20 36  1  0
 21 37  1  0
 21 38  1  0
 22 39  1  0
 22 40  1  0
M  END
$$$$
