@<TRIPOS>MOLECULE
*****
 40 42 0 0 0
SMALL
GASTEIGER

@<TRIPOS>ATOM
      1 C           5.8448    0.4327   -1.1378 C.3     1  UNL1       -0.0126
      2 N           4.5300    0.0866   -0.6421 N.3     1  UNL1       -0.3024
      3 C           4.3811   -1.2801   -0.3012 C.3     1  UNL1        0.0145
      4 C           3.2910   -1.4803    0.7148 C.3     1  UNL1        0.0278
      5 N           2.1743   -0.5749    0.5251 N.am    1  UNL1       -0.2946
      6 C           0.8468   -0.9878    0.4655 C.2     1  UNL1        0.2567
      7 O           0.5781   -2.1966    0.5725 O.2     1  UNL1       -0.2693
      8 C          -0.2505   -0.0649    0.2829 C.ar    1  UNL1        0.1145
      9 S          -0.1748    1.7159    0.1244 S.2     1  UNL1       -0.0551
     10 C          -1.9966    1.9504   -0.0510 C.ar    1  UNL1        0.1322
     11 S          -2.7041    3.3574   -0.2409 S.2     1  UNL1       -0.0244
     12 N          -2.4161    0.7047    0.0289 N.ar    1  UNL1       -0.2853
     13 C          -3.8880    0.5126   -0.0775 C.ar    1  UNL1        0.0493
     14 C          -4.6967    0.7144    0.9996 C.ar    1  UNL1       -0.0378
     15 C          -6.0602    0.5295    0.8750 C.ar    1  UNL1       -0.0598
     16 C          -6.6195    0.1403   -0.3334 C.ar    1  UNL1       -0.0616
     17 C          -5.7992   -0.0618   -1.4164 C.ar    1  UNL1       -0.0598
     18 C          -4.4433    0.1274   -1.2729 C.ar    1  UNL1       -0.0378
     19 C          -1.6137   -0.2974    0.1894 C.ar    1  UNL1        0.1211
     20 N          -2.0615   -1.6906    0.2805 N.pl3   1  UNL1       -0.3431
     21 C           2.5263    0.8254    0.3959 C.3     1  UNL1        0.0278
     22 C           4.0684    0.9472    0.3975 C.3     1  UNL1        0.0145
     23 H           6.6075    0.4806   -0.3595 H       1  UNL1        0.0391
     24 H           5.7726    1.4351   -1.5975 H       1  UNL1        0.0391
     25 H           6.1178   -0.2850   -1.9186 H       1  UNL1        0.0391
     26 H           4.1286   -1.9386   -1.1648 H       1  UNL1        0.0442
     27 H           5.3748   -1.6133    0.1281 H       1  UNL1        0.0442
     28 H           3.6867   -1.2612    1.7507 H       1  UNL1        0.0477
     29 H           2.9125   -2.5314    0.6974 H       1  UNL1        0.0477
     30 H          -4.2542    1.0173    1.9373 H       1  UNL1        0.0638
     31 H          -6.7371    0.6832    1.7205 H       1  UNL1        0.0618
     32 H          -7.6807   -0.0144   -0.4702 H       1  UNL1        0.0618
     33 H          -6.2405   -0.3704   -2.3756 H       1  UNL1        0.0618
     34 H          -3.7901   -0.0285   -2.1165 H       1  UNL1        0.0638
     35 H          -1.8511   -2.2338    1.1361 H       1  UNL1        0.1437
     36 H          -2.5705   -2.0597   -0.5267 H       1  UNL1        0.1437
     37 H           2.1913    1.2679   -0.5654 H       1  UNL1        0.0477
     38 H           2.0953    1.4192    1.2103 H       1  UNL1        0.0477
     39 H           4.3232    2.0184    0.2137 H       1  UNL1        0.0442
     40 H           4.3974    0.6046    1.3927 H       1  UNL1        0.0442
@<TRIPOS>BOND
     1     1     2    1
     2     2     3    1
     3     3     4    1
     4     4     5    1
     5     5     6   am
     6     6     7    2
     7     6     8    1
     8     8     9   ar
     9     9    10   ar
    10    10    11    2
    11    10    12   ar
    12    12    13    1
    13    13    14   ar
    14    14    15   ar
    15    15    16   ar
    16    16    17   ar
    17    17    18   ar
    18    12    19   ar
    19    19    20    1
    20     5    21    1
    21    21    22    1
    22    22     2    1
    23    19     8   ar
    24    18    13   ar
    25     1    23    1
    26     1    24    1
    27     1    25    1
    28     3    26    1
    29     3    27    1
    30     4    28    1
    31     4    29    1
    32    14    30    1
    33    15    31    1
    34    16    32    1
    35    17    33    1
    36    18    34    1
    37    20    35    1
    38    20    36    1
    39    21    37    1
    40    21    38    1
    41    22    39    1
    42    22    40    1
