@<TRIPOS>MOLECULE
*****
 37 40 0 0 0
SMALL
GASTEIGER

@<TRIPOS>ATOM
      1 N          -2.6876    4.2175   -0.4178 N.am    1  UNL1       -0.3240
      2 C          -3.2656    2.9175   -0.4313 C.2     1  UNL1        0.2622
      3 O          -4.5125    2.7727   -0.5862 O.2     1  UNL1       -0.2687
      4 C          -2.4042    1.7512   -0.2644 C.ar    1  UNL1        0.1549
      5 N          -1.0687    1.7231   -0.0897 N.ar    1  UNL1       -0.1605
      6 N          -0.6424    0.4568    0.0255 N.ar    1  UNL1       -0.2307
      7 C          -1.7108   -0.3527   -0.0750 C.ar    1  UNL1        0.0860
      8 C          -2.8238    0.4409   -0.2569 C.ar    1  UNL1        0.0333
      9 C          -4.0269   -0.2118   -0.3822 C.ar    1  UNL1       -0.0483
     10 C          -4.1083   -1.5878   -0.3278 C.ar    1  UNL1       -0.0355
     11 C          -2.9726   -2.3826   -0.1428 C.ar    1  UNL1        0.0678
     12 C          -1.7615   -1.7235   -0.0168 C.ar    1  UNL1        0.0455
     13 C          -0.8119   -2.7005    0.1527 C.ar    1  UNL1        0.0589
     14 N          -1.4397   -3.8962    0.1277 N.ar    1  UNL1       -0.1811
     15 N          -2.7449   -3.7083   -0.0506 N.ar    1  UNL1       -0.2769
     16 C           0.7432    0.1996    0.2175 C.ar    1  UNL1        0.0662
     17 C           1.4568    0.3585   -0.9552 C.ar    1  UNL1       -0.0344
     18 C           2.8280    0.1619   -1.0184 C.ar    1  UNL1       -0.0334
     19 C           3.4933   -0.2092    0.1548 C.ar    1  UNL1        0.1051
     20 C           2.7791   -0.3657    1.3178 C.ar    1  UNL1       -0.0334
     21 C           1.4167   -0.1695    1.3764 C.ar    1  UNL1       -0.0344
     22 S           5.2153   -0.4628    0.1054 S.O2    1  UNL1        0.0559
     23 N           6.0417    0.9994    0.4434 N.3     1  UNL1       -0.2035
     24 O           5.5736   -1.5278    1.0752 O.2     1  UNL1       -0.1533
     25 O           5.5840   -0.9229   -1.2949 O.2     1  UNL1       -0.1533
     26 H          -2.4926    4.8820    0.3651 H       1  UNL1        0.1453
     27 H          -2.4810    4.9028    0.3472 H       1  UNL1        0.1453
     28 H          -4.9233    0.3860   -0.5268 H       1  UNL1        0.0625
     29 H          -5.0432   -2.1123   -0.4244 H       1  UNL1        0.0639
     30 H           0.2547   -2.5925    0.2860 H       1  UNL1        0.0855
     31 H          -3.5351   -4.4049   -0.1203 H       1  UNL1        0.1889
     32 H           1.0431    0.6457   -1.9310 H       1  UNL1        0.0639
     33 H           3.4247    0.2742   -1.9091 H       1  UNL1        0.0638
     34 H           3.2453   -0.6484    2.2384 H       1  UNL1        0.0638
     35 H           0.7662   -0.2630    2.2212 H       1  UNL1        0.0639
     36 H           6.0291    1.6068   -0.4232 H       1  UNL1        0.1442
     37 H           5.5614    1.5459    1.1908 H       1  UNL1        0.1442
@<TRIPOS>BOND
     1     1     2   am
     2     2     3    2
     3     2     4    1
     4     4     5   ar
     5     5     6   ar
     6     6     7   ar
     7     7     8   ar
     8     8     9   ar
     9     9    10   ar
    10    10    11   ar
    11    11    12   ar
    12    12    13   ar
    13    13    14   ar
    14    14    15   ar
    15     6    16    1
    16    16    17   ar
    17    17    18   ar
    18    18    19   ar
    19    19    20   ar
    20    20    21   ar
    21    19    22    1
    22    22    23    1
    23    22    24    2
    24    22    25    2
    25     8     4   ar
    26    15    11   ar
    27    21    16   ar
    28    12     7   ar
    29     1    26    1
    30     1    27    1
    31     9    28    1
    32    10    29    1
    33    13    30    1
    34    15    31    1
    35    17    32    1
    36    18    33    1
    37    20    34    1
    38    21    35    1
    39    23    36    1
    40    23    37    1
