@<TRIPOS>MOLECULE
*****
 34 35 0 0 0
SMALL
GASTEIGER

@<TRIPOS>ATOM
      1 N          -5.6992   -0.2118    2.0049 N.3     1  UNL1       -0.2035
      2 S          -5.4852    0.2810    0.3625 S.O2    1  UNL1        0.0559
      3 O          -6.2546   -0.6295   -0.5566 O.2     1  UNL1       -0.1533
      4 O          -6.0072    1.6638    0.1278 O.2     1  UNL1       -0.1533
      5 C          -3.7909    0.2536   -0.0742 C.ar    1  UNL1        0.1050
      6 C          -3.2558   -0.9065   -0.5984 C.ar    1  UNL1       -0.0346
      7 C          -1.9057   -0.9659   -0.9602 C.ar    1  UNL1       -0.0478
      8 C          -1.0617    0.1123   -0.8124 C.ar    1  UNL1        0.0368
      9 C          -1.6283    1.2516   -0.2871 C.ar    1  UNL1       -0.0478
     10 C          -2.9553    1.3409    0.0787 C.ar    1  UNL1       -0.0346
     11 C           0.3286   -0.0366   -1.2154 C.2     1  UNL1        0.2443
     12 O           0.6501   -1.1666   -1.6819 O.2     1  UNL1       -0.2702
     13 N           1.3228    0.9651   -1.1263 N.am    1  UNL1       -0.3072
     14 C           2.6973    0.8765   -1.5050 C.3     1  UNL1        0.0371
     15 C           3.4703    0.1086   -0.4894 C.ar    1  UNL1       -0.0301
     16 C           4.0040    0.8617    0.5476 C.ar    1  UNL1       -0.0544
     17 C           4.7502    0.3139    1.5720 C.ar    1  UNL1       -0.0261
     18 C           4.9596   -1.0524    1.5371 C.ar    1  UNL1        0.1234
     19 F           5.6869   -1.6748    2.5117 F       1  UNL1       -0.2055
     20 C           4.4424   -1.8460    0.5152 C.ar    1  UNL1       -0.0261
     21 C           3.7009   -1.2502   -0.4892 C.ar    1  UNL1       -0.0544
     22 H          -5.1459   -1.0382    2.2478 H       1  UNL1        0.1442
     23 H          -6.6915   -0.2191    2.2596 H       1  UNL1        0.1442
     24 H          -3.9142   -1.7607   -0.7178 H       1  UNL1        0.0637
     25 H          -1.5956   -1.9145   -1.3565 H       1  UNL1        0.0626
     26 H          -1.0002    2.1135   -0.1575 H       1  UNL1        0.0626
     27 H          -3.3696    2.2504    0.4882 H       1  UNL1        0.0637
     28 H           0.9337    1.8667   -0.7207 H       1  UNL1        0.1493
     29 H           2.8141    0.3752   -2.4932 H       1  UNL1        0.0512
     30 H           3.1032    1.9107   -1.5880 H       1  UNL1        0.0512
     31 H           3.8584    1.9457    0.6072 H       1  UNL1        0.0622
     32 H           5.1635    0.9103    2.3786 H       1  UNL1        0.0646
     33 H           4.5894   -2.9246    0.4588 H       1  UNL1        0.0646
     34 H           3.2857   -1.8040   -1.2903 H       1  UNL1        0.0622
@<TRIPOS>BOND
     1     1     2    1
     2     2     3    2
     3     2     4    2
     4     2     5    1
     5     5     6   ar
     6     6     7   ar
     7     7     8   ar
     8     8     9   ar
     9     9    10   ar
    10     8    11    1
    11    11    12    2
    12    11    13   am
    13    13    14    1
    14    14    15    1
    15    15    16   ar
    16    16    17   ar
    17    17    18   ar
    18    18    19    1
    19    18    20   ar
    20    20    21   ar
    21    10     5   ar
    22    21    15   ar
    23     1    22    1
    24     1    23    1
    25     6    24    1
    26     7    25    1
    27     9    26    1
    28    10    27    1
    29    13    28    1
    30    14    29    1
    31    14    30    1
    32    16    31    1
    33    17    32    1
    34    20    33    1
    35    21    34    1
