
     RDKit          3D

 34 35  0  0  0  0  0  0  0  0999 V2000
   -5.6992   -0.2118    2.0049 N   0  0  0  0  0  0  0  0  0  0  0  0
   -5.4852    0.2810    0.3625 S   0  0  0  0  0  0  0  0  0  0  0  0
   -6.2546   -0.6295   -0.5566 O   0  0  0  0  0  0  0  0  0  0  0  0
   -6.0072    1.6638    0.1278 O   0  0  0  0  0  0  0  0  0  0  0  0
   -3.7909    0.2536   -0.0742 C   0  0  0  0  0  0  0  0  0  0  0  0
   -3.2558   -0.9065   -0.5984 C   0  0  0  0  0  0  0  0  0  0  0  0
   -1.9057   -0.9659   -0.9602 C   0  0  0  0  0  0  0  0  0  0  0  0
   -1.0617    0.1123   -0.8124 C   0  0  0  0  0  0  0  0  0  0  0  0
   -1.6283    1.2516   -0.2871 C   0  0  0  0  0  0  0  0  0  0  0  0
   -2.9553    1.3409    0.0787 C   0  0  0  0  0  0  0  0  0  0  0  0
    0.3286   -0.0366   -1.2154 C   0  0  0  0  0  0  0  0  0  0  0  0
    0.6501   -1.1666   -1.6819 O   0  0  0  0  0  0  0  0  0  0  0  0
    1.3228    0.9651   -1.1263 N   0  0  0  0  0  0  0  0  0  0  0  0
    2.6973    0.8765   -1.5050 C   0  0  0  0  0  0  0  0  0  0  0  0
    3.4703    0.1086   -0.4894 C   0  0  0  0  0  0  0  0  0  0  0  0
    4.0040    0.8617    0.5476 C   0  0  0  0  0  0  0  0  0  0  0  0
    4.7502    0.3139    1.5720 C   0  0  0  0  0  0  0  0  0  0  0  0
    4.9596   -1.0524    1.5371 C   0  0  0  0  0  0  0  0  0  0  0  0
    5.6869   -1.6748    2.5117 F   0  0  0  0  0  0  0  0  0  0  0  0
    4.4424   -1.8460    0.5152 C   0  0  0  0  0  0  0  0  0  0  0  0
    3.7009   -1.2502   -0.4892 C   0  0  0  0  0  0  0  0  0  0  0  0
   -5.1459   -1.0382    2.2478 H   0  0  0  0  0  0  0  0  0  0  0  0
   -6.6915   -0.2191    2.2596 H   0  0  0  0  0  0  0  0  0  0  0  0
   -3.9142   -1.7607   -0.7178 H   0  0  0  0  0  0  0  0  0  0  0  0
   -1.5956   -1.9145   -1.3565 H   0  0  0  0  0  0  0  0  0  0  0  0
   -1.0002    2.1135   -0.1575 H   0  0  0  0  0  0  0  0  0  0  0  0
   -3.3696    2.2504    0.4882 H   0  0  0  0  0  0  0  0  0  0  0  0
    0.9337    1.8667   -0.7207 H   0  0  0  0  0  0  0  0  0  0  0  0
    2.8141    0.3752   -2.4932 H   0  0  0  0  0  0  0  0  0  0  0  0
    3.1032    1.9107   -1.5880 H   0  0  0  0  0  0  0  0  0  0  0  0
    3.8584    1.9457    0.6072 H   0  0  0  0  0  0  0  0  0  0  0  0
    5.1635    0.9103    2.3786 H   0  0  0  0  0  0  0  0  0  0  0  0
    4.5894   -2.9246    0.4588 H   0  0  0  0  0  0  0  0  0  0  0  0
    3.2857   -1.8040   -1.2903 H   0  0  0  0  0  0  0  0  0  0  0  0
  1  2  1  0
  2  3  2  0
  2  4  2  0
  2  5  1  0
  5  6  2  0
  6  7  1  0
  7  8  2  0
  8  9  1  0
  9 10  2  0
  8 11  1  0
 11 12  2  0
 11 13  1  0
 13 14  1  0
 14 15  1  0
 15 16  2  0
 16 17  1  0
 17 18  2  0
 18 19  1  0
 18 20  1  0
 20 21  2  0
 10  5  1  0
 21 15  1  0
  1 22  1  0
  1 23  1  0
  6 24  1  0
  7 25  1  0
  9 26  1  0
 10 27  1  0
 13 28  1  0
 14 29  1  0
 14 30  1  0
 16 31  1  0
 17 32  1  0
 20 33  1  0
 21 34  1  0
M  END
$$$$
