@<TRIPOS>MOLECULE
*****
 25 26 0 0 0
SMALL
GASTEIGER

@<TRIPOS>ATOM
      1 O           3.8426    0.3825    1.4926 O.2     1  UNL1       -0.2510
      2 C           3.5973    0.3756    0.2672 C.2     1  UNL1        0.3050
      3 O           4.5775    0.7527   -0.6264 O.3     1  UNL1       -0.4806
      4 C           2.2307   -0.0480   -0.1763 C.3     1  UNL1        0.0488
      5 C           1.3840   -0.4265    1.0067 C.3     1  UNL1       -0.0156
      6 C           0.0225   -0.8476    0.5852 C.ar    1  UNL1       -0.0218
      7 C          -0.4794   -2.1287    0.5042 C.ar    1  UNL1        0.0059
      8 N          -1.7667   -2.0886    0.0714 N.ar    1  UNL1       -0.3604
      9 C          -2.0909   -0.7829   -0.1250 C.ar    1  UNL1        0.0467
     10 C          -3.2589   -0.1632   -0.5562 C.ar    1  UNL1       -0.0378
     11 C          -3.3421    1.1885   -0.6741 C.ar    1  UNL1       -0.0598
     12 C          -2.2323    1.9448   -0.3542 C.ar    1  UNL1       -0.0611
     13 C          -1.0471    1.3833    0.0786 C.ar    1  UNL1       -0.0523
     14 C          -1.0035   -0.0103    0.1863 C.ar    1  UNL1        0.0028
     15 H           5.2889    1.4145   -0.3459 H       1  UNL1        0.2951
     16 H           2.4019   -0.9150   -0.8647 H       1  UNL1        0.0381
     17 H           1.7535    0.7613   -0.7299 H       1  UNL1        0.0381
     18 H           1.3270    0.4644    1.6650 H       1  UNL1        0.0319
     19 H           1.8984   -1.2135    1.5771 H       1  UNL1        0.0319
     20 H           0.1085   -3.0130    0.7599 H       1  UNL1        0.0810
     21 H          -2.3670   -2.9060   -0.0745 H       1  UNL1        0.1653
     22 H          -4.1064   -0.7990   -0.7968 H       1  UNL1        0.0638
     23 H          -4.2534    1.6929   -1.0114 H       1  UNL1        0.0618
     24 H          -2.2940    3.0053   -0.4455 H       1  UNL1        0.0618
     25 H          -0.1911    1.9764    0.3245 H       1  UNL1        0.0624
@<TRIPOS>BOND
     1     1     2    2
     2     2     3    1
     3     2     4    1
     4     4     5    1
     5     5     6    1
     6     6     7   ar
     7     7     8   ar
     8     8     9   ar
     9     9    10   ar
    10    10    11   ar
    11    11    12   ar
    12    12    13   ar
    13    13    14   ar
    14    14     6   ar
    15    14     9   ar
    16     3    15    1
    17     4    16    1
    18     4    17    1
    19     5    18    1
    20     5    19    1
    21     7    20    1
    22     8    21    1
    23    10    22    1
    24    11    23    1
    25    12    24    1
    26    13    25    1
