@<TRIPOS>MOLECULE
*****
 60 63 0 0 0
SMALL
GASTEIGER

@<TRIPOS>ATOM
      1 CL         10.9234    1.7571    0.4517 Cl      1  UNL1       -0.0835
      2 C           9.2952    1.1933    0.1039 C.ar    1  UNL1        0.0410
      3 C           8.2656    2.0565   -0.1469 C.ar    1  UNL1       -0.0428
      4 C           7.0164    1.5127   -0.4110 C.ar    1  UNL1       -0.0532
      5 C           6.7674    0.1626   -0.4323 C.ar    1  UNL1       -0.0237
      6 C           5.4692   -0.4311   -0.7061 C.2     1  UNL1       -0.0355
      7 C           4.3800    0.2548   -0.9655 C.2     1  UNL1        0.0699
      8 S           2.8521   -0.5789   -1.2843 S.O2    1  UNL1        0.0542
      9 O           1.8271    0.4152   -1.6917 O.2     1  UNL1       -0.1534
     10 O           3.0297   -1.5380   -2.4075 O.2     1  UNL1       -0.1534
     11 N           2.4019   -1.3548    0.1801 N.3     1  UNL1       -0.1747
     12 C           2.1855   -0.4579    1.2589 C.3     1  UNL1        0.0333
     13 C           0.9089    0.2892    1.2419 C.3     1  UNL1        0.0134
     14 N          -0.2297   -0.4410    0.7446 N.3     1  UNL1       -0.2995
     15 C          -1.1105    0.5452    0.1476 C.3     1  UNL1        0.0019
     16 C          -2.3253   -0.1505   -0.3958 C.3     1  UNL1       -0.0254
     17 C          -3.0271   -0.8525    0.7272 C.3     1  UNL1       -0.0332
     18 C          -4.1528   -0.0488    1.3423 C.3     1  UNL1        0.0125
     19 N          -5.0449    0.5271    0.3927 N.pl3   1  UNL1       -0.3298
     20 C          -4.2496    1.4801   -0.3052 C.3     1  UNL1        0.0125
     21 C          -3.2277    0.7779   -1.1654 C.3     1  UNL1       -0.0332
     22 C          -6.4125    0.2197    0.1891 C.ar    1  UNL1        0.0326
     23 C          -7.0854   -0.7123    0.9142 C.ar    1  UNL1       -0.0225
     24 C          -8.4134   -1.0196    0.7250 C.ar    1  UNL1        0.0293
     25 N          -9.1000   -0.3648   -0.2333 N.ar    1  UNL1       -0.2631
     26 C          -8.4915    0.5808   -0.9976 C.ar    1  UNL1        0.0293
     27 C          -7.1603    0.8521   -0.7692 C.ar    1  UNL1       -0.0225
     28 C           0.0468   -1.4577   -0.2080 C.3     1  UNL1        0.0134
     29 C           1.3036   -2.2564    0.0534 C.3     1  UNL1        0.0333
     30 C           7.8561   -0.6387   -0.1699 C.ar    1  UNL1       -0.0532
     31 C           9.1227   -0.1622    0.0997 C.ar    1  UNL1       -0.0428
     32 H           8.4314    3.1174   -0.1368 H       1  UNL1        0.0632
     33 H           6.2083    2.2029   -0.6081 H       1  UNL1        0.0624
     34 H           5.3633   -1.4999   -0.7029 H       1  UNL1        0.0637
     35 H           4.4148    1.3261   -0.9846 H       1  UNL1        0.0835
     36 H           3.0324    0.2800    1.2628 H       1  UNL1        0.0456
     37 H           2.2984   -1.0495    2.2100 H       1  UNL1        0.0456
     38 H           1.0521    1.2634    0.6899 H       1  UNL1        0.0440
     39 H           0.6631    0.6056    2.2808 H       1  UNL1        0.0440
     40 H          -1.4116    1.3079    0.9226 H       1  UNL1        0.0429
     41 H          -0.6128    1.1237   -0.6413 H       1  UNL1        0.0429
     42 H          -1.9849   -0.9159   -1.1233 H       1  UNL1        0.0314
     43 H          -2.2965   -1.0334    1.5428 H       1  UNL1        0.0283
     44 H          -3.3641   -1.8597    0.4100 H       1  UNL1        0.0283
     45 H          -4.7120   -0.7524    1.9870 H       1  UNL1        0.0464
     46 H          -3.7328    0.7114    2.0618 H       1  UNL1        0.0464
     47 H          -4.8715    2.0805   -0.9982 H       1  UNL1        0.0464
     48 H          -3.7560    2.2466    0.3489 H       1  UNL1        0.0464
     49 H          -2.5834    1.5341   -1.6594 H       1  UNL1        0.0283
     50 H          -3.8010    0.1666   -1.8948 H       1  UNL1        0.0283
     51 H          -6.6264   -1.2853    1.6977 H       1  UNL1        0.0651
     52 H          -8.9453   -1.7606    1.3027 H       1  UNL1        0.0830
     53 H          -9.0941    1.0604   -1.7383 H       1  UNL1        0.0830
     54 H          -6.7792    1.6098   -1.4234 H       1  UNL1        0.0651
     55 H          -0.7840   -2.2200   -0.1253 H       1  UNL1        0.0440
     56 H           0.0393   -1.1154   -1.2604 H       1  UNL1        0.0440
     57 H           1.1932   -2.8237    0.9781 H       1  UNL1        0.0456
     58 H           1.4385   -2.9387   -0.7942 H       1  UNL1        0.0456
     59 H           7.6876   -1.7248   -0.1801 H       1  UNL1        0.0624
     60 H           9.9125   -0.8710    0.2933 H       1  UNL1        0.0632
@<TRIPOS>BOND
     1     1     2    1
     2     2     3   ar
     3     3     4   ar
     4     4     5   ar
     5     5     6    1
     6     6     7    2
     7     7     8    1
     8     8     9    2
     9     8    10    2
    10     8    11    1
    11    11    12    1
    12    12    13    1
    13    13    14    1
    14    14    15    1
    15    15    16    1
    16    16    17    1
    17    17    18    1
    18    18    19    1
    19    19    20    1
    20    20    21    1
    21    19    22    1
    22    22    23   ar
    23    23    24   ar
    24    24    25   ar
    25    25    26   ar
    26    26    27   ar
    27    14    28    1
    28    28    29    1
    29     5    30   ar
    30    30    31   ar
    31    31     2   ar
    32    29    11    1
    33    21    16    1
    34    27    22   ar
    35     3    32    1
    36     4    33    1
    37     6    34    1
    38     7    35    1
    39    12    36    1
    40    12    37    1
    41    13    38    1
    42    13    39    1
    43    15    40    1
    44    15    41    1
    45    16    42    1
    46    17    43    1
    47    17    44    1
    48    18    45    1
    49    18    46    1
    50    20    47    1
    51    20    48    1
    52    21    49    1
    53    21    50    1
    54    23    51    1
    55    24    52    1
    56    26    53    1
    57    27    54    1
    58    28    55    1
    59    28    56    1
    60    29    57    1
    61    29    58    1
    62    30    59    1
    63    31    60    1
