@<TRIPOS>MOLECULE
*****
 51 56 0 0 0
SMALL
GASTEIGER

@<TRIPOS>ATOM
      1 C           3.9452    2.2791   -0.2107 C.3     1  UNL1       -0.0203
      2 C           3.5186    0.8796   -0.2473 C.ar    1  UNL1        0.0660
      3 N           4.2335   -0.1626   -0.6309 N.ar    1  UNL1       -0.1752
      4 N           3.5360   -1.2830   -0.5374 N.ar    1  UNL1       -0.2556
      5 C           3.9563   -2.6153   -0.8573 C.3     1  UNL1        0.0537
      6 C           3.1898   -3.5001   -1.7443 C.3     1  UNL1       -0.0285
      7 C           4.3925   -2.7790   -2.3229 C.3     1  UNL1       -0.0285
      8 C           2.2983   -0.9500   -0.0666 C.ar    1  UNL1        0.1297
      9 C           2.2596    0.4029    0.1244 C.ar    1  UNL1        0.0305
     10 C           0.9483    0.7787    0.6262 C.3     1  UNL1        0.0868
     11 C           0.2912    1.8435   -0.1599 C.ar    1  UNL1       -0.0220
     12 C           0.2838    3.1414    0.3080 C.ar    1  UNL1       -0.0551
     13 C          -0.3060    4.1891   -0.3635 C.ar    1  UNL1       -0.0431
     14 C          -0.9247    3.9133   -1.5778 C.ar    1  UNL1        0.0410
     15 CL         -1.6693    5.2323   -2.4270 Cl      1  UNL1       -0.0835
     16 C          -0.9292    2.6091   -2.0695 C.ar    1  UNL1       -0.0431
     17 C          -0.3202    1.6051   -1.3472 C.ar    1  UNL1       -0.0551
     18 N           0.1917   -0.4184    0.7300 N.am    1  UNL1       -0.2376
     19 C          -1.1563   -0.6165    1.1691 C.ar    1  UNL1        0.1499
     20 C          -1.5142   -0.8614    2.4615 C.ar    1  UNL1       -0.0131
     21 C          -2.8394   -1.0426    2.8102 C.ar    1  UNL1       -0.0012
     22 C          -3.3046   -1.3107    4.1827 C.3     1  UNL1       -0.0360
     23 C          -3.7602   -0.9616    1.7880 C.ar    1  UNL1        0.1811
     24 N          -5.0969   -1.0896    1.8050 N.ar    1  UNL1       -0.1275
     25 N          -5.5837   -0.9370    0.5934 N.ar    1  UNL1       -0.1263
     26 C          -4.5378   -0.7063   -0.2181 C.ar    1  UNL1        0.2205
     27 C          -4.5142   -0.4643   -1.6840 C.3     1  UNL1        0.2993
     28 F          -3.7229   -1.3880   -2.3272 F       1  UNL1       -0.2005
     29 F          -4.0529    0.8226   -1.9346 F       1  UNL1       -0.2005
     30 N          -3.4043   -0.7225    0.5303 N.ar    1  UNL1       -0.1896
     31 N          -2.1127   -0.5519    0.2271 N.ar    1  UNL1       -0.1476
     32 C           1.0093   -1.4967    0.3063 C.2     1  UNL1        0.2711
     33 O           0.7287   -2.7239    0.2419 O.2     1  UNL1       -0.2679
     34 H           4.7963    2.4108   -0.8937 H       1  UNL1        0.0293
     35 H           4.1954    2.6496    0.8036 H       1  UNL1        0.0293
     36 H           3.1059    2.8880   -0.6593 H       1  UNL1        0.0293
     37 H           4.6565   -3.0893   -0.1271 H       1  UNL1        0.0545
     38 H           3.3330   -4.5920   -1.6129 H       1  UNL1        0.0286
     39 H           2.2047   -3.2288   -2.1504 H       1  UNL1        0.0286
     40 H           5.3064   -3.3415   -2.5370 H       1  UNL1        0.0286
     41 H           4.1999   -1.9490   -3.0190 H       1  UNL1        0.0286
     42 H           1.0650    1.1635    1.6824 H       1  UNL1        0.0606
     43 H           0.7639    3.3592    1.2516 H       1  UNL1        0.0621
     44 H          -0.2923    5.2116    0.0401 H       1  UNL1        0.0632
     45 H          -1.4163    2.4176   -3.0159 H       1  UNL1        0.0632
     46 H          -0.3462    0.6099   -1.7630 H       1  UNL1        0.0621
     47 H          -0.7588   -0.9149    3.2208 H       1  UNL1        0.0656
     48 H          -4.0060   -2.1683    4.1602 H       1  UNL1        0.0279
     49 H          -2.4630   -1.6274    4.8482 H       1  UNL1        0.0279
     50 H          -3.8024   -0.4084    4.6302 H       1  UNL1        0.0279
     51 H          -5.5754   -0.5061   -2.0368 H       1  UNL1        0.1105
@<TRIPOS>BOND
     1     1     2    1
     2     2     3   ar
     3     3     4   ar
     4     4     5    1
     5     5     6    1
     6     6     7    1
     7     4     8   ar
     8     8     9   ar
     9     9    10    1
    10    10    11    1
    11    11    12   ar
    12    12    13   ar
    13    13    14   ar
    14    14    15    1
    15    14    16   ar
    16    16    17   ar
    17    10    18    1
    18    18    19    1
    19    19    20   ar
    20    20    21   ar
    21    21    22    1
    22    21    23   ar
    23    23    24   ar
    24    24    25   ar
    25    25    26   ar
    26    26    27    1
    27    27    28    1
    28    27    29    1
    29    26    30   ar
    30    30    31   ar
    31    18    32   am
    32    32    33    2
    33     9     2   ar
    34    17    11   ar
    35    31    19   ar
    36     7     5    1
    37    32     8    1
    38    30    23   ar
    39     1    34    1
    40     1    35    1
    41     1    36    1
    42     5    37    1
    43     6    38    1
    44     6    39    1
    45     7    40    1
    46     7    41    1
    47    10    42    1
    48    12    43    1
    49    13    44    1
    50    16    45    1
    51    17    46    1
    52    20    47    1
    53    22    48    1
    54    22    49    1
    55    22    50    1
    56    27    51    1
