
     RDKit          3D

 40 41  0  0  0  0  0  0  0  0999 V2000
   -5.4516    2.6232   -1.7962 C   0  0  0  0  0  0  0  0  0  0  0  0
   -4.9599    1.3231   -2.3120 C   0  0  0  0  0  0  0  0  0  0  0  0
   -4.2437    1.3693   -3.3666 O   0  0  0  0  0  0  0  0  0  0  0  0
   -5.2471    0.0742   -1.6970 N   0  0  0  0  0  0  0  0  0  0  0  0
   -4.3032   -0.4980   -1.0298 C   0  0  0  0  0  0  0  0  0  0  0  0
   -4.2181   -1.6018   -0.3648 N   0  0  0  0  0  0  0  0  0  0  0  0
   -3.1122   -1.9802    0.2493 C   0  0  0  0  0  0  0  0  0  0  0  0
   -3.0433   -3.2869    1.0522 C   0  0  0  0  0  0  0  0  0  0  0  0
   -2.0341   -1.1886    0.1797 C   0  0  0  0  0  0  0  0  0  0  0  0
   -0.6699   -1.1549    0.6631 C   0  0  0  0  0  0  0  0  0  0  0  0
   -0.0869   -2.1847    1.3230 C   0  0  0  0  0  0  0  0  0  0  0  0
    1.2351   -2.1043    1.8001 C   0  0  0  0  0  0  0  0  0  0  0  0
    1.9959   -0.9688    1.6141 C   0  0  0  0  0  0  0  0  0  0  0  0
    3.6403   -0.9335    2.2658 Cl  0  0  0  0  0  0  0  0  0  0  0  0
    1.4315    0.0792    0.9519 C   0  0  0  0  0  0  0  0  0  0  0  0
    2.3285    1.5412    0.6499 S   0  0  0  0  0  6  0  0  0  0  0  0
    1.4336    2.5745    0.0195 O   0  0  0  0  0  0  0  0  0  0  0  0
    2.8806    2.0588    1.9690 O   0  0  0  0  0  0  0  0  0  0  0  0
    3.6504    1.2710   -0.3704 N   0  0  0  0  0  0  0  0  0  0  0  0
    4.9407    1.5659    0.1656 C   0  0  0  0  0  0  0  0  0  0  0  0
    5.9626    1.2418   -0.9310 C   0  0  0  0  0  0  0  0  0  0  0  0
    7.2500    1.4960   -0.5053 O   0  0  0  0  0  0  0  0  0  0  0  0
    0.1075   -0.0236    0.4843 C   0  0  0  0  0  0  0  0  0  0  0  0
   -2.6432    0.2338   -0.8554 S   0  0  0  0  0  0  0  0  0  0  0  0
   -4.6151    3.0817   -1.1995 H   0  0  0  0  0  0  0  0  0  0  0  0
   -5.6431    3.3109   -2.6522 H   0  0  0  0  0  0  0  0  0  0  0  0
   -6.3600    2.5262   -1.1699 H   0  0  0  0  0  0  0  0  0  0  0  0
   -5.1180   -2.2386   -0.3246 H   0  0  0  0  0  0  0  0  0  0  0  0
   -2.7218   -3.0410    2.0714 H   0  0  0  0  0  0  0  0  0  0  0  0
   -2.3969   -3.9708    0.5182 H   0  0  0  0  0  0  0  0  0  0  0  0
   -4.0762   -3.7044    1.1964 H   0  0  0  0  0  0  0  0  0  0  0  0
   -0.5957   -3.0955    1.4948 H   0  0  0  0  0  0  0  0  0  0  0  0
    1.6863   -2.9307    2.3239 H   0  0  0  0  0  0  0  0  0  0  0  0
    3.6818    0.3441   -0.8331 H   0  0  0  0  0  0  0  0  0  0  0  0
    5.2165    1.0984    1.0908 H   0  0  0  0  0  0  0  0  0  0  0  0
    5.0152    2.6805    0.3156 H   0  0  0  0  0  0  0  0  0  0  0  0
    5.8615    0.1731   -1.1961 H   0  0  0  0  0  0  0  0  0  0  0  0
    5.6959    1.8499   -1.8195 H   0  0  0  0  0  0  0  0  0  0  0  0
    7.8251    1.5651   -1.3080 H   0  0  0  0  0  0  0  0  0  0  0  0
   -0.2989    0.8243   -0.0302 H   0  0  0  0  0  0  0  0  0  0  0  0
  1  2  1  0
  2  3  2  0
  2  4  1  0
  4  5  2  0
  5  6  1  0
  6  7  1  0
  7  8  1  0
  7  9  2  0
  9 10  1  0
 10 11  2  0
 11 12  1  0
 12 13  2  0
 13 14  1  0
 13 15  1  0
 15 16  1  0
 16 17  2  0
 16 18  2  0
 16 19  1  0
 19 20  1  0
 20 21  1  0
 21 22  1  0
 15 23  2  0
  9 24  1  0
 24  5  1  0
 23 10  1  0
  1 25  1  0
  1 26  1  0
  1 27  1  0
  6 28  1  0
  8 29  1  0
  8 30  1  0
  8 31  1  0
 11 32  1  0
 12 33  1  0
 19 34  1  0
 20 35  1  0
 20 36  1  0
 21 37  1  0
 21 38  1  0
 22 39  1  0
 23 40  1  0
M  END
$$$$
