@<TRIPOS>MOLECULE
*****
 40 41 0 0 0
SMALL
GASTEIGER

@<TRIPOS>ATOM
      1 C          -5.4516    2.6232   -1.7962 C.3     1  UNL1        0.0142
      2 C          -4.9599    1.3231   -2.3120 C.2     1  UNL1        0.2353
      3 O          -4.2437    1.3693   -3.3666 O.2     1  UNL1       -0.2739
      4 N          -5.2471    0.0742   -1.6970 N.am    1  UNL1       -0.1568
      5 C          -4.3032   -0.4980   -1.0298 C.ar    1  UNL1        0.1636
      6 N          -4.2181   -1.6018   -0.3648 N.ar    1  UNL1       -0.3389
      7 C          -3.1122   -1.9802    0.2493 C.ar    1  UNL1        0.0292
      8 C          -3.0433   -3.2869    1.0522 C.3     1  UNL1       -0.0233
      9 C          -2.0341   -1.1886    0.1797 C.ar    1  UNL1        0.0414
     10 C          -0.6699   -1.1549    0.6631 C.ar    1  UNL1       -0.0076
     11 C          -0.0869   -2.1847    1.3230 C.ar    1  UNL1       -0.0520
     12 C           1.2351   -2.1043    1.8001 C.ar    1  UNL1       -0.0409
     13 C           1.9959   -0.9688    1.6141 C.ar    1  UNL1        0.0673
     14 CL          3.6403   -0.9335    2.2658 Cl      1  UNL1       -0.0815
     15 C           1.4315    0.0792    0.9519 C.ar    1  UNL1        0.1240
     16 S           2.3285    1.5412    0.6499 S.O2    1  UNL1        0.0599
     17 O           1.4336    2.5745    0.0195 O.2     1  UNL1       -0.1530
     18 O           2.8806    2.0588    1.9690 O.2     1  UNL1       -0.1530
     19 N           3.6504    1.2710   -0.3704 N.3     1  UNL1       -0.1877
     20 C           4.9407    1.5659    0.1656 C.3     1  UNL1        0.0406
     21 C           5.9626    1.2418   -0.9310 C.3     1  UNL1        0.0583
     22 O           7.2500    1.4960   -0.5053 O.3     1  UNL1       -0.3937
     23 C           0.1075   -0.0236    0.4843 C.ar    1  UNL1       -0.0256
     24 S          -2.6432    0.2338   -0.8554 S.2     1  UNL1       -0.0520
     25 H          -4.6151    3.0817   -1.1995 H       1  UNL1        0.0323
     26 H          -5.6431    3.3109   -2.6522 H       1  UNL1        0.0323
     27 H          -6.3600    2.5262   -1.1699 H       1  UNL1        0.0323
     28 H          -5.1180   -2.2386   -0.3246 H       1  UNL1        0.1673
     29 H          -2.7218   -3.0410    2.0714 H       1  UNL1        0.0292
     30 H          -2.3969   -3.9708    0.5182 H       1  UNL1        0.0292
     31 H          -4.0762   -3.7044    1.1964 H       1  UNL1        0.0292
     32 H          -0.5957   -3.0955    1.4948 H       1  UNL1        0.0624
     33 H           1.6863   -2.9307    2.3239 H       1  UNL1        0.0633
     34 H           3.6818    0.3441   -0.8331 H       1  UNL1        0.1481
     35 H           5.2165    1.0984    1.0908 H       1  UNL1        0.0464
     36 H           5.0152    2.6805    0.3156 H       1  UNL1        0.0464
     37 H           5.8615    0.1731   -1.1961 H       1  UNL1        0.0570
     38 H           5.6959    1.8499   -1.8195 H       1  UNL1        0.0570
     39 H           7.8251    1.5651   -1.3080 H       1  UNL1        0.2095
     40 H          -0.2989    0.8243   -0.0302 H       1  UNL1        0.0644
@<TRIPOS>BOND
     1     1     2    1
     2     2     3    2
     3     2     4    1
     4     4     5    2
     5     5     6   ar
     6     6     7   ar
     7     7     8    1
     8     7     9   ar
     9     9    10    1
    10    10    11   ar
    11    11    12   ar
    12    12    13   ar
    13    13    14    1
    14    13    15   ar
    15    15    16    1
    16    16    17    2
    17    16    18    2
    18    16    19    1
    19    19    20    1
    20    20    21    1
    21    21    22    1
    22    15    23   ar
    23     9    24   ar
    24    24     5   ar
    25    23    10   ar
    26     1    25    1
    27     1    26    1
    28     1    27    1
    29     6    28    1
    30     8    29    1
    31     8    30    1
    32     8    31    1
    33    11    32    1
    34    12    33    1
    35    19    34    1
    36    20    35    1
    37    20    36    1
    38    21    37    1
    39    21    38    1
    40    22    39    1
    41    23    40    1
