@<TRIPOS>MOLECULE
*****
 84 90 0 0 0
SMALL
GASTEIGER

@<TRIPOS>ATOM
      1 C          -5.5475    6.0107   -0.9994 C.3     1  UNL1        0.0788
      2 O          -5.3391    5.2703    0.2005 O.3     1  UNL1       -0.4951
      3 C          -5.6212    3.9039    0.2560 C.ar    1  UNL1        0.1202
      4 C          -6.1089    3.2094   -0.8301 C.ar    1  UNL1       -0.0179
      5 C          -6.3653    1.8476   -0.6937 C.ar    1  UNL1       -0.0327
      6 C          -6.1518    1.1635    0.4832 C.ar    1  UNL1        0.0677
      7 N          -6.4430   -0.2261    0.5309 N.ar    1  UNL1       -0.2181
      8 N          -7.5528   -0.7409   -0.0173 N.ar    1  UNL1       -0.1691
      9 C          -7.5897   -2.0626    0.1654 C.ar    1  UNL1        0.0706
     10 C          -8.6395   -3.0326   -0.2788 C.3     1  UNL1        0.0063
     11 C          -9.7077   -3.1998    0.7776 C.3     1  UNL1       -0.0546
     12 C          -9.2941   -2.4598   -1.5241 C.3     1  UNL1       -0.0546
     13 C          -8.0414   -4.3691   -0.6071 C.3     1  UNL1       -0.0546
     14 C          -6.4416   -2.3813    0.8635 C.ar    1  UNL1        0.0021
     15 C          -5.7267   -1.2187    1.0887 C.ar    1  UNL1        0.1299
     16 N          -4.4873   -1.0860    1.7709 N.am    1  UNL1       -0.2538
     17 C          -3.2317   -1.1855    1.0928 C.2     1  UNL1        0.3092
     18 O          -3.1835   -1.3979   -0.1489 O.2     1  UNL1       -0.2521
     19 N          -1.9959   -1.0512    1.7806 N.am    1  UNL1       -0.2686
     20 C          -0.7242   -1.1456    1.1450 C.ar    1  UNL1        0.0427
     21 C          -0.0746   -2.3532    1.0329 C.ar    1  UNL1       -0.0363
     22 C           1.1453   -2.4228    0.4222 C.ar    1  UNL1       -0.0169
     23 C           1.7854   -1.2978   -0.1092 C.ar    1  UNL1        0.1381
     24 O           3.0150   -1.4148   -0.7155 O.3     1  UNL1       -0.4373
     25 C           4.1985   -0.8445   -0.2505 C.ar    1  UNL1        0.2249
     26 C           4.3121   -0.1250    0.9109 C.ar    1  UNL1        0.0186
     27 C           5.5118    0.4064    1.3112 C.ar    1  UNL1        0.0362
     28 N           6.5716    0.2024    0.5347 N.ar    1  UNL1       -0.2225
     29 C           6.4894   -0.4898   -0.5935 C.ar    1  UNL1        0.2226
     30 N           7.6390   -0.6869   -1.3913 N.pl3   1  UNL1       -0.2835
     31 C           8.9338   -0.2894   -1.0525 C.ar    1  UNL1        0.0343
     32 C           9.8642   -0.2312   -2.0929 C.ar    1  UNL1       -0.0384
     33 C          11.1609    0.1266   -1.8640 C.ar    1  UNL1       -0.0343
     34 C          11.5838    0.4398   -0.5963 C.ar    1  UNL1        0.0687
     35 C          10.6961    0.3891    0.4274 C.ar    1  UNL1        0.0215
     36 C          11.3762    0.7432    1.5632 C.ar    1  UNL1        0.0572
     37 N          12.6480    0.9961    1.1934 N.ar    1  UNL1       -0.1788
     38 N          12.7801    0.8113   -0.1305 N.ar    1  UNL1       -0.2667
     39 C          14.0051    0.9873   -0.8947 C.3     1  UNL1        0.0309
     40 C           9.3682    0.0246    0.2055 C.ar    1  UNL1       -0.0298
     41 N           5.2901   -1.0265   -1.0030 N.ar    1  UNL1       -0.1789
     42 C           1.1290   -0.0934    0.0049 C.ar    1  UNL1        0.0262
     43 C           1.6810    1.0699   -0.5113 C.ar    1  UNL1       -0.0505
     44 C           0.9916    2.2470   -0.3911 C.ar    1  UNL1       -0.0611
     45 C          -0.2403    2.3365    0.2243 C.ar    1  UNL1       -0.0611
     46 C          -0.7864    1.1916    0.7319 C.ar    1  UNL1       -0.0521
     47 C          -0.1067   -0.0235    0.6240 C.ar    1  UNL1        0.0069
     48 C          -5.6629    1.8843    1.5540 C.ar    1  UNL1       -0.0327
     49 C          -5.3994    3.2445    1.4420 C.ar    1  UNL1       -0.0179
     50 H          -6.6016    5.8666   -1.3501 H       1  UNL1        0.0660
     51 H          -5.3192    7.0580   -0.7804 H       1  UNL1        0.0660
     52 H          -4.8695    5.5579   -1.7558 H       1  UNL1        0.0660
     53 H          -6.2832    3.7219   -1.7574 H       1  UNL1        0.0655
     54 H          -6.7500    1.2857   -1.5412 H       1  UNL1        0.0640
     55 H          -9.9578   -4.2645    0.9592 H       1  UNL1        0.0239
     56 H         -10.6113   -2.6133    0.5126 H       1  UNL1        0.0239
     57 H          -9.2992   -2.7745    1.7186 H       1  UNL1        0.0239
     58 H         -10.2563   -3.0227   -1.6839 H       1  UNL1        0.0239
     59 H          -8.6240   -2.5511   -2.4047 H       1  UNL1        0.0239
     60 H          -9.5300   -1.3879   -1.4197 H       1  UNL1        0.0239
     61 H          -7.0713   -4.2315   -1.1280 H       1  UNL1        0.0239
     62 H          -7.8276   -4.9577    0.3258 H       1  UNL1        0.0239
     63 H          -8.7695   -4.9392   -1.2378 H       1  UNL1        0.0239
     64 H          -6.1765   -3.3970    1.1703 H       1  UNL1        0.0671
     65 H          -4.4500   -0.9094    2.7976 H       1  UNL1        0.1578
     66 H          -1.9898   -0.8708    2.8217 H       1  UNL1        0.1564
     67 H          -0.5704   -3.2141    1.4432 H       1  UNL1        0.0637
     68 H           1.6422   -3.3766    0.3419 H       1  UNL1        0.0655
     69 H           3.4450    0.0252    1.5212 H       1  UNL1        0.0686
     70 H           5.5582    0.9740    2.2443 H       1  UNL1        0.0832
     71 H           7.4808   -1.1754   -2.3048 H       1  UNL1        0.1550
     72 H           9.5671   -0.4690   -3.0954 H       1  UNL1        0.0637
     73 H          11.8626    0.1630   -2.6954 H       1  UNL1        0.0639
     74 H          10.9721    0.8090    2.5680 H       1  UNL1        0.0854
     75 H          14.7054    0.1506   -0.7673 H       1  UNL1        0.0473
     76 H          13.7152    1.1529   -1.9534 H       1  UNL1        0.0473
     77 H          14.4907    1.9359   -0.5515 H       1  UNL1        0.0473
     78 H           8.7184   -0.0059    1.0698 H       1  UNL1        0.0643
     79 H           2.6264    1.0328   -1.0073 H       1  UNL1        0.0625
     80 H           1.4581    3.1380   -0.8085 H       1  UNL1        0.0618
     81 H          -0.7476    3.2926    0.2959 H       1  UNL1        0.0618
     82 H          -1.7378    1.1983    1.2186 H       1  UNL1        0.0624
     83 H          -5.4953    1.3578    2.4718 H       1  UNL1        0.0640
     84 H          -5.0169    3.7906    2.2918 H       1  UNL1        0.0655
@<TRIPOS>BOND
     1     1     2    1
     2     2     3    1
     3     3     4   ar
     4     4     5   ar
     5     5     6   ar
     6     6     7    1
     7     7     8   ar
     8     8     9   ar
     9     9    10    1
    10    10    11    1
    11    10    12    1
    12    10    13    1
    13     9    14   ar
    14    14    15   ar
    15    15    16    1
    16    16    17   am
    17    17    18    2
    18    17    19   am
    19    19    20    1
    20    20    21   ar
    21    21    22   ar
    22    22    23   ar
    23    23    24    1
    24    24    25    1
    25    25    26   ar
    26    26    27   ar
    27    27    28   ar
    28    28    29   ar
    29    29    30    1
    30    30    31    1
    31    31    32   ar
    32    32    33   ar
    33    33    34   ar
    34    34    35   ar
    35    35    36   ar
    36    36    37   ar
    37    37    38   ar
    38    38    39    1
    39    35    40   ar
    40    29    41   ar
    41    23    42   ar
    42    42    43   ar
    43    43    44   ar
    44    44    45   ar
    45    45    46   ar
    46    46    47   ar
    47     6    48   ar
    48    48    49   ar
    49    49     3   ar
    50    15     7   ar
    51    47    20   ar
    52    41    25   ar
    53    47    42   ar
    54    40    31   ar
    55    38    34   ar
    56     1    50    1
    57     1    51    1
    58     1    52    1
    59     4    53    1
    60     5    54    1
    61    11    55    1
    62    11    56    1
    63    11    57    1
    64    12    58    1
    65    12    59    1
    66    12    60    1
    67    13    61    1
    68    13    62    1
    69    13    63    1
    70    14    64    1
    71    16    65    1
    72    19    66    1
    73    21    67    1
    74    22    68    1
    75    26    69    1
    76    27    70    1
    77    30    71    1
    78    32    72    1
    79    33    73    1
    80    36    74    1
    81    39    75    1
    82    39    76    1
    83    39    77    1
    84    40    78    1
    85    43    79    1
    86    44    80    1
    87    45    81    1
    88    46    82    1
    89    48    83    1
    90    49    84    1
