
     RDKit          3D

 84 90  0  0  0  0  0  0  0  0999 V2000
   -5.5475    6.0107   -0.9994 C   0  0  0  0  0  0  0  0  0  0  0  0
   -5.3391    5.2703    0.2005 O   0  0  0  0  0  0  0  0  0  0  0  0
   -5.6212    3.9039    0.2560 C   0  0  0  0  0  0  0  0  0  0  0  0
   -6.1089    3.2094   -0.8301 C   0  0  0  0  0  0  0  0  0  0  0  0
   -6.3653    1.8476   -0.6937 C   0  0  0  0  0  0  0  0  0  0  0  0
   -6.1518    1.1635    0.4832 C   0  0  0  0  0  0  0  0  0  0  0  0
   -6.4430   -0.2261    0.5309 N   0  0  0  0  0  0  0  0  0  0  0  0
   -7.5528   -0.7409   -0.0173 N   0  0  0  0  0  0  0  0  0  0  0  0
   -7.5897   -2.0626    0.1654 C   0  0  0  0  0  0  0  0  0  0  0  0
   -8.6395   -3.0326   -0.2788 C   0  0  0  0  0  0  0  0  0  0  0  0
   -9.7077   -3.1998    0.7776 C   0  0  0  0  0  0  0  0  0  0  0  0
   -9.2941   -2.4598   -1.5241 C   0  0  0  0  0  0  0  0  0  0  0  0
   -8.0414   -4.3691   -0.6071 C   0  0  0  0  0  0  0  0  0  0  0  0
   -6.4416   -2.3813    0.8635 C   0  0  0  0  0  0  0  0  0  0  0  0
   -5.7267   -1.2187    1.0887 C   0  0  0  0  0  0  0  0  0  0  0  0
   -4.4873   -1.0860    1.7709 N   0  0  0  0  0  0  0  0  0  0  0  0
   -3.2317   -1.1855    1.0928 C   0  0  0  0  0  0  0  0  0  0  0  0
   -3.1835   -1.3979   -0.1489 O   0  0  0  0  0  0  0  0  0  0  0  0
   -1.9959   -1.0512    1.7806 N   0  0  0  0  0  0  0  0  0  0  0  0
   -0.7242   -1.1456    1.1450 C   0  0  0  0  0  0  0  0  0  0  0  0
   -0.0746   -2.3532    1.0329 C   0  0  0  0  0  0  0  0  0  0  0  0
    1.1453   -2.4228    0.4222 C   0  0  0  0  0  0  0  0  0  0  0  0
    1.7854   -1.2978   -0.1092 C   0  0  0  0  0  0  0  0  0  0  0  0
    3.0150   -1.4148   -0.7155 O   0  0  0  0  0  0  0  0  0  0  0  0
    4.1985   -0.8445   -0.2505 C   0  0  0  0  0  0  0  0  0  0  0  0
    4.3121   -0.1250    0.9109 C   0  0  0  0  0  0  0  0  0  0  0  0
    5.5118    0.4064    1.3112 C   0  0  0  0  0  0  0  0  0  0  0  0
    6.5716    0.2024    0.5347 N   0  0  0  0  0  0  0  0  0  0  0  0
    6.4894   -0.4898   -0.5935 C   0  0  0  0  0  0  0  0  0  0  0  0
    7.6390   -0.6869   -1.3913 N   0  0  0  0  0  0  0  0  0  0  0  0
    8.9338   -0.2894   -1.0525 C   0  0  0  0  0  0  0  0  0  0  0  0
    9.8642   -0.2312   -2.0929 C   0  0  0  0  0  0  0  0  0  0  0  0
   11.1609    0.1266   -1.8640 C   0  0  0  0  0  0  0  0  0  0  0  0
   11.5838    0.4398   -0.5963 C   0  0  0  0  0  0  0  0  0  0  0  0
   10.6961    0.3891    0.4274 C   0  0  0  0  0  0  0  0  0  0  0  0
   11.3762    0.7432    1.5632 C   0  0  0  0  0  0  0  0  0  0  0  0
   12.6480    0.9961    1.1934 N   0  0  0  0  0  0  0  0  0  0  0  0
   12.7801    0.8113   -0.1305 N   0  0  0  0  0  0  0  0  0  0  0  0
   14.0051    0.9873   -0.8947 C   0  0  0  0  0  0  0  0  0  0  0  0
    9.3682    0.0246    0.2055 C   0  0  0  0  0  0  0  0  0  0  0  0
    5.2901   -1.0265   -1.0030 N   0  0  0  0  0  0  0  0  0  0  0  0
    1.1290   -0.0934    0.0049 C   0  0  0  0  0  0  0  0  0  0  0  0
    1.6810    1.0699   -0.5113 C   0  0  0  0  0  0  0  0  0  0  0  0
    0.9916    2.2470   -0.3911 C   0  0  0  0  0  0  0  0  0  0  0  0
   -0.2403    2.3365    0.2243 C   0  0  0  0  0  0  0  0  0  0  0  0
   -0.7864    1.1916    0.7319 C   0  0  0  0  0  0  0  0  0  0  0  0
   -0.1067   -0.0235    0.6240 C   0  0  0  0  0  0  0  0  0  0  0  0
   -5.6629    1.8843    1.5540 C   0  0  0  0  0  0  0  0  0  0  0  0
   -5.3994    3.2445    1.4420 C   0  0  0  0  0  0  0  0  0  0  0  0
   -6.6016    5.8666   -1.3501 H   0  0  0  0  0  0  0  0  0  0  0  0
   -5.3192    7.0580   -0.7804 H   0  0  0  0  0  0  0  0  0  0  0  0
   -4.8695    5.5579   -1.7558 H   0  0  0  0  0  0  0  0  0  0  0  0
   -6.2832    3.7219   -1.7574 H   0  0  0  0  0  0  0  0  0  0  0  0
   -6.7500    1.2857   -1.5412 H   0  0  0  0  0  0  0  0  0  0  0  0
   -9.9578   -4.2645    0.9592 H   0  0  0  0  0  0  0  0  0  0  0  0
  -10.6113   -2.6133    0.5126 H   0  0  0  0  0  0  0  0  0  0  0  0
   -9.2992   -2.7745    1.7186 H   0  0  0  0  0  0  0  0  0  0  0  0
  -10.2563   -3.0227   -1.6839 H   0  0  0  0  0  0  0  0  0  0  0  0
   -8.6240   -2.5511   -2.4047 H   0  0  0  0  0  0  0  0  0  0  0  0
   -9.5300   -1.3879   -1.4197 H   0  0  0  0  0  0  0  0  0  0  0  0
   -7.0713   -4.2315   -1.1280 H   0  0  0  0  0  0  0  0  0  0  0  0
   -7.8276   -4.9577    0.3258 H   0  0  0  0  0  0  0  0  0  0  0  0
   -8.7695   -4.9392   -1.2378 H   0  0  0  0  0  0  0  0  0  0  0  0
   -6.1765   -3.3970    1.1703 H   0  0  0  0  0  0  0  0  0  0  0  0
   -4.4500   -0.9094    2.7976 H   0  0  0  0  0  0  0  0  0  0  0  0
   -1.9898   -0.8708    2.8217 H   0  0  0  0  0  0  0  0  0  0  0  0
   -0.5704   -3.2141    1.4432 H   0  0  0  0  0  0  0  0  0  0  0  0
    1.6422   -3.3766    0.3419 H   0  0  0  0  0  0  0  0  0  0  0  0
    3.4450    0.0252    1.5212 H   0  0  0  0  0  0  0  0  0  0  0  0
    5.5582    0.9740    2.2443 H   0  0  0  0  0  0  0  0  0  0  0  0
    7.4808   -1.1754   -2.3048 H   0  0  0  0  0  0  0  0  0  0  0  0
    9.5671   -0.4690   -3.0954 H   0  0  0  0  0  0  0  0  0  0  0  0
   11.8626    0.1630   -2.6954 H   0  0  0  0  0  0  0  0  0  0  0  0
   10.9721    0.8090    2.5680 H   0  0  0  0  0  0  0  0  0  0  0  0
   14.7054    0.1506   -0.7673 H   0  0  0  0  0  0  0  0  0  0  0  0
   13.7152    1.1529   -1.9534 H   0  0  0  0  0  0  0  0  0  0  0  0
   14.4907    1.9359   -0.5515 H   0  0  0  0  0  0  0  0  0  0  0  0
    8.7184   -0.0059    1.0698 H   0  0  0  0  0  0  0  0  0  0  0  0
    2.6264    1.0328   -1.0073 H   0  0  0  0  0  0  0  0  0  0  0  0
    1.4581    3.1380   -0.8085 H   0  0  0  0  0  0  0  0  0  0  0  0
   -0.7476    3.2926    0.2959 H   0  0  0  0  0  0  0  0  0  0  0  0
   -1.7378    1.1983    1.2186 H   0  0  0  0  0  0  0  0  0  0  0  0
   -5.4953    1.3578    2.4718 H   0  0  0  0  0  0  0  0  0  0  0  0
   -5.0169    3.7906    2.2918 H   0  0  0  0  0  0  0  0  0  0  0  0
  1  2  1  0
  2  3  1  0
  3  4  2  0
  4  5  1  0
  5  6  2  0
  6  7  1  0
  7  8  1  0
  8  9  2  0
  9 10  1  0
 10 11  1  0
 10 12  1  0
 10 13  1  0
  9 14  1  0
 14 15  2  0
 15 16  1  0
 16 17  1  0
 17 18  2  0
 17 19  1  0
 19 20  1  0
 20 21  2  0
 21 22  1  0
 22 23  2  0
 23 24  1  0
 24 25  1  0
 25 26  2  0
 26 27  1  0
 27 28  2  0
 28 29  1  0
 29 30  1  0
 30 31  1  0
 31 32  2  0
 32 33  1  0
 33 34  2  0
 34 35  1  0
 35 36  1  0
 36 37  2  0
 37 38  1  0
 38 39  1  0
 35 40  2  0
 29 41  2  0
 23 42  1  0
 42 43  2  0
 43 44  1  0
 44 45  2  0
 45 46  1  0
 46 47  2  0
  6 48  1  0
 48 49  2  0
 49  3  1  0
 15  7  1  0
 47 20  1  0
 41 25  1  0
 47 42  1  0
 40 31  1  0
 38 34  1  0
  1 50  1  0
  1 51  1  0
  1 52  1  0
  4 53  1  0
  5 54  1  0
 11 55  1  0
 11 56  1  0
 11 57  1  0
 12 58  1  0
 12 59  1  0
 12 60  1  0
 13 61  1  0
 13 62  1  0
 13 63  1  0
 14 64  1  0
 16 65  1  0
 19 66  1  0
 21 67  1  0
 22 68  1  0
 26 69  1  0
 27 70  1  0
 30 71  1  0
 32 72  1  0
 33 73  1  0
 36 74  1  0
 39 75  1  0
 39 76  1  0
 39 77  1  0
 40 78  1  0
 43 79  1  0
 44 80  1  0
 45 81  1  0
 46 82  1  0
 48 83  1  0
 49 84  1  0
M  END
$$$$
