@<TRIPOS>MOLECULE
*****
 42 44 0 0 0
SMALL
GASTEIGER

@<TRIPOS>ATOM
      1 C           4.2454   -0.1148    0.6895 C.3     1  UNL1       -0.0127
      2 N           3.3326    0.5055   -0.2239 N.3     1  UNL1       -0.3029
      3 C           2.4919    1.4558    0.4451 C.3     1  UNL1        0.0115
      4 C           1.5784    0.6966    1.3700 C.3     1  UNL1        0.0126
      5 N           0.8185   -0.2371    0.6492 N.3     1  UNL1       -0.2891
      6 C           1.3988   -1.0122   -0.3583 C.3     1  UNL1        0.0126
      7 C           2.6122   -0.4460   -1.0226 C.3     1  UNL1        0.0115
      8 C          -0.5852   -0.2221    0.8085 C.3     1  UNL1        0.0610
      9 C          -1.1264    1.0617    0.2937 C.ar    1  UNL1       -0.0259
     10 C          -0.8283    1.6584   -0.9134 C.ar    1  UNL1       -0.0568
     11 C          -1.3814    2.8569   -1.3114 C.ar    1  UNL1       -0.0614
     12 C          -2.2756    3.5277   -0.5055 C.ar    1  UNL1       -0.0617
     13 C          -2.6213    2.9976    0.7090 C.ar    1  UNL1       -0.0614
     14 C          -2.0402    1.8117    1.0433 C.ar    1  UNL1       -0.0568
     15 C          -1.3143   -1.3844    0.2365 C.ar    1  UNL1       -0.0258
     16 C          -1.0340   -2.7174    0.4126 C.ar    1  UNL1       -0.0554
     17 C          -1.7996   -3.6922   -0.1927 C.ar    1  UNL1       -0.0431
     18 C          -2.8744   -3.3943   -0.9972 C.ar    1  UNL1        0.0410
     19 CL         -3.8057   -4.6815   -1.7363 Cl      1  UNL1       -0.0835
     20 C          -3.1932   -2.0728   -1.2023 C.ar    1  UNL1       -0.0431
     21 C          -2.4138   -1.1131   -0.5871 C.ar    1  UNL1       -0.0554
     22 H           4.0239   -1.2017    0.6826 H       1  UNL1        0.0391
     23 H           4.1382    0.2395    1.7281 H       1  UNL1        0.0391
     24 H           5.2699    0.0581    0.3082 H       1  UNL1        0.0391
     25 H           1.9123    2.0899   -0.2257 H       1  UNL1        0.0439
     26 H           3.1797    2.0978    1.0608 H       1  UNL1        0.0439
     27 H           0.8681    1.4551    1.8167 H       1  UNL1        0.0439
     28 H           2.1281    0.2730    2.2405 H       1  UNL1        0.0439
     29 H           0.6317   -1.2870   -1.1116 H       1  UNL1        0.0439
     30 H           1.7318   -2.0009    0.0830 H       1  UNL1        0.0439
     31 H           3.3296   -1.2382   -1.3181 H       1  UNL1        0.0439
     32 H           2.3141    0.0699   -1.9582 H       1  UNL1        0.0439
     33 H          -0.7683   -0.1929    1.9362 H       1  UNL1        0.0562
     34 H          -0.1116    1.1104   -1.5472 H       1  UNL1        0.0621
     35 H          -1.0790    3.2505   -2.2936 H       1  UNL1        0.0618
     36 H          -2.6831    4.4566   -0.8513 H       1  UNL1        0.0618
     37 H          -3.3133    3.4775    1.3774 H       1  UNL1        0.0618
     38 H          -2.3221    1.3904    2.0211 H       1  UNL1        0.0621
     39 H          -0.2074   -2.9541    1.0387 H       1  UNL1        0.0621
     40 H          -1.5082   -4.7158   -0.0002 H       1  UNL1        0.0632
     41 H          -4.0267   -1.7783   -1.8242 H       1  UNL1        0.0632
     42 H          -2.6926   -0.0838   -0.7699 H       1  UNL1        0.0621
@<TRIPOS>BOND
     1     1     2    1
     2     2     3    1
     3     3     4    1
     4     4     5    1
     5     5     6    1
     6     6     7    1
     7     5     8    1
     8     8     9    1
     9     9    10   ar
    10    10    11   ar
    11    11    12   ar
    12    12    13   ar
    13    13    14   ar
    14     8    15    1
    15    15    16   ar
    16    16    17   ar
    17    17    18   ar
    18    18    19    1
    19    18    20   ar
    20    20    21   ar
    21     7     2    1
    22    14     9   ar
    23    21    15   ar
    24     1    22    1
    25     1    23    1
    26     1    24    1
    27     3    25    1
    28     3    26    1
    29     4    27    1
    30     4    28    1
    31     6    29    1
    32     6    30    1
    33     7    31    1
    34     7    32    1
    35     8    33    1
    36    10    34    1
    37    11    35    1
    38    12    36    1
    39    13    37    1
    40    14    38    1
    41    16    39    1
    42    17    40    1
    43    20    41    1
    44    21    42    1
