@<TRIPOS>MOLECULE
*****
 48 50 0 0 0
SMALL
GASTEIGER

@<TRIPOS>ATOM
      1 C           5.9620    0.5233    1.4520 C.3     1  UNL1       -0.0570
      2 C           4.5300    0.9699    1.4096 C.3     1  UNL1        0.0213
      3 C           3.9023    0.4307    0.1442 C.2     1  UNL1        0.2153
      4 O           4.6178   -0.3055   -0.5573 O.2     1  UNL1       -0.2756
      5 N           2.5897    0.7614   -0.1828 N.am    1  UNL1       -0.2997
      6 C           1.7404    1.6180    0.6085 C.3     1  UNL1        0.0165
      7 C           0.7810    2.1722   -0.4780 C.3     1  UNL1       -0.0170
      8 C           0.5275    0.9400   -1.2920 C.3     1  UNL1        0.0410
      9 N          -0.5742    0.1139   -0.8192 N.pl3   1  UNL1       -0.3209
     10 C          -0.5814   -1.2494   -1.2438 C.3     1  UNL1        0.0390
     11 C          -1.2547   -2.2826   -0.4709 C.ar    1  UNL1       -0.0105
     12 C          -2.5224   -2.8028   -0.7558 C.ar    1  UNL1       -0.0373
     13 C          -3.1283   -3.7884   -0.0413 C.ar    1  UNL1        0.0414
     14 CL         -4.7148   -4.4299   -0.4081 Cl      1  UNL1       -0.0835
     15 C          -2.4618   -4.3466    1.0682 C.ar    1  UNL1       -0.0420
     16 C          -1.2184   -3.8286    1.3402 C.ar    1  UNL1       -0.0417
     17 C          -0.5983   -2.8422    0.6348 C.ar    1  UNL1        0.0457
     18 CL          1.0020   -2.2978    1.1129 Cl      1  UNL1       -0.0832
     19 C          -1.6680    0.7827   -0.2042 C.ar    1  UNL1        0.0317
     20 C          -2.4388    0.1653    0.7164 C.ar    1  UNL1       -0.0393
     21 C          -3.6258    0.7958    1.1799 C.ar    1  UNL1       -0.0412
     22 C          -3.9641    2.0207    0.6862 C.ar    1  UNL1        0.0701
     23 C          -5.2241    2.6436    1.1928 C.1     1  UNL1        0.1006
     24 N          -6.1166    3.1008    1.5667 N.1     1  UNL1       -0.1908
     25 C          -3.2052    2.6558   -0.2368 C.ar    1  UNL1        0.0600
     26 CL         -3.7135    4.2220   -0.8272 Cl      1  UNL1       -0.0822
     27 C          -2.0303    2.0166   -0.6899 C.ar    1  UNL1       -0.0210
     28 C           1.8572    0.3037   -1.3745 C.3     1  UNL1        0.0333
     29 H           6.0868   -0.5192    1.0442 H       1  UNL1        0.0234
     30 H           6.4112    0.5231    2.4576 H       1  UNL1        0.0234
     31 H           6.5702    1.2341    0.8235 H       1  UNL1        0.0234
     32 H           4.4832    2.0822    1.2785 H       1  UNL1        0.0356
     33 H           3.9129    0.6168    2.2369 H       1  UNL1        0.0356
     34 H           1.1571    1.0617    1.3584 H       1  UNL1        0.0465
     35 H           2.2994    2.4774    1.0463 H       1  UNL1        0.0465
     36 H          -0.0011    2.6293    0.0847 H       1  UNL1        0.0299
     37 H           1.3587    2.9237   -1.0816 H       1  UNL1        0.0299
     38 H           0.2910    1.3322   -2.3321 H       1  UNL1        0.0516
     39 H           0.4016   -1.5625   -1.6199 H       1  UNL1        0.0513
     40 H          -1.1631   -1.1590   -2.2770 H       1  UNL1        0.0513
     41 H          -3.0481   -2.3822   -1.6121 H       1  UNL1        0.0636
     42 H          -2.9522   -5.1286    1.6296 H       1  UNL1        0.0633
     43 H          -0.7024   -4.2717    2.2079 H       1  UNL1        0.0633
     44 H          -2.2334   -0.7927    1.1875 H       1  UNL1        0.0636
     45 H          -4.2241    0.2720    1.9258 H       1  UNL1        0.0631
     46 H          -1.5176    2.5844   -1.4577 H       1  UNL1        0.0651
     47 H           2.4415    0.7792   -2.2362 H       1  UNL1        0.0483
     48 H           1.9595   -0.7628   -1.4824 H       1  UNL1        0.0483
@<TRIPOS>BOND
     1     1     2    1
     2     2     3    1
     3     3     4    2
     4     3     5   am
     5     5     6    1
     6     6     7    1
     7     7     8    1
     8     8     9    1
     9     9    10    1
    10    10    11    1
    11    11    12   ar
    12    12    13   ar
    13    13    14    1
    14    13    15   ar
    15    15    16   ar
    16    16    17   ar
    17    17    18    1
    18     9    19    1
    19    19    20   ar
    20    20    21   ar
    21    21    22   ar
    22    22    23    1
    23    23    24    3
    24    22    25   ar
    25    25    26    1
    26    25    27   ar
    27     8    28    1
    28    28     5    1
    29    17    11   ar
    30    27    19   ar
    31     1    29    1
    32     1    30    1
    33     1    31    1
    34     2    32    1
    35     2    33    1
    36     6    34    1
    37     6    35    1
    38     7    36    1
    39     7    37    1
    40     8    38    1
    41    10    39    1
    42    10    40    1
    43    12    41    1
    44    15    42    1
    45    16    43    1
    46    20    44    1
    47    21    45    1
    48    27    46    1
    49    28    47    1
    50    28    48    1
