
     RDKit          3D

 52 54  0  0  0  0  0  0  0  0999 V2000
   -6.5143   -0.2322   -1.5587 C   0  0  0  0  0  0  0  0  0  0  0  0
   -5.3294   -1.0952   -1.2955 C   0  0  0  0  0  0  0  0  0  0  0  0
   -5.4336   -2.4421   -1.5613 C   0  0  0  0  0  0  0  0  0  0  0  0
   -4.3371   -3.2593   -1.3190 C   0  0  0  0  0  0  0  0  0  0  0  0
   -3.1464   -2.7520   -0.8183 C   0  0  0  0  0  0  0  0  0  0  0  0
   -3.0366   -1.4065   -0.5508 C   0  0  0  0  0  0  0  0  0  0  0  0
   -1.7921   -0.8961   -0.0259 C   0  0  0  0  0  0  0  0  0  0  0  0
   -0.9951   -1.6604    0.7932 C   0  0  0  0  0  0  0  0  0  0  0  0
    0.1902   -1.1633    1.2890 C   0  0  0  0  0  0  0  0  0  0  0  0
    0.6469    0.1048    1.0032 C   0  0  0  0  0  0  0  0  0  0  0  0
    1.7895    0.6576    1.4507 O   0  0  0  0  0  0  0  0  0  0  0  0
    2.8242    0.2321    2.2430 C   0  0  0  0  0  0  0  0  0  0  0  0
    3.6325   -0.9061    1.7263 C   0  0  0  0  0  0  0  0  0  0  0  0
    4.2802   -0.6470    0.4467 N   0  0  0  0  0  0  0  0  0  0  0  0
    5.3138    0.3255    0.5620 C   0  0  0  0  0  0  0  0  0  0  0  0
    4.7367   -1.9264   -0.0428 C   0  0  0  0  0  0  0  0  0  0  0  0
    5.4015   -1.8846   -1.3426 C   0  0  0  0  0  0  0  0  0  0  0  0
    5.5484   -0.8093   -1.9578 O   0  0  0  0  0  0  0  0  0  0  0  0
    5.8793   -3.0470   -1.9100 O   0  0  0  0  0  0  0  0  0  0  0  0
   -0.1736    0.8826    0.1642 C   0  0  0  0  0  0  0  0  0  0  0  0
    0.2795    2.2258   -0.1509 C   0  0  0  0  0  0  0  0  0  0  0  0
    1.4753    2.4133   -0.4492 O   0  0  0  0  0  0  0  0  0  0  0  0
   -0.6073    3.3690   -0.1342 C   0  0  0  0  0  0  0  0  0  0  0  0
   -0.3661    4.7215   -0.3737 C   0  0  0  0  0  0  0  0  0  0  0  0
   -1.3642    5.5784   -0.3045 C   0  0  0  0  0  0  0  0  0  0  0  0
   -2.6499    5.1717    0.0005 C   0  0  0  0  0  0  0  0  0  0  0  0
   -2.3766    3.3510    0.2082 S   0  0  0  0  0  0  0  0  0  0  0  0
   -1.3476    0.3712   -0.3182 C   0  0  0  0  0  0  0  0  0  0  0  0
   -4.1412   -0.6015   -0.7981 C   0  0  0  0  0  0  0  0  0  0  0  0
   -6.3455    0.7698   -1.1256 H   0  0  0  0  0  0  0  0  0  0  0  0
   -6.6721   -0.1674   -2.6424 H   0  0  0  0  0  0  0  0  0  0  0  0
   -7.4208   -0.6765   -1.0806 H   0  0  0  0  0  0  0  0  0  0  0  0
   -6.3500   -2.8682   -1.9525 H   0  0  0  0  0  0  0  0  0  0  0  0
   -4.4639   -4.3104   -1.5425 H   0  0  0  0  0  0  0  0  0  0  0  0
   -2.3485   -3.4641   -0.6625 H   0  0  0  0  0  0  0  0  0  0  0  0
   -1.3242   -2.6550    1.0339 H   0  0  0  0  0  0  0  0  0  0  0  0
    0.7548   -1.8008    1.9317 H   0  0  0  0  0  0  0  0  0  0  0  0
    2.3450   -0.1628    3.2038 H   0  0  0  0  0  0  0  0  0  0  0  0
    3.4709    1.0994    2.5773 H   0  0  0  0  0  0  0  0  0  0  0  0
    4.4060   -1.2435    2.4830 H   0  0  0  0  0  0  0  0  0  0  0  0
    2.9985   -1.7864    1.5732 H   0  0  0  0  0  0  0  0  0  0  0  0
    5.5102    0.8898   -0.3730 H   0  0  0  0  0  0  0  0  0  0  0  0
    6.2589   -0.1331    0.9718 H   0  0  0  0  0  0  0  0  0  0  0  0
    5.0241    1.0881    1.3091 H   0  0  0  0  0  0  0  0  0  0  0  0
    3.8421   -2.6106   -0.0491 H   0  0  0  0  0  0  0  0  0  0  0  0
    5.4735   -2.3572    0.6916 H   0  0  0  0  0  0  0  0  0  0  0  0
    6.6243   -3.0590   -2.6211 H   0  0  0  0  0  0  0  0  0  0  0  0
    0.6872    5.0064   -0.6155 H   0  0  0  0  0  0  0  0  0  0  0  0
   -1.2334    6.6941   -0.4900 H   0  0  0  0  0  0  0  0  0  0  0  0
   -3.5899    5.6391    0.1135 H   0  0  0  0  0  0  0  0  0  0  0  0
   -1.9799    0.9820   -0.9704 H   0  0  0  0  0  0  0  0  0  0  0  0
   -4.0543    0.4505   -0.5881 H   0  0  0  0  0  0  0  0  0  0  0  0
  1  2  1  0
  2  3  2  0
  3  4  1  0
  4  5  2  0
  5  6  1  0
  6  7  1  0
  7  8  2  0
  8  9  1  0
  9 10  2  0
 10 11  1  0
 11 12  1  0
 12 13  1  0
 13 14  1  0
 14 15  1  0
 14 16  1  0
 16 17  1  0
 17 18  2  0
 17 19  1  0
 10 20  1  0
 20 21  1  0
 21 22  2  0
 21 23  1  0
 23 24  2  0
 24 25  1  0
 25 26  2  0
 26 27  1  0
 20 28  2  0
  6 29  2  0
 29  2  1  0
 28  7  1  0
 27 23  1  0
  1 30  1  0
  1 31  1  0
  1 32  1  0
  3 33  1  0
  4 34  1  0
  5 35  1  0
  8 36  1  0
  9 37  1  0
 12 38  1  0
 12 39  1  0
 13 40  1  0
 13 41  1  0
 15 42  1  0
 15 43  1  0
 15 44  1  0
 16 45  1  0
 16 46  1  0
 19 47  1  0
 24 48  1  0
 25 49  1  0
 26 50  1  0
 28 51  1  0
 29 52  1  0
M  END
$$$$
