@<TRIPOS>MOLECULE
*****
 52 54 0 0 0
SMALL
GASTEIGER

@<TRIPOS>ATOM
      1 C          -6.5143   -0.2322   -1.5587 C.3     1  UNL1       -0.0397
      2 C          -5.3294   -1.0952   -1.2955 C.ar    1  UNL1       -0.0499
      3 C          -5.4336   -2.4421   -1.5613 C.ar    1  UNL1       -0.0588
      4 C          -4.3371   -3.2593   -1.3190 C.ar    1  UNL1       -0.0609
      5 C          -3.1464   -2.7520   -0.8183 C.ar    1  UNL1       -0.0540
      6 C          -3.0366   -1.4065   -0.5508 C.ar    1  UNL1       -0.0176
      7 C          -1.7921   -0.8961   -0.0259 C.ar    1  UNL1       -0.0170
      8 C          -0.9951   -1.6604    0.7932 C.ar    1  UNL1       -0.0505
      9 C           0.1902   -1.1633    1.2890 C.ar    1  UNL1       -0.0187
     10 C           0.6469    0.1048    1.0032 C.ar    1  UNL1        0.1314
     11 O           1.7895    0.6576    1.4507 O.3     1  UNL1       -0.4900
     12 C           2.8242    0.2321    2.2430 C.3     1  UNL1        0.1023
     13 C           3.6325   -0.9061    1.7263 C.3     1  UNL1        0.0334
     14 N           4.2802   -0.6470    0.4467 N.3     1  UNL1       -0.2923
     15 C           5.3138    0.3255    0.5620 C.3     1  UNL1       -0.0121
     16 C           4.7367   -1.9264   -0.0428 C.3     1  UNL1        0.0966
     17 C           5.4015   -1.8846   -1.3426 C.2     1  UNL1        0.3189
     18 O           5.5484   -0.8093   -1.9578 O.2     1  UNL1       -0.2496
     19 O           5.8793   -3.0470   -1.9100 O.3     1  UNL1       -0.4797
     20 C          -0.1736    0.8826    0.1642 C.ar    1  UNL1        0.0649
     21 C           0.2795    2.2258   -0.1509 C.2     1  UNL1        0.2032
     22 O           1.4753    2.4133   -0.4492 O.2     1  UNL1       -0.2860
     23 C          -0.6073    3.3690   -0.1342 C.ar    1  UNL1        0.0595
     24 C          -0.3661    4.7215   -0.3737 C.ar    1  UNL1       -0.0438
     25 C          -1.3642    5.5784   -0.3045 C.ar    1  UNL1       -0.0540
     26 C          -2.6499    5.1717    0.0005 C.ar    1  UNL1       -0.0236
     27 S          -2.3766    3.3510    0.2082 S.2     1  UNL1       -0.0934
     28 C          -1.3476    0.3712   -0.3182 C.ar    1  UNL1       -0.0396
     29 C          -4.1412   -0.6015   -0.7981 C.ar    1  UNL1       -0.0511
     30 H          -6.3455    0.7698   -1.1256 H       1  UNL1        0.0278
     31 H          -6.6721   -0.1674   -2.6424 H       1  UNL1        0.0278
     32 H          -7.4208   -0.6765   -1.0806 H       1  UNL1        0.0278
     33 H          -6.3500   -2.8682   -1.9525 H       1  UNL1        0.0620
     34 H          -4.4639   -4.3104   -1.5425 H       1  UNL1        0.0618
     35 H          -2.3485   -3.4641   -0.6625 H       1  UNL1        0.0624
     36 H          -1.3242   -2.6550    1.0339 H       1  UNL1        0.0625
     37 H           0.7548   -1.8008    1.9317 H       1  UNL1        0.0654
     38 H           2.3450   -0.1628    3.2038 H       1  UNL1        0.0709
     39 H           3.4709    1.0994    2.5773 H       1  UNL1        0.0709
     40 H           4.4060   -1.2435    2.4830 H       1  UNL1        0.0460
     41 H           2.9985   -1.7864    1.5732 H       1  UNL1        0.0460
     42 H           5.5102    0.8898   -0.3730 H       1  UNL1        0.0391
     43 H           6.2589   -0.1331    0.9718 H       1  UNL1        0.0391
     44 H           5.0241    1.0881    1.3091 H       1  UNL1        0.0391
     45 H           3.8421   -2.6106   -0.0491 H       1  UNL1        0.0541
     46 H           5.4735   -2.3572    0.6916 H       1  UNL1        0.0541
     47 H           6.6243   -3.0590   -2.6211 H       1  UNL1        0.2951
     48 H           0.6872    5.0064   -0.6155 H       1  UNL1        0.0630
     49 H          -1.2334    6.6941   -0.4900 H       1  UNL1        0.0623
     50 H          -3.5899    5.6391    0.1135 H       1  UNL1        0.0693
     51 H          -1.9799    0.9820   -0.9704 H       1  UNL1        0.0632
     52 H          -4.0543    0.4505   -0.5881 H       1  UNL1        0.0626
@<TRIPOS>BOND
     1     1     2    1
     2     2     3   ar
     3     3     4   ar
     4     4     5   ar
     5     5     6   ar
     6     6     7    1
     7     7     8   ar
     8     8     9   ar
     9     9    10   ar
    10    10    11    1
    11    11    12    1
    12    12    13    1
    13    13    14    1
    14    14    15    1
    15    14    16    1
    16    16    17    1
    17    17    18    2
    18    17    19    1
    19    10    20   ar
    20    20    21    1
    21    21    22    2
    22    21    23    1
    23    23    24   ar
    24    24    25   ar
    25    25    26   ar
    26    26    27   ar
    27    20    28   ar
    28     6    29   ar
    29    29     2   ar
    30    28     7   ar
    31    27    23   ar
    32     1    30    1
    33     1    31    1
    34     1    32    1
    35     3    33    1
    36     4    34    1
    37     5    35    1
    38     8    36    1
    39     9    37    1
    40    12    38    1
    41    12    39    1
    42    13    40    1
    43    13    41    1
    44    15    42    1
    45    15    43    1
    46    15    44    1
    47    16    45    1
    48    16    46    1
    49    19    47    1
    50    24    48    1
    51    25    49    1
    52    26    50    1
    53    28    51    1
    54    29    52    1
