
     RDKit          3D

 48 49  0  0  0  0  0  0  0  0999 V2000
    5.6919    0.9450   -0.1313 C   0  0  0  0  0  0  0  0  0  0  0  0
    4.4789    0.2547   -0.3599 O   0  0  0  0  0  0  0  0  0  0  0  0
    3.4993    1.0395    0.2524 C   0  0  2  0  0  0  0  0  0  0  0  0
    2.8854    0.4253    1.3233 O   0  0  0  0  0  0  0  0  0  0  0  0
    1.9329   -0.5088    0.9894 C   0  0  2  0  0  0  0  0  0  0  0  0
    2.5605   -1.8551    0.6077 C   0  0  0  0  0  0  0  0  0  0  0  0
    1.5421   -2.7721    0.2758 O   0  0  0  0  0  0  0  0  0  0  0  0
    0.9732   -0.0965   -0.0750 C   0  0  1  0  0  0  0  0  0  0  0  0
   -0.1429    0.5969    0.3956 O   0  0  0  0  0  0  0  0  0  0  0  0
   -1.3276   -0.0597    0.1835 C   0  0  2  0  0  0  0  0  0  0  0  0
   -2.1974    0.6149   -0.6727 O   0  0  0  0  0  0  0  0  0  0  0  0
   -3.1583   -0.2656   -1.1313 C   0  0  2  0  0  0  0  0  0  0  0  0
   -4.0705    0.4373   -2.1227 C   0  0  0  0  0  0  0  0  0  0  0  0
   -4.7068    1.5123   -1.5360 O   0  0  0  0  0  0  0  0  0  0  0  0
   -4.0221   -0.8172   -0.0304 C   0  0  2  0  0  0  0  0  0  0  0  0
   -4.7521    0.1541    0.6234 O   0  0  0  0  0  0  0  0  0  0  0  0
   -3.1196   -1.4777    1.0108 C   0  0  2  0  0  0  0  0  0  0  0  0
   -3.8403   -1.9404    2.0822 O   0  0  0  0  0  0  0  0  0  0  0  0
   -2.1047   -0.4082    1.4131 C   0  0  1  0  0  0  0  0  0  0  0  0
   -1.3514   -0.8152    2.4872 O   0  0  0  0  0  0  0  0  0  0  0  0
    1.6197    0.6161   -1.2417 C   0  0  2  0  0  0  0  0  0  0  0  0
    2.3967   -0.3212   -1.9211 O   0  0  0  0  0  0  0  0  0  0  0  0
    2.5388    1.6625   -0.7148 C   0  0  1  0  0  0  0  0  0  0  0  0
    1.9099    2.7503   -0.1302 O   0  0  0  0  0  0  0  0  0  0  0  0
    6.5634    0.4413   -0.5606 H   0  0  0  0  0  0  0  0  0  0  0  0
    5.6576    1.9545   -0.5948 H   0  0  0  0  0  0  0  0  0  0  0  0
    5.7400    1.0965    0.9678 H   0  0  0  0  0  0  0  0  0  0  0  0
    4.0808    1.9045    0.6791 H   0  0  0  0  0  0  0  0  0  0  0  0
    1.3445   -0.7197    1.9085 H   0  0  0  0  0  0  0  0  0  0  0  0
    3.1866   -1.7918   -0.2836 H   0  0  0  0  0  0  0  0  0  0  0  0
    3.0732   -2.2836    1.5023 H   0  0  0  0  0  0  0  0  0  0  0  0
    0.7212   -2.6373    0.7899 H   0  0  0  0  0  0  0  0  0  0  0  0
    0.5772   -1.0489   -0.5205 H   0  0  0  0  0  0  0  0  0  0  0  0
   -1.0926   -1.0333   -0.3385 H   0  0  0  0  0  0  0  0  0  0  0  0
   -2.6520   -1.1118   -1.6161 H   0  0  0  0  0  0  0  0  0  0  0  0
   -4.8087   -0.2687   -2.5303 H   0  0  0  0  0  0  0  0  0  0  0  0
   -3.4863    0.8292   -2.9943 H   0  0  0  0  0  0  0  0  0  0  0  0
   -5.6958    1.3654   -1.5513 H   0  0  0  0  0  0  0  0  0  0  0  0
   -4.7171   -1.5426   -0.5059 H   0  0  0  0  0  0  0  0  0  0  0  0
   -5.0636   -0.2567    1.4908 H   0  0  0  0  0  0  0  0  0  0  0  0
   -2.5532   -2.2582    0.4661 H   0  0  0  0  0  0  0  0  0  0  0  0
   -3.1675   -2.1095    2.8142 H   0  0  0  0  0  0  0  0  0  0  0  0
   -2.7329    0.4892    1.6665 H   0  0  0  0  0  0  0  0  0  0  0  0
   -0.9127   -0.0230    2.8843 H   0  0  0  0  0  0  0  0  0  0  0  0
    0.7918    1.0211   -1.8599 H   0  0  0  0  0  0  0  0  0  0  0  0
    2.8591    0.1363   -2.6698 H   0  0  0  0  0  0  0  0  0  0  0  0
    3.1488    2.0282   -1.5799 H   0  0  0  0  0  0  0  0  0  0  0  0
    1.9026    2.6523    0.8586 H   0  0  0  0  0  0  0  0  0  0  0  0
  1  2  1  0
  2  3  1  0
  3  4  1  0
  4  5  1  0
  5  6  1  0
  6  7  1  0
  5  8  1  0
  8  9  1  0
  9 10  1  0
 10 11  1  0
 11 12  1  0
 12 13  1  0
 13 14  1  0
 12 15  1  0
 15 16  1  0
 15 17  1  0
 17 18  1  0
 17 19  1  0
 19 20  1  0
  8 21  1  0
 21 22  1  0
 21 23  1  0
 23 24  1  0
 23  3  1  0
 19 10  1  0
  1 25  1  0
  1 26  1  0
  1 27  1  0
  3 28  1  1
  5 29  1  1
  6 30  1  0
  6 31  1  0
  7 32  1  0
  8 33  1  6
 10 34  1  6
 12 35  1  6
 13 36  1  0
 13 37  1  0
 14 38  1  0
 15 39  1  6
 16 40  1  0
 17 41  1  6
 18 42  1  0
 19 43  1  1
 20 44  1  0
 21 45  1  6
 22 46  1  0
 23 47  1  6
 24 48  1  0
M  END
$$$$
