@<TRIPOS>MOLECULE
*****
 48 49 0 0 0
SMALL
GASTEIGER

@<TRIPOS>ATOM
      1 C           5.6919    0.9450   -0.1313 C.3     1  UNL1        0.0395
      2 O           4.4789    0.2547   -0.3599 O.3     1  UNL1       -0.3520
      3 C           3.4993    1.0395    0.2524 C.3     1  UNL1        0.1876
      4 O           2.8854    0.4253    1.3233 O.3     1  UNL1       -0.3405
      5 C           1.9329   -0.5088    0.9894 C.3     1  UNL1        0.1134
      6 C           2.5605   -1.8551    0.6077 C.3     1  UNL1        0.0730
      7 O           1.5421   -2.7721    0.2758 O.3     1  UNL1       -0.3924
      8 C           0.9732   -0.0965   -0.0750 C.3     1  UNL1        0.1184
      9 O          -0.1429    0.5969    0.3956 O.3     1  UNL1       -0.3401
     10 C          -1.3276   -0.0597    0.1835 C.3     1  UNL1        0.1884
     11 O          -2.1974    0.6149   -0.6727 O.3     1  UNL1       -0.3405
     12 C          -3.1583   -0.2656   -1.1313 C.3     1  UNL1        0.1130
     13 C          -4.0705    0.4373   -2.1227 C.3     1  UNL1        0.0730
     14 O          -4.7068    1.5123   -1.5360 O.3     1  UNL1       -0.3924
     15 C          -4.0221   -0.8172   -0.0304 C.3     1  UNL1        0.1119
     16 O          -4.7521    0.1541    0.6234 O.3     1  UNL1       -0.3865
     17 C          -3.1196   -1.4777    1.0108 C.3     1  UNL1        0.1141
     18 O          -3.8403   -1.9404    2.0822 O.3     1  UNL1       -0.3864
     19 C          -2.1047   -0.4082    1.4131 C.3     1  UNL1        0.1341
     20 O          -1.3514   -0.8152    2.4872 O.3     1  UNL1       -0.3841
     21 C           1.6197    0.6161   -1.2417 C.3     1  UNL1        0.1144
     22 O           2.3967   -0.3212   -1.9211 O.3     1  UNL1       -0.3864
     23 C           2.5388    1.6625   -0.7148 C.3     1  UNL1        0.1341
     24 O           1.9099    2.7503   -0.1302 O.3     1  UNL1       -0.3841
     25 H           6.5634    0.4413   -0.5606 H       1  UNL1        0.0525
     26 H           5.6576    1.9545   -0.5948 H       1  UNL1        0.0525
     27 H           5.7400    1.0965    0.9678 H       1  UNL1        0.0525
     28 H           4.0808    1.9045    0.6791 H       1  UNL1        0.0937
     29 H           1.3445   -0.7197    1.9085 H       1  UNL1        0.0647
     30 H           3.1866   -1.7918   -0.2836 H       1  UNL1        0.0584
     31 H           3.0732   -2.2836    1.5023 H       1  UNL1        0.0584
     32 H           0.7212   -2.6373    0.7899 H       1  UNL1        0.2095
     33 H           0.5772   -1.0489   -0.5205 H       1  UNL1        0.0651
     34 H          -1.0926   -1.0333   -0.3385 H       1  UNL1        0.0938
     35 H          -2.6520   -1.1118   -1.6161 H       1  UNL1        0.0647
     36 H          -4.8087   -0.2687   -2.5303 H       1  UNL1        0.0584
     37 H          -3.4863    0.8292   -2.9943 H       1  UNL1        0.0584
     38 H          -5.6958    1.3654   -1.5513 H       1  UNL1        0.2095
     39 H          -4.7171   -1.5426   -0.5059 H       1  UNL1        0.0647
     40 H          -5.0636   -0.2567    1.4908 H       1  UNL1        0.2100
     41 H          -2.5532   -2.2582    0.4661 H       1  UNL1        0.0648
     42 H          -3.1675   -2.1095    2.8142 H       1  UNL1        0.2100
     43 H          -2.7329    0.4892    1.6665 H       1  UNL1        0.0671
     44 H          -0.9127   -0.0230    2.8843 H       1  UNL1        0.2101
     45 H           0.7918    1.0211   -1.8599 H       1  UNL1        0.0648
     46 H           2.8591    0.1363   -2.6698 H       1  UNL1        0.2100
     47 H           3.1488    2.0282   -1.5799 H       1  UNL1        0.0671
     48 H           1.9026    2.6523    0.8586 H       1  UNL1        0.2101
@<TRIPOS>BOND
     1     1     2    1
     2     2     3    1
     3     3     4    1
     4     4     5    1
     5     5     6    1
     6     6     7    1
     7     5     8    1
     8     8     9    1
     9     9    10    1
    10    10    11    1
    11    11    12    1
    12    12    13    1
    13    13    14    1
    14    12    15    1
    15    15    16    1
    16    15    17    1
    17    17    18    1
    18    17    19    1
    19    19    20    1
    20     8    21    1
    21    21    22    1
    22    21    23    1
    23    23    24    1
    24    23     3    1
    25    19    10    1
    26     1    25    1
    27     1    26    1
    28     1    27    1
    29     3    28    1
    30     5    29    1
    31     6    30    1
    32     6    31    1
    33     7    32    1
    34     8    33    1
    35    10    34    1
    36    12    35    1
    37    13    36    1
    38    13    37    1
    39    14    38    1
    40    15    39    1
    41    16    40    1
    42    17    41    1
    43    18    42    1
    44    19    43    1
    45    20    44    1
    46    21    45    1
    47    22    46    1
    48    23    47    1
    49    24    48    1
