@<TRIPOS>MOLECULE
*****
 70 75 0 0 0
SMALL
GASTEIGER

@<TRIPOS>ATOM
      1 C           2.0251   -2.7690    0.0029 C.3     1  UNL1       -0.0612
      2 C           1.3026   -2.4766    1.2994 C.3     1  UNL1       -0.0288
      3 C           0.1623   -1.6057    1.0109 C.ar    1  UNL1       -0.0259
      4 C          -1.1217   -2.1234    0.9686 C.ar    1  UNL1       -0.0457
      5 C          -2.1826   -1.2967    0.6901 C.ar    1  UNL1        0.0268
      6 C          -2.0302    0.0518    0.4453 C.ar    1  UNL1       -0.0234
      7 C          -0.7245    0.5223    0.4993 C.ar    1  UNL1       -0.0357
      8 C           0.3907   -0.2681    0.7768 C.ar    1  UNL1        0.0332
      9 N           1.6637    0.3865    0.7981 N.pl3   1  UNL1       -0.3296
     10 C           2.6974    0.5908    1.7926 C.3     1  UNL1        0.0136
     11 C           4.0558    0.1330    1.3811 C.3     1  UNL1       -0.0215
     12 C           4.2394    0.3467   -0.0858 C.3     1  UNL1        0.0134
     13 C           3.3304    1.4737   -0.5187 C.3     1  UNL1       -0.0215
     14 C           1.9064    0.9554   -0.5027 C.3     1  UNL1        0.0136
     15 N           5.5786    0.4490   -0.5465 N.3     1  UNL1       -0.2950
     16 C           6.3395    1.5305   -0.0255 C.3     1  UNL1        0.0227
     17 C           7.7239    1.5807   -0.5982 C.3     1  UNL1        0.0604
     18 O           7.9069    0.7617   -1.7039 O.3     1  UNL1       -0.3772
     19 C           6.8452    0.8503   -2.6017 C.3     1  UNL1        0.0604
     20 C           5.6564    0.2255   -1.9519 C.3     1  UNL1        0.0227
     21 C          -3.1281    0.9877    0.1406 C.3     1  UNL1        0.0315
     22 C          -3.1764    2.1512    1.1042 C.3     1  UNL1       -0.0503
     23 C          -2.8415    1.5367   -1.2636 C.3     1  UNL1       -0.0503
     24 C          -4.4312    0.2752    0.1333 C.ar    1  UNL1        0.0380
     25 C          -4.7073   -1.0639    0.3624 C.ar    1  UNL1        0.0513
     26 C          -6.0690   -1.2509    0.2461 C.ar    1  UNL1        0.0109
     27 C          -6.5724   -0.0018   -0.0529 C.ar    1  UNL1        0.0486
     28 N          -5.5926    0.9081   -0.1198 N.ar    1  UNL1       -0.3566
     29 C          -7.9549    0.0284   -0.2137 C.ar    1  UNL1       -0.0204
     30 C          -8.7517   -1.0911   -0.0856 C.ar    1  UNL1        0.0537
     31 C          -8.1739   -2.3289    0.2196 C.ar    1  UNL1       -0.0436
     32 C          -6.8044   -2.4082    0.3885 C.ar    1  UNL1       -0.0507
     33 C         -10.1760   -0.9932   -0.2640 C.1     1  UNL1        0.0992
     34 N         -11.3432   -0.9328   -0.4048 N.1     1  UNL1       -0.1909
     35 C          -3.5274   -1.8555    0.6482 C.2     1  UNL1        0.1957
     36 O          -3.6910   -3.0949    0.8706 O.2     1  UNL1       -0.2866
     37 H           3.1336   -2.7729    0.1355 H       1  UNL1        0.0233
     38 H           1.7327   -2.0352   -0.7860 H       1  UNL1        0.0233
     39 H           1.7406   -3.7765   -0.3531 H       1  UNL1        0.0233
     40 H           2.0143   -2.0933    2.0572 H       1  UNL1        0.0311
     41 H           0.9184   -3.4550    1.7057 H       1  UNL1        0.0311
     42 H          -1.2726   -3.1870    1.1582 H       1  UNL1        0.0628
     43 H          -0.5803    1.5778    0.3112 H       1  UNL1        0.0639
     44 H           2.4006    0.1442    2.7877 H       1  UNL1        0.0464
     45 H           2.7330    1.7107    1.9496 H       1  UNL1        0.0464
     46 H           4.1316   -0.9663    1.6098 H       1  UNL1        0.0295
     47 H           4.7989    0.7076    1.9695 H       1  UNL1        0.0295
     48 H           3.8034   -0.5732   -0.5809 H       1  UNL1        0.0463
     49 H           3.4682    2.3288    0.1626 H       1  UNL1        0.0295
     50 H           3.5198    1.8320   -1.5500 H       1  UNL1        0.0295
     51 H           1.7184    0.2944   -1.3488 H       1  UNL1        0.0464
     52 H           1.2233    1.8407   -0.5941 H       1  UNL1        0.0464
     53 H           5.8207    2.5164   -0.1184 H       1  UNL1        0.0449
     54 H           6.4657    1.3901    1.0707 H       1  UNL1        0.0449
     55 H           8.5072    1.3120    0.1248 H       1  UNL1        0.0572
     56 H           7.9240    2.6283   -0.9195 H       1  UNL1        0.0572
     57 H           6.7046    1.9026   -2.9184 H       1  UNL1        0.0572
     58 H           7.1446    0.2364   -3.4782 H       1  UNL1        0.0572
     59 H           4.6980    0.4641   -2.4843 H       1  UNL1        0.0449
     60 H           5.7653   -0.8827   -2.0923 H       1  UNL1        0.0449
     61 H          -2.7086    1.9640    2.0726 H       1  UNL1        0.0242
     62 H          -2.7866    3.0792    0.6031 H       1  UNL1        0.0242
     63 H          -4.2551    2.3776    1.3084 H       1  UNL1        0.0242
     64 H          -1.7399    1.6045   -1.3714 H       1  UNL1        0.0242
     65 H          -3.2949    2.5273   -1.4163 H       1  UNL1        0.0242
     66 H          -3.1849    0.7778   -2.0060 H       1  UNL1        0.0242
     67 H          -5.8433    1.9021   -0.3411 H       1  UNL1        0.1656
     68 H          -8.4299    0.9739   -0.4506 H       1  UNL1        0.0651
     69 H          -8.7895   -3.2008    0.3200 H       1  UNL1        0.0631
     70 H          -6.3062   -3.3341    0.6243 H       1  UNL1        0.0625
@<TRIPOS>BOND
     1     1     2    1
     2     2     3    1
     3     3     4   ar
     4     4     5   ar
     5     5     6   ar
     6     6     7   ar
     7     7     8   ar
     8     8     9    1
     9     9    10    1
    10    10    11    1
    11    11    12    1
    12    12    13    1
    13    13    14    1
    14    12    15    1
    15    15    16    1
    16    16    17    1
    17    17    18    1
    18    18    19    1
    19    19    20    1
    20     6    21    1
    21    21    22    1
    22    21    23    1
    23    21    24    1
    24    24    25   ar
    25    25    26   ar
    26    26    27   ar
    27    27    28   ar
    28    27    29   ar
    29    29    30   ar
    30    30    31   ar
    31    31    32   ar
    32    30    33    1
    33    33    34    3
    34    25    35    1
    35    35    36    2
    36     8     3   ar
    37    14     9    1
    38    20    15    1
    39    28    24   ar
    40    35     5    1
    41    32    26   ar
    42     1    37    1
    43     1    38    1
    44     1    39    1
    45     2    40    1
    46     2    41    1
    47     4    42    1
    48     7    43    1
    49    10    44    1
    50    10    45    1
    51    11    46    1
    52    11    47    1
    53    12    48    1
    54    13    49    1
    55    13    50    1
    56    14    51    1
    57    14    52    1
    58    16    53    1
    59    16    54    1
    60    17    55    1
    61    17    56    1
    62    19    57    1
    63    19    58    1
    64    20    59    1
    65    20    60    1
    66    22    61    1
    67    22    62    1
    68    22    63    1
    69    23    64    1
    70    23    65    1
    71    23    66    1
    72    28    67    1
    73    29    68    1
    74    31    69    1
    75    32    70    1
