
     RDKit          3D

 70 75  0  0  0  0  0  0  0  0999 V2000
    2.0251   -2.7690    0.0029 C   0  0  0  0  0  0  0  0  0  0  0  0
    1.3026   -2.4766    1.2994 C   0  0  0  0  0  0  0  0  0  0  0  0
    0.1623   -1.6057    1.0109 C   0  0  0  0  0  0  0  0  0  0  0  0
   -1.1217   -2.1234    0.9686 C   0  0  0  0  0  0  0  0  0  0  0  0
   -2.1826   -1.2967    0.6901 C   0  0  0  0  0  0  0  0  0  0  0  0
   -2.0302    0.0518    0.4453 C   0  0  0  0  0  0  0  0  0  0  0  0
   -0.7245    0.5223    0.4993 C   0  0  0  0  0  0  0  0  0  0  0  0
    0.3907   -0.2681    0.7768 C   0  0  0  0  0  0  0  0  0  0  0  0
    1.6637    0.3865    0.7981 N   0  0  0  0  0  0  0  0  0  0  0  0
    2.6974    0.5908    1.7926 C   0  0  0  0  0  0  0  0  0  0  0  0
    4.0558    0.1330    1.3811 C   0  0  0  0  0  0  0  0  0  0  0  0
    4.2394    0.3467   -0.0858 C   0  0  0  0  0  0  0  0  0  0  0  0
    3.3304    1.4737   -0.5187 C   0  0  0  0  0  0  0  0  0  0  0  0
    1.9064    0.9554   -0.5027 C   0  0  0  0  0  0  0  0  0  0  0  0
    5.5786    0.4490   -0.5465 N   0  0  0  0  0  0  0  0  0  0  0  0
    6.3395    1.5305   -0.0255 C   0  0  0  0  0  0  0  0  0  0  0  0
    7.7239    1.5807   -0.5982 C   0  0  0  0  0  0  0  0  0  0  0  0
    7.9069    0.7617   -1.7039 O   0  0  0  0  0  0  0  0  0  0  0  0
    6.8452    0.8503   -2.6017 C   0  0  0  0  0  0  0  0  0  0  0  0
    5.6564    0.2255   -1.9519 C   0  0  0  0  0  0  0  0  0  0  0  0
   -3.1281    0.9877    0.1406 C   0  0  0  0  0  0  0  0  0  0  0  0
   -3.1764    2.1512    1.1042 C   0  0  0  0  0  0  0  0  0  0  0  0
   -2.8415    1.5367   -1.2636 C   0  0  0  0  0  0  0  0  0  0  0  0
   -4.4312    0.2752    0.1333 C   0  0  0  0  0  0  0  0  0  0  0  0
   -4.7073   -1.0639    0.3624 C   0  0  0  0  0  0  0  0  0  0  0  0
   -6.0690   -1.2509    0.2461 C   0  0  0  0  0  0  0  0  0  0  0  0
   -6.5724   -0.0018   -0.0529 C   0  0  0  0  0  0  0  0  0  0  0  0
   -5.5926    0.9081   -0.1198 N   0  0  0  0  0  0  0  0  0  0  0  0
   -7.9549    0.0284   -0.2137 C   0  0  0  0  0  0  0  0  0  0  0  0
   -8.7517   -1.0911   -0.0856 C   0  0  0  0  0  0  0  0  0  0  0  0
   -8.1739   -2.3289    0.2196 C   0  0  0  0  0  0  0  0  0  0  0  0
   -6.8044   -2.4082    0.3885 C   0  0  0  0  0  0  0  0  0  0  0  0
  -10.1760   -0.9932   -0.2640 C   0  0  0  0  0  0  0  0  0  0  0  0
  -11.3432   -0.9328   -0.4048 N   0  0  0  0  0  0  0  0  0  0  0  0
   -3.5274   -1.8555    0.6482 C   0  0  0  0  0  0  0  0  0  0  0  0
   -3.6910   -3.0949    0.8706 O   0  0  0  0  0  0  0  0  0  0  0  0
    3.1336   -2.7729    0.1355 H   0  0  0  0  0  0  0  0  0  0  0  0
    1.7327   -2.0352   -0.7860 H   0  0  0  0  0  0  0  0  0  0  0  0
    1.7406   -3.7765   -0.3531 H   0  0  0  0  0  0  0  0  0  0  0  0
    2.0143   -2.0933    2.0572 H   0  0  0  0  0  0  0  0  0  0  0  0
    0.9184   -3.4550    1.7057 H   0  0  0  0  0  0  0  0  0  0  0  0
   -1.2726   -3.1870    1.1582 H   0  0  0  0  0  0  0  0  0  0  0  0
   -0.5803    1.5778    0.3112 H   0  0  0  0  0  0  0  0  0  0  0  0
    2.4006    0.1442    2.7877 H   0  0  0  0  0  0  0  0  0  0  0  0
    2.7330    1.7107    1.9496 H   0  0  0  0  0  0  0  0  0  0  0  0
    4.1316   -0.9663    1.6098 H   0  0  0  0  0  0  0  0  0  0  0  0
    4.7989    0.7076    1.9695 H   0  0  0  0  0  0  0  0  0  0  0  0
    3.8034   -0.5732   -0.5809 H   0  0  0  0  0  0  0  0  0  0  0  0
    3.4682    2.3288    0.1626 H   0  0  0  0  0  0  0  0  0  0  0  0
    3.5198    1.8320   -1.5500 H   0  0  0  0  0  0  0  0  0  0  0  0
    1.7184    0.2944   -1.3488 H   0  0  0  0  0  0  0  0  0  0  0  0
    1.2233    1.8407   -0.5941 H   0  0  0  0  0  0  0  0  0  0  0  0
    5.8207    2.5164   -0.1184 H   0  0  0  0  0  0  0  0  0  0  0  0
    6.4657    1.3901    1.0707 H   0  0  0  0  0  0  0  0  0  0  0  0
    8.5072    1.3120    0.1248 H   0  0  0  0  0  0  0  0  0  0  0  0
    7.9240    2.6283   -0.9195 H   0  0  0  0  0  0  0  0  0  0  0  0
    6.7046    1.9026   -2.9184 H   0  0  0  0  0  0  0  0  0  0  0  0
    7.1446    0.2364   -3.4782 H   0  0  0  0  0  0  0  0  0  0  0  0
    4.6980    0.4641   -2.4843 H   0  0  0  0  0  0  0  0  0  0  0  0
    5.7653   -0.8827   -2.0923 H   0  0  0  0  0  0  0  0  0  0  0  0
   -2.7086    1.9640    2.0726 H   0  0  0  0  0  0  0  0  0  0  0  0
   -2.7866    3.0792    0.6031 H   0  0  0  0  0  0  0  0  0  0  0  0
   -4.2551    2.3776    1.3084 H   0  0  0  0  0  0  0  0  0  0  0  0
   -1.7399    1.6045   -1.3714 H   0  0  0  0  0  0  0  0  0  0  0  0
   -3.2949    2.5273   -1.4163 H   0  0  0  0  0  0  0  0  0  0  0  0
   -3.1849    0.7778   -2.0060 H   0  0  0  0  0  0  0  0  0  0  0  0
   -5.8433    1.9021   -0.3411 H   0  0  0  0  0  0  0  0  0  0  0  0
   -8.4299    0.9739   -0.4506 H   0  0  0  0  0  0  0  0  0  0  0  0
   -8.7895   -3.2008    0.3200 H   0  0  0  0  0  0  0  0  0  0  0  0
   -6.3062   -3.3341    0.6243 H   0  0  0  0  0  0  0  0  0  0  0  0
  1  2  1  0
  2  3  1  0
  3  4  2  0
  4  5  1  0
  5  6  2  0
  6  7  1  0
  7  8  2  0
  8  9  1  0
  9 10  1  0
 10 11  1  0
 11 12  1  0
 12 13  1  0
 13 14  1  0
 12 15  1  0
 15 16  1  0
 16 17  1  0
 17 18  1  0
 18 19  1  0
 19 20  1  0
  6 21  1  0
 21 22  1  0
 21 23  1  0
 21 24  1  0
 24 25  2  0
 25 26  1  0
 26 27  2  0
 27 28  1  0
 27 29  1  0
 29 30  2  0
 30 31  1  0
 31 32  2  0
 30 33  1  0
 33 34  3  0
 25 35  1  0
 35 36  2  0
  8  3  1  0
 14  9  1  0
 20 15  1  0
 28 24  1  0
 35  5  1  0
 32 26  1  0
  1 37  1  0
  1 38  1  0
  1 39  1  0
  2 40  1  0
  2 41  1  0
  4 42  1  0
  7 43  1  0
 10 44  1  0
 10 45  1  0
 11 46  1  0
 11 47  1  0
 12 48  1  0
 13 49  1  0
 13 50  1  0
 14 51  1  0
 14 52  1  0
 16 53  1  0
 16 54  1  0
 17 55  1  0
 17 56  1  0
 19 57  1  0
 19 58  1  0
 20 59  1  0
 20 60  1  0
 22 61  1  0
 22 62  1  0
 22 63  1  0
 23 64  1  0
 23 65  1  0
 23 66  1  0
 28 67  1  0
 29 68  1  0
 31 69  1  0
 32 70  1  0
M  END
$$$$
