@<TRIPOS>MOLECULE
*****
 38 37 0 0 0
SMALL
GASTEIGER

@<TRIPOS>ATOM
      1 O          -4.3446   -0.9057    2.1138 O.3     1  UNL1       -0.4806
      2 C          -4.8507   -0.3349    0.9746 C.2     1  UNL1        0.3047
      3 O          -5.5945    0.7004    1.1898 O.2     1  UNL1       -0.2510
      4 C          -4.6459   -0.7615   -0.4090 C.3     1  UNL1        0.0448
      5 C          -3.2447   -1.0545   -0.8281 C.3     1  UNL1       -0.0430
      6 C          -2.2867    0.0848   -0.7555 C.3     1  UNL1       -0.0526
      7 C          -2.0157    0.6712    0.5755 C.3     1  UNL1       -0.0530
      8 C          -1.0374    1.8230    0.4770 C.3     1  UNL1       -0.0531
      9 C           0.2793    1.5244   -0.1055 C.3     1  UNL1       -0.0531
     10 C           1.1265    0.4966    0.5857 C.3     1  UNL1       -0.0531
     11 C           2.4125    0.4352   -0.2540 C.3     1  UNL1       -0.0530
     12 C           3.4186   -0.5442    0.3130 C.3     1  UNL1       -0.0523
     13 C           4.6162   -0.4502   -0.6475 C.3     1  UNL1       -0.0434
     14 C           5.7496   -1.3460   -0.2405 C.3     1  UNL1        0.0033
     15 BR          5.3199   -3.2000   -0.1633 Br      1  UNL1       -0.0918
     16 H          -4.2997   -0.3538    2.9859 H       1  UNL1        0.2951
     17 H          -5.2236   -1.7179   -0.6258 H       1  UNL1        0.0377
     18 H          -5.0809    0.0283   -1.0903 H       1  UNL1        0.0377
     19 H          -3.3033   -1.4110   -1.8986 H       1  UNL1        0.0270
     20 H          -2.8641   -1.9402   -0.2480 H       1  UNL1        0.0270
     21 H          -1.2875   -0.2117   -1.2040 H       1  UNL1        0.0265
     22 H          -2.6769    0.9217   -1.4181 H       1  UNL1        0.0265
     23 H          -1.7578   -0.0660    1.3365 H       1  UNL1        0.0265
     24 H          -2.9610    1.1647    0.9423 H       1  UNL1        0.0265
     25 H          -0.8741    2.2504    1.4925 H       1  UNL1        0.0265
     26 H          -1.5134    2.6111   -0.1489 H       1  UNL1        0.0265
     27 H           0.2411    1.2599   -1.1869 H       1  UNL1        0.0265
     28 H           0.8867    2.4843   -0.0435 H       1  UNL1        0.0265
     29 H           0.6325   -0.4711    0.6732 H       1  UNL1        0.0265
     30 H           1.4730    0.8505    1.5935 H       1  UNL1        0.0265
     31 H           2.8524    1.4287   -0.2261 H       1  UNL1        0.0265
     32 H           2.1613    0.0420   -1.2651 H       1  UNL1        0.0265
     33 H           3.0112   -1.5625    0.3408 H       1  UNL1        0.0266
     34 H           3.7439   -0.2520    1.3274 H       1  UNL1        0.0266
     35 H           4.2429   -0.6333   -1.6527 H       1  UNL1        0.0273
     36 H           4.9628    0.6157   -0.5877 H       1  UNL1        0.0273
     37 H           6.5630   -1.1835   -0.9942 H       1  UNL1        0.0382
     38 H           6.1690   -0.9930    0.7317 H       1  UNL1        0.0382
@<TRIPOS>BOND
     1     1     2    1
     2     2     3    2
     3     2     4    1
     4     4     5    1
     5     5     6    1
     6     6     7    1
     7     7     8    1
     8     8     9    1
     9     9    10    1
    10    10    11    1
    11    11    12    1
    12    12    13    1
    13    13    14    1
    14    14    15    1
    15     1    16    1
    16     4    17    1
    17     4    18    1
    18     5    19    1
    19     5    20    1
    20     6    21    1
    21     6    22    1
    22     7    23    1
    23     7    24    1
    24     8    25    1
    25     8    26    1
    26     9    27    1
    27     9    28    1
    28    10    29    1
    29    10    30    1
    30    11    31    1
    31    11    32    1
    32    12    33    1
    33    12    34    1
    34    13    35    1
    35    13    36    1
    36    14    37    1
    37    14    38    1
