
     RDKit          3D

 38 37  0  0  0  0  0  0  0  0999 V2000
   -4.3446   -0.9057    2.1138 O   0  0  0  0  0  0  0  0  0  0  0  0
   -4.8507   -0.3349    0.9746 C   0  0  0  0  0  0  0  0  0  0  0  0
   -5.5945    0.7004    1.1898 O   0  0  0  0  0  0  0  0  0  0  0  0
   -4.6459   -0.7615   -0.4090 C   0  0  0  0  0  0  0  0  0  0  0  0
   -3.2447   -1.0545   -0.8281 C   0  0  0  0  0  0  0  0  0  0  0  0
   -2.2867    0.0848   -0.7555 C   0  0  0  0  0  0  0  0  0  0  0  0
   -2.0157    0.6712    0.5755 C   0  0  0  0  0  0  0  0  0  0  0  0
   -1.0374    1.8230    0.4770 C   0  0  0  0  0  0  0  0  0  0  0  0
    0.2793    1.5244   -0.1055 C   0  0  0  0  0  0  0  0  0  0  0  0
    1.1265    0.4966    0.5857 C   0  0  0  0  0  0  0  0  0  0  0  0
    2.4125    0.4352   -0.2540 C   0  0  0  0  0  0  0  0  0  0  0  0
    3.4186   -0.5442    0.3130 C   0  0  0  0  0  0  0  0  0  0  0  0
    4.6162   -0.4502   -0.6475 C   0  0  0  0  0  0  0  0  0  0  0  0
    5.7496   -1.3460   -0.2405 C   0  0  0  0  0  0  0  0  0  0  0  0
    5.3199   -3.2000   -0.1633 Br  0  0  0  0  0  0  0  0  0  0  0  0
   -4.2997   -0.3538    2.9859 H   0  0  0  0  0  0  0  0  0  0  0  0
   -5.2236   -1.7179   -0.6258 H   0  0  0  0  0  0  0  0  0  0  0  0
   -5.0809    0.0283   -1.0903 H   0  0  0  0  0  0  0  0  0  0  0  0
   -3.3033   -1.4110   -1.8986 H   0  0  0  0  0  0  0  0  0  0  0  0
   -2.8641   -1.9402   -0.2480 H   0  0  0  0  0  0  0  0  0  0  0  0
   -1.2875   -0.2117   -1.2040 H   0  0  0  0  0  0  0  0  0  0  0  0
   -2.6769    0.9217   -1.4181 H   0  0  0  0  0  0  0  0  0  0  0  0
   -1.7578   -0.0660    1.3365 H   0  0  0  0  0  0  0  0  0  0  0  0
   -2.9610    1.1647    0.9423 H   0  0  0  0  0  0  0  0  0  0  0  0
   -0.8741    2.2504    1.4925 H   0  0  0  0  0  0  0  0  0  0  0  0
   -1.5134    2.6111   -0.1489 H   0  0  0  0  0  0  0  0  0  0  0  0
    0.2411    1.2599   -1.1869 H   0  0  0  0  0  0  0  0  0  0  0  0
    0.8867    2.4843   -0.0435 H   0  0  0  0  0  0  0  0  0  0  0  0
    0.6325   -0.4711    0.6732 H   0  0  0  0  0  0  0  0  0  0  0  0
    1.4730    0.8505    1.5935 H   0  0  0  0  0  0  0  0  0  0  0  0
    2.8524    1.4287   -0.2261 H   0  0  0  0  0  0  0  0  0  0  0  0
    2.1613    0.0420   -1.2651 H   0  0  0  0  0  0  0  0  0  0  0  0
    3.0112   -1.5625    0.3408 H   0  0  0  0  0  0  0  0  0  0  0  0
    3.7439   -0.2520    1.3274 H   0  0  0  0  0  0  0  0  0  0  0  0
    4.2429   -0.6333   -1.6527 H   0  0  0  0  0  0  0  0  0  0  0  0
    4.9628    0.6157   -0.5877 H   0  0  0  0  0  0  0  0  0  0  0  0
    6.5630   -1.1835   -0.9942 H   0  0  0  0  0  0  0  0  0  0  0  0
    6.1690   -0.9930    0.7317 H   0  0  0  0  0  0  0  0  0  0  0  0
  1  2  1  0
  2  3  2  0
  2  4  1  0
  4  5  1  0
  5  6  1  0
  6  7  1  0
  7  8  1  0
  8  9  1  0
  9 10  1  0
 10 11  1  0
 11 12  1  0
 12 13  1  0
 13 14  1  0
 14 15  1  0
  1 16  1  0
  4 17  1  0
  4 18  1  0
  5 19  1  0
  5 20  1  0
  6 21  1  0
  6 22  1  0
  7 23  1  0
  7 24  1  0
  8 25  1  0
  8 26  1  0
  9 27  1  0
  9 28  1  0
 10 29  1  0
 10 30  1  0
 11 31  1  0
 11 32  1  0
 12 33  1  0
 12 34  1  0
 13 35  1  0
 13 36  1  0
 14 37  1  0
 14 38  1  0
M  END
$$$$
