@<TRIPOS>MOLECULE
*****
 87 91 0 0 0
SMALL
GASTEIGER

@<TRIPOS>ATOM
      1 C          -4.6543   -3.9566   -0.3969 C.3     1  UNL1       -0.0405
      2 C          -3.4515   -2.9701   -0.4453 C.3     1  UNL1        0.0795
      3 C          -2.4594   -3.5763    0.5064 C.3     1  UNL1       -0.0405
      4 C          -2.9944   -2.9404   -1.8685 C.3     1  UNL1       -0.0405
      5 S          -4.1496   -1.4337    0.1106 S.O2    1  UNL1       -0.0245
      6 O          -4.8833   -1.6538    1.3473 O.2     1  UNL1       -0.1738
      7 O          -5.2584   -1.1348   -0.9526 O.2     1  UNL1       -0.1738
      8 C          -3.0467   -0.0715    0.1069 C.3     1  UNL1        0.0851
      9 C          -1.8561   -0.2112    0.9139 C.3     1  UNL1        0.0488
     10 C          -1.9015   -0.2902    2.3977 C.3     1  UNL1       -0.0208
     11 C          -2.4493    0.9188    3.1593 C.3     1  UNL1       -0.0482
     12 C          -2.9823   -0.5224    3.3189 C.3     1  UNL1       -0.0482
     13 N          -0.6922    0.5520    0.4748 N.am    1  UNL1       -0.2885
     14 C           0.3973   -0.2254   -0.1118 C.2     1  UNL1        0.2228
     15 O           0.1898   -1.2843   -0.7477 O.2     1  UNL1       -0.2750
     16 C           1.8083    0.2988    0.0755 C.3     1  UNL1        0.0532
     17 C           2.2018    0.2953    1.5280 C.3     1  UNL1       -0.0508
     18 C           2.7207   -0.5768   -0.7295 C.3     1  UNL1        0.0378
     19 C           2.7334   -1.9892   -0.3374 C.2     1  UNL1        0.2166
     20 O           2.0546   -2.3817    0.6461 O.2     1  UNL1       -0.2756
     21 N           3.5053   -2.9437   -1.0506 N.am    1  UNL1       -0.3006
     22 C           4.3281   -2.6365   -2.1914 C.3     1  UNL1        0.0155
     23 C           5.3027   -3.7766   -2.3078 C.3     1  UNL1       -0.0228
     24 C           5.0188   -4.7362   -1.1901 C.3     1  UNL1        0.0734
     25 C           5.9867   -4.4613   -0.0793 C.2     1  UNL1        0.3094
     26 O           5.6171   -4.1274    1.0698 O.2     1  UNL1       -0.2506
     27 O           7.3460   -4.5781   -0.3214 O.3     1  UNL1       -0.4804
     28 C           3.6087   -4.3693   -0.7722 C.3     1  UNL1        0.0276
     29 C           1.8780    1.7047   -0.4933 C.3     1  UNL1       -0.0300
     30 C           0.4826    2.2436   -0.7131 C.3     1  UNL1        0.0079
     31 C           0.5303    3.7091   -0.9162 C.ar    1  UNL1       -0.0408
     32 C           0.0059    4.2517   -2.0618 C.ar    1  UNL1       -0.0582
     33 C           0.0308    5.6079   -2.2885 C.ar    1  UNL1       -0.0601
     34 C           0.5935    6.4352   -1.3459 C.ar    1  UNL1       -0.0434
     35 C           1.1267    5.9134   -0.1873 C.ar    1  UNL1        0.0412
     36 CL          1.8325    7.0063    0.9844 Cl      1  UNL1       -0.0835
     37 C           1.0898    4.5546    0.0164 C.ar    1  UNL1       -0.0399
     38 C          -0.3975    1.9198    0.5390 C.3     1  UNL1        0.0583
     39 C          -1.3803    2.9449    0.7170 C.ar    1  UNL1       -0.0263
     40 C          -2.4054    3.1448   -0.1681 C.ar    1  UNL1       -0.0554
     41 C          -3.3629    4.1467    0.0085 C.ar    1  UNL1       -0.0431
     42 C          -3.2961    4.9783    1.1051 C.ar    1  UNL1        0.0410
     43 CL         -4.4671    6.2572    1.3873 Cl      1  UNL1       -0.0835
     44 C          -2.2793    4.7984    2.0051 C.ar    1  UNL1       -0.0431
     45 C          -1.3577    3.8171    1.8145 C.ar    1  UNL1       -0.0554
     46 H          -4.7948   -4.1836    0.6689 H       1  UNL1        0.0251
     47 H          -5.5417   -3.4713   -0.8245 H       1  UNL1        0.0251
     48 H          -4.3540   -4.8905   -0.9121 H       1  UNL1        0.0251
     49 H          -2.5631   -3.2030    1.5334 H       1  UNL1        0.0251
     50 H          -2.6549   -4.6980    0.6200 H       1  UNL1        0.0251
     51 H          -1.4066   -3.5710    0.1151 H       1  UNL1        0.0251
     52 H          -3.6491   -2.2494   -2.4343 H       1  UNL1        0.0251
     53 H          -1.9193   -2.7067   -1.9863 H       1  UNL1        0.0251
     54 H          -3.1645   -3.9572   -2.3100 H       1  UNL1        0.0251
     55 H          -2.7630    0.2048   -0.9521 H       1  UNL1        0.0519
     56 H          -3.7275    0.7939    0.4630 H       1  UNL1        0.0519
     57 H          -1.5305   -1.3198    0.6356 H       1  UNL1        0.0519
     58 H          -0.8569   -0.5395    2.8751 H       1  UNL1        0.0319
     59 H          -3.0712    1.6231    2.5971 H       1  UNL1        0.0269
     60 H          -1.9558    1.2937    4.0520 H       1  UNL1        0.0269
     61 H          -4.0592   -0.4979    3.2489 H       1  UNL1        0.0269
     62 H          -2.7011   -1.0400    4.3069 H       1  UNL1        0.0269
     63 H           1.3801    0.0102    2.2012 H       1  UNL1        0.0240
     64 H           3.0356   -0.4304    1.7307 H       1  UNL1        0.0240
     65 H           2.6409    1.2948    1.8077 H       1  UNL1        0.0240
     66 H           3.7774   -0.1749   -0.7335 H       1  UNL1        0.0368
     67 H           2.4387   -0.5675   -1.8245 H       1  UNL1        0.0368
     68 H           3.7133   -2.5117   -3.1239 H       1  UNL1        0.0465
     69 H           4.9059   -1.7155   -1.9876 H       1  UNL1        0.0465
     70 H           5.2340   -4.2842   -3.3037 H       1  UNL1        0.0289
     71 H           6.3642   -3.4153   -2.2441 H       1  UNL1        0.0289
     72 H           5.1089   -5.7572   -1.5773 H       1  UNL1        0.0429
     73 H           8.0566   -4.2851    0.3371 H       1  UNL1        0.2951
     74 H           3.5065   -4.5874    0.3064 H       1  UNL1        0.0472
     75 H           2.9198   -4.9691   -1.3967 H       1  UNL1        0.0472
     76 H           2.4231    1.7702   -1.4493 H       1  UNL1        0.0282
     77 H           2.3800    2.3470    0.2480 H       1  UNL1        0.0282
     78 H          -0.0052    1.7601   -1.5767 H       1  UNL1        0.0370
     79 H          -0.4487    3.6320   -2.8335 H       1  UNL1        0.0620
     80 H          -0.3895    6.0380   -3.2053 H       1  UNL1        0.0618
     81 H           0.6126    7.4980   -1.5246 H       1  UNL1        0.0632
     82 H           1.4938    4.1180    0.9030 H       1  UNL1        0.0635
     83 H           0.3745    2.0413    1.3701 H       1  UNL1        0.0556
     84 H          -2.5386    2.5474   -1.0629 H       1  UNL1        0.0621
     85 H          -4.1631    4.2870   -0.7018 H       1  UNL1        0.0632
     86 H          -2.2239    5.4457    2.8625 H       1  UNL1        0.0632
     87 H          -0.5478    3.6697    2.5262 H       1  UNL1        0.0621
@<TRIPOS>BOND
     1     1     2    1
     2     2     3    1
     3     2     4    1
     4     2     5    1
     5     5     6    2
     6     5     7    2
     7     5     8    1
     8     8     9    1
     9     9    10    1
    10    10    11    1
    11    11    12    1
    12     9    13    1
    13    13    14   am
    14    14    15    2
    15    14    16    1
    16    16    17    1
    17    16    18    1
    18    18    19    1
    19    19    20    2
    20    19    21   am
    21    21    22    1
    22    22    23    1
    23    23    24    1
    24    24    25    1
    25    25    26    2
    26    25    27    1
    27    24    28    1
    28    16    29    1
    29    29    30    1
    30    30    31    1
    31    31    32   ar
    32    32    33   ar
    33    33    34   ar
    34    34    35   ar
    35    35    36    1
    36    35    37   ar
    37    30    38    1
    38    38    39    1
    39    39    40   ar
    40    40    41   ar
    41    41    42   ar
    42    42    43    1
    43    42    44   ar
    44    44    45   ar
    45    12    10    1
    46    38    13    1
    47    45    39   ar
    48    28    21    1
    49    37    31   ar
    50     1    46    1
    51     1    47    1
    52     1    48    1
    53     3    49    1
    54     3    50    1
    55     3    51    1
    56     4    52    1
    57     4    53    1
    58     4    54    1
    59     8    55    1
    60     8    56    1
    61     9    57    1
    62    10    58    1
    63    11    59    1
    64    11    60    1
    65    12    61    1
    66    12    62    1
    67    17    63    1
    68    17    64    1
    69    17    65    1
    70    18    66    1
    71    18    67    1
    72    22    68    1
    73    22    69    1
    74    23    70    1
    75    23    71    1
    76    24    72    1
    77    27    73    1
    78    28    74    1
    79    28    75    1
    80    29    76    1
    81    29    77    1
    82    30    78    1
    83    32    79    1
    84    33    80    1
    85    34    81    1
    86    37    82    1
    87    38    83    1
    88    40    84    1
    89    41    85    1
    90    44    86    1
    91    45    87    1
