
     RDKit          3D

 40 43  0  0  0  0  0  0  0  0999 V2000
    0.0187   -4.3595    3.9182 Cl  0  0  0  0  0  0  0  0  0  0  0  0
   -0.5798   -3.2784    2.6781 C   0  0  0  0  0  0  0  0  0  0  0  0
    0.1684   -2.3264    2.1227 N   0  0  0  0  0  0  0  0  0  0  0  0
   -0.3232   -1.4818    1.1433 C   0  0  0  0  0  0  0  0  0  0  0  0
    0.5863   -0.6521    0.4800 N   0  0  0  0  0  0  0  0  0  0  0  0
    1.9305   -0.5480    1.1069 C   0  0  0  0  0  0  0  0  0  0  0  0
    2.8201    0.3544    0.3693 C   0  0  0  0  0  0  0  0  0  0  0  0
    2.8699    1.7079    0.6759 C   0  0  0  0  0  0  0  0  0  0  0  0
    3.6869    2.5959    0.0144 C   0  0  0  0  0  0  0  0  0  0  0  0
    4.4833    2.1095   -0.9916 C   0  0  0  0  0  0  0  0  0  0  0  0
    4.4440    0.7713   -1.3057 C   0  0  0  0  0  0  0  0  0  0  0  0
    3.6329   -0.0569   -0.6346 N   0  0  0  0  0  0  0  0  0  0  0  0
   -1.6229   -1.6511    0.7616 C   0  0  0  0  0  0  0  0  0  0  0  0
   -2.2086   -0.8421   -0.1769 C   0  0  0  0  0  0  0  0  0  0  0  0
   -1.5932    0.3408   -0.7279 C   0  0  0  0  0  0  0  0  0  0  0  0
   -1.3946    0.4462   -2.0811 C   0  0  0  0  0  0  0  0  0  0  0  0
   -0.9159    1.6168   -2.6601 C   0  0  0  0  0  0  0  0  0  0  0  0
   -0.6350    2.6912   -1.8668 C   0  0  0  0  0  0  0  0  0  0  0  0
   -0.8250    2.6131   -0.5051 C   0  0  0  0  0  0  0  0  0  0  0  0
   -1.3084    1.4282    0.0714 C   0  0  0  0  0  0  0  0  0  0  0  0
   -3.5636   -1.0729   -0.5169 C   0  0  0  0  0  0  0  0  0  0  0  0
   -4.3001   -2.0543    0.0528 C   0  0  0  0  0  0  0  0  0  0  0  0
   -3.7269   -2.8625    0.9990 C   0  0  0  0  0  0  0  0  0  0  0  0
   -2.4097   -2.6577    1.3458 C   0  0  0  0  0  0  0  0  0  0  0  0
   -1.8512   -3.4265    2.2785 N   0  0  0  0  0  0  0  0  0  0  0  0
    0.5242   -0.1726   -0.3768 H   0  0  0  0  0  0  0  0  0  0  0  0
    2.3660   -1.5710    1.1531 H   0  0  0  0  0  0  0  0  0  0  0  0
    1.7973   -0.1908    2.1356 H   0  0  0  0  0  0  0  0  0  0  0  0
    2.2474    2.1212    1.4711 H   0  0  0  0  0  0  0  0  0  0  0  0
    3.7181    3.6621    0.2648 H   0  0  0  0  0  0  0  0  0  0  0  0
    5.1519    2.7837   -1.5470 H   0  0  0  0  0  0  0  0  0  0  0  0
    5.0893    0.4328   -2.1059 H   0  0  0  0  0  0  0  0  0  0  0  0
   -1.6147   -0.3987   -2.7117 H   0  0  0  0  0  0  0  0  0  0  0  0
   -0.7586    1.7026   -3.7253 H   0  0  0  0  0  0  0  0  0  0  0  0
   -0.2578    3.6107   -2.3310 H   0  0  0  0  0  0  0  0  0  0  0  0
   -0.5934    3.4792    0.0911 H   0  0  0  0  0  0  0  0  0  0  0  0
   -1.4377    1.4251    1.1433 H   0  0  0  0  0  0  0  0  0  0  0  0
   -3.9955   -0.4273   -1.2597 H   0  0  0  0  0  0  0  0  0  0  0  0
   -5.3336   -2.2119   -0.2257 H   0  0  0  0  0  0  0  0  0  0  0  0
   -4.2857   -3.6499    1.4727 H   0  0  0  0  0  0  0  0  0  0  0  0
  1  2  1  0
  2  3  2  0
  3  4  1  0
  4  5  1  0
  5  6  1  0
  6  7  1  0
  7  8  2  0
  8  9  1  0
  9 10  2  0
 10 11  1  0
 11 12  2  0
  4 13  2  0
 13 14  1  0
 14 15  1  0
 15 16  2  0
 16 17  1  0
 17 18  2  0
 18 19  1  0
 19 20  2  0
 14 21  2  0
 21 22  1  0
 22 23  2  0
 23 24  1  0
 24 25  2  0
 25  2  1  0
 12  7  1  0
 24 13  1  0
 20 15  1  0
  5 26  1  0
  6 27  1  0
  6 28  1  0
  8 29  1  0
  9 30  1  0
 10 31  1  0
 11 32  1  0
 16 33  1  0
 17 34  1  0
 18 35  1  0
 19 36  1  0
 20 37  1  0
 21 38  1  0
 22 39  1  0
 23 40  1  0
M  END
$$$$
