@<TRIPOS>MOLECULE
*****
 40 43 0 0 0
SMALL
GASTEIGER

@<TRIPOS>ATOM
      1 CL          0.0187   -4.3595    3.9182 Cl      1  UNL1       -0.0410
      2 C          -0.5798   -3.2784    2.6781 C.ar    1  UNL1        0.2250
      3 N           0.1684   -2.3264    2.1227 N.ar    1  UNL1       -0.2020
      4 C          -0.3232   -1.4818    1.1433 C.ar    1  UNL1        0.1321
      5 N           0.5863   -0.6521    0.4800 N.pl3   1  UNL1       -0.3229
      6 C           1.9305   -0.5480    1.1069 C.3     1  UNL1        0.0528
      7 C           2.8201    0.3544    0.3693 C.ar    1  UNL1        0.0583
      8 C           2.8699    1.7079    0.6759 C.ar    1  UNL1       -0.0388
      9 C           3.6869    2.5959    0.0144 C.ar    1  UNL1       -0.0586
     10 C           4.4833    2.1095   -0.9916 C.ar    1  UNL1       -0.0436
     11 C           4.4440    0.7713   -1.3057 C.ar    1  UNL1        0.0279
     12 N           3.6329   -0.0569   -0.6346 N.ar    1  UNL1       -0.2583
     13 C          -1.6229   -1.6511    0.7616 C.ar    1  UNL1        0.0479
     14 C          -2.2086   -0.8421   -0.1769 C.ar    1  UNL1       -0.0054
     15 C          -1.5932    0.3408   -0.7279 C.ar    1  UNL1       -0.0171
     16 C          -1.3946    0.4462   -2.0811 C.ar    1  UNL1       -0.0540
     17 C          -0.9159    1.6168   -2.6601 C.ar    1  UNL1       -0.0612
     18 C          -0.6350    2.6912   -1.8668 C.ar    1  UNL1       -0.0617
     19 C          -0.8250    2.6131   -0.5051 C.ar    1  UNL1       -0.0612
     20 C          -1.3084    1.4282    0.0714 C.ar    1  UNL1       -0.0540
     21 C          -3.5636   -1.0729   -0.5169 C.ar    1  UNL1       -0.0532
     22 C          -4.3001   -2.0543    0.0528 C.ar    1  UNL1       -0.0591
     23 C          -3.7269   -2.8625    0.9990 C.ar    1  UNL1       -0.0355
     24 C          -2.4097   -2.6577    1.3458 C.ar    1  UNL1        0.0781
     25 N          -1.8512   -3.4265    2.2785 N.ar    1  UNL1       -0.2173
     26 H           0.5242   -0.1726   -0.3768 H       1  UNL1        0.1479
     27 H           2.3660   -1.5710    1.1531 H       1  UNL1        0.0526
     28 H           1.7973   -0.1908    2.1356 H       1  UNL1        0.0526
     29 H           2.2474    2.1212    1.4711 H       1  UNL1        0.0636
     30 H           3.7181    3.6621    0.2648 H       1  UNL1        0.0619
     31 H           5.1519    2.7837   -1.5470 H       1  UNL1        0.0633
     32 H           5.0893    0.4328   -2.1059 H       1  UNL1        0.0829
     33 H          -1.6147   -0.3987   -2.7117 H       1  UNL1        0.0624
     34 H          -0.7586    1.7026   -3.7253 H       1  UNL1        0.0618
     35 H          -0.2578    3.6107   -2.3310 H       1  UNL1        0.0618
     36 H          -0.5934    3.4792    0.0911 H       1  UNL1        0.0618
     37 H          -1.4377    1.4251    1.1433 H       1  UNL1        0.0624
     38 H          -3.9955   -0.4273   -1.2597 H       1  UNL1        0.0624
     39 H          -5.3336   -2.2119   -0.2257 H       1  UNL1        0.0618
     40 H          -4.2857   -3.6499    1.4727 H       1  UNL1        0.0639
@<TRIPOS>BOND
     1     1     2    1
     2     2     3   ar
     3     3     4   ar
     4     4     5    1
     5     5     6    1
     6     6     7    1
     7     7     8   ar
     8     8     9   ar
     9     9    10   ar
    10    10    11   ar
    11    11    12   ar
    12     4    13   ar
    13    13    14   ar
    14    14    15    1
    15    15    16   ar
    16    16    17   ar
    17    17    18   ar
    18    18    19   ar
    19    19    20   ar
    20    14    21   ar
    21    21    22   ar
    22    22    23   ar
    23    23    24   ar
    24    24    25   ar
    25    25     2   ar
    26    12     7   ar
    27    24    13   ar
    28    20    15   ar
    29     5    26    1
    30     6    27    1
    31     6    28    1
    32     8    29    1
    33     9    30    1
    34    10    31    1
    35    11    32    1
    36    16    33    1
    37    17    34    1
    38    18    35    1
    39    19    36    1
    40    20    37    1
    41    21    38    1
    42    22    39    1
    43    23    40    1
