@<TRIPOS>MOLECULE
*****
 62 66 0 0 0
SMALL
GASTEIGER

@<TRIPOS>ATOM
      1 C          -7.5096    1.1611    1.6414 C.3     1  UNL1       -0.0012
      2 C          -6.2012    1.8185    1.8578 C.2     1  UNL1        0.1656
      3 O          -6.2356    2.8755    2.4988 O.2     1  UNL1       -0.2922
      4 C          -4.9643    1.2420    1.3412 C.ar    1  UNL1        0.0852
      5 C          -3.7305    1.8736    1.5515 C.ar    1  UNL1       -0.0227
      6 C          -3.6885    3.1351    2.3015 C.3     1  UNL1       -0.0382
      7 C          -2.6699    1.1953    0.9998 C.ar    1  UNL1        0.0395
      8 C          -1.4253    1.7392    1.1570 C.ar    1  UNL1        0.0421
      9 N          -0.3603    1.1164    0.6385 N.ar    1  UNL1       -0.2219
     10 C          -0.4003   -0.0344   -0.0465 C.ar    1  UNL1        0.2224
     11 N           0.6997   -0.7129   -0.6028 N.pl3   1  UNL1       -0.2684
     12 C           2.0672   -0.3503   -0.5704 C.ar    1  UNL1        0.1251
     13 N           3.0063   -1.1135   -1.1555 N.ar    1  UNL1       -0.2383
     14 C           4.3141   -0.8278   -1.1610 C.ar    1  UNL1        0.0507
     15 C           4.8300    0.2968   -0.5559 C.ar    1  UNL1        0.0482
     16 C           3.9191    1.1235    0.0635 C.ar    1  UNL1       -0.0359
     17 C           2.5855    0.7738    0.0340 C.ar    1  UNL1       -0.0198
     18 N           6.2234    0.5422   -0.5966 N.pl3   1  UNL1       -0.3263
     19 C           6.9529    1.6575   -0.0298 C.3     1  UNL1        0.0248
     20 C           7.9394    1.1737    1.0285 C.3     1  UNL1        0.0117
     21 N           8.5885   -0.0607    0.5850 N.3     1  UNL1       -0.3130
     22 C           8.5177   -0.0706   -0.8648 C.3     1  UNL1        0.0117
     23 C           7.0974   -0.3948   -1.2719 C.3     1  UNL1        0.0248
     24 N          -1.6337   -0.5409   -0.1827 N.ar    1  UNL1       -0.1961
     25 C          -2.7245    0.0172    0.3004 C.ar    1  UNL1        0.1490
     26 N          -3.9257   -0.5596    0.1184 N.ar    1  UNL1       -0.2890
     27 C          -4.0722   -1.7702   -0.5866 C.3     1  UNL1        0.0393
     28 C          -2.8546   -2.5264   -0.9565 C.3     1  UNL1       -0.0319
     29 C          -3.5380   -3.7468   -1.6091 C.3     1  UNL1       -0.0511
     30 C          -4.6702   -3.1045   -2.4127 C.3     1  UNL1       -0.0511
     31 C          -4.7373   -1.6449   -1.9526 C.3     1  UNL1       -0.0319
     32 C          -5.0169    0.0395    0.6269 C.ar    1  UNL1        0.2639
     33 O          -6.1283   -0.5491    0.4255 O.2     1  UNL1       -0.2669
     34 H          -7.7873    1.0547    0.5689 H       1  UNL1        0.0309
     35 H          -8.3514    1.7385    2.0871 H       1  UNL1        0.0309
     36 H          -7.5275    0.1513    2.1297 H       1  UNL1        0.0309
     37 H          -4.3003    3.9070    1.7788 H       1  UNL1        0.0278
     38 H          -2.6783    3.5561    2.3879 H       1  UNL1        0.0278
     39 H          -4.0871    3.0223    3.3403 H       1  UNL1        0.0278
     40 H          -1.1852    2.6371    1.6634 H       1  UNL1        0.0838
     41 H           0.4961   -1.6199   -1.1197 H       1  UNL1        0.1564
     42 H           4.9733   -1.5292   -1.6711 H       1  UNL1        0.0849
     43 H           4.2572    2.0106    0.5502 H       1  UNL1        0.0638
     44 H           1.9347    1.4551    0.5309 H       1  UNL1        0.0652
     45 H           7.4977    2.2501   -0.8033 H       1  UNL1        0.0476
     46 H           6.2527    2.3465    0.4379 H       1  UNL1        0.0476
     47 H           7.4715    1.0128    1.9999 H       1  UNL1        0.0439
     48 H           8.7250    1.9317    1.1028 H       1  UNL1        0.0439
     49 H           7.9964   -0.8570    0.9080 H       1  UNL1        0.1220
     50 H           9.1541   -0.8989   -1.2381 H       1  UNL1        0.0439
     51 H           8.8893    0.8517   -1.3197 H       1  UNL1        0.0439
     52 H           6.9147   -1.4427   -0.9494 H       1  UNL1        0.0476
     53 H           7.0517   -0.2908   -2.3811 H       1  UNL1        0.0476
     54 H          -4.7439   -2.4706   -0.0184 H       1  UNL1        0.0529
     55 H          -2.2013   -2.8452   -0.1357 H       1  UNL1        0.0285
     56 H          -2.2921   -2.0951   -1.8377 H       1  UNL1        0.0285
     57 H          -2.8355   -4.2428   -2.3186 H       1  UNL1        0.0266
     58 H          -3.9177   -4.4387   -0.8358 H       1  UNL1        0.0266
     59 H          -4.4862   -3.1514   -3.4902 H       1  UNL1        0.0266
     60 H          -5.6420   -3.5443   -2.1099 H       1  UNL1        0.0266
     61 H          -4.0683   -0.9883   -2.5557 H       1  UNL1        0.0285
     62 H          -5.7643   -1.2846   -1.8519 H       1  UNL1        0.0285
@<TRIPOS>BOND
     1     1     2    1
     2     2     3    2
     3     2     4    1
     4     4     5   ar
     5     5     6    1
     6     5     7   ar
     7     7     8   ar
     8     8     9   ar
     9     9    10   ar
    10    10    11    1
    11    11    12    1
    12    12    13   ar
    13    13    14   ar
    14    14    15   ar
    15    15    16   ar
    16    16    17   ar
    17    15    18    1
    18    18    19    1
    19    19    20    1
    20    20    21    1
    21    21    22    1
    22    22    23    1
    23    10    24   ar
    24    24    25   ar
    25    25    26   ar
    26    26    27    1
    27    27    28    1
    28    28    29    1
    29    29    30    1
    30    30    31    1
    31    26    32   ar
    32    32    33    2
    33    32     4   ar
    34    25     7   ar
    35    31    27    1
    36    17    12   ar
    37    23    18    1
    38     1    34    1
    39     1    35    1
    40     1    36    1
    41     6    37    1
    42     6    38    1
    43     6    39    1
    44     8    40    1
    45    11    41    1
    46    14    42    1
    47    16    43    1
    48    17    44    1
    49    19    45    1
    50    19    46    1
    51    20    47    1
    52    20    48    1
    53    21    49    1
    54    22    50    1
    55    22    51    1
    56    23    52    1
    57    23    53    1
    58    27    54    1
    59    28    55    1
    60    28    56    1
    61    29    57    1
    62    29    58    1
    63    30    59    1
    64    30    60    1
    65    31    61    1
    66    31    62    1
