@<TRIPOS>MOLECULE
*****
 63 64 0 0 0
SMALL
GASTEIGER

@<TRIPOS>ATOM
      1 C          11.9504    0.3533    1.1078 C.3     1  UNL1       -0.0025
      2 C          10.5534    0.1501    0.7259 C.1     1  UNL1       -0.1040
      3 C           9.3931   -0.0060    0.4156 C.1     1  UNL1       -0.0836
      4 C           7.9995   -0.2003    0.0172 C.3     1  UNL1        0.0710
      5 N           7.1840    0.9139    0.3780 N.pl3   1  UNL1       -0.3330
      6 C           5.7887    0.8832    0.0586 C.ar    1  UNL1        0.0279
      7 C           4.9519    1.9489    0.3914 C.ar    1  UNL1       -0.0390
      8 C           3.6025    1.9310    0.0881 C.ar    1  UNL1       -0.0351
      9 C           3.0766    0.8317   -0.5583 C.ar    1  UNL1        0.0883
     10 C           3.8853   -0.2546   -0.9072 C.ar    1  UNL1       -0.0351
     11 C           5.2260   -0.1902   -0.5834 C.ar    1  UNL1       -0.0390
     12 S           1.3949    0.6248   -1.0255 S.O2    1  UNL1       -0.0021
     13 O           0.7500    1.9754   -1.2728 O.2     1  UNL1       -0.1693
     14 O           1.2670   -0.1680   -2.2785 O.2     1  UNL1       -0.1693
     15 C           0.5121   -0.1509    0.2786 C.3     1  UNL1        0.0849
     16 C          -0.9542   -0.3755   -0.0268 C.3     1  UNL1        0.0713
     17 C          -1.5906    0.9446   -0.2856 C.3     1  UNL1       -0.0214
     18 C          -3.0574    1.0131   -0.0152 C.3     1  UNL1        0.0188
     19 N          -3.6511   -0.2528    0.3736 N.am    1  UNL1       -0.2674
     20 C          -2.9738   -1.4540    0.8216 C.3     1  UNL1        0.0188
     21 C          -1.5578   -1.1059    1.1504 C.3     1  UNL1       -0.0214
     22 C          -5.0687   -0.3276    0.3082 C.2     1  UNL1        0.4034
     23 O          -5.7440   -1.3417    0.6069 O.2     1  UNL1       -0.2262
     24 O          -5.9740    0.6247   -0.0706 O.3     1  UNL1       -0.4445
     25 C          -7.3546    0.4118   -0.0871 C.3     1  UNL1        0.1068
     26 C          -7.7741   -0.7101   -1.0047 C.3     1  UNL1       -0.0253
     27 C          -8.0004    1.6753   -0.6389 C.3     1  UNL1       -0.0253
     28 C          -7.9331    0.1180    1.2813 C.3     1  UNL1       -0.0253
     29 C          -1.1017   -1.2831   -1.2072 C.2     1  UNL1        0.2433
     30 O          -1.6535   -1.0894   -2.3201 O.2     1  UNL1       -0.2731
     31 N          -0.5523   -2.5689   -1.1048 N.am    1  UNL1       -0.1970
     32 O          -0.6008   -3.5119   -2.0861 O.3     1  UNL1       -0.2952
     33 H          12.2965    1.3929    0.9751 H       1  UNL1        0.0362
     34 H          12.1436    0.0728    2.1605 H       1  UNL1        0.0362
     35 H          12.5407   -0.3513    0.4839 H       1  UNL1        0.0362
     36 H           7.9546   -0.2984   -1.0970 H       1  UNL1        0.0598
     37 H           7.6413   -1.1686    0.4122 H       1  UNL1        0.0598
     38 H           7.5566    1.7585    0.8679 H       1  UNL1        0.1470
     39 H           5.3440    2.8226    0.8995 H       1  UNL1        0.0637
     40 H           2.9097    2.7196    0.3183 H       1  UNL1        0.0637
     41 H           3.5273   -1.1428   -1.4149 H       1  UNL1        0.0637
     42 H           5.8805   -1.0089   -0.8365 H       1  UNL1        0.0637
     43 H           0.5130    0.5112    1.1928 H       1  UNL1        0.0514
     44 H           0.9983   -1.0886    0.6320 H       1  UNL1        0.0514
     45 H          -1.0105    1.7301    0.2475 H       1  UNL1        0.0291
     46 H          -1.4403    1.1676   -1.3810 H       1  UNL1        0.0291
     47 H          -3.6211    1.4537   -0.8884 H       1  UNL1        0.0466
     48 H          -3.2240    1.7161    0.8273 H       1  UNL1        0.0466
     49 H          -3.0619   -2.2829    0.0974 H       1  UNL1        0.0466
     50 H          -3.4974   -1.7711    1.7696 H       1  UNL1        0.0466
     51 H          -0.9922   -2.0553    1.2689 H       1  UNL1        0.0291
     52 H          -1.5457   -0.5092    2.0727 H       1  UNL1        0.0291
     53 H          -8.8289   -0.5194   -1.2931 H       1  UNL1        0.0268
     54 H          -7.1894   -0.6947   -1.9483 H       1  UNL1        0.0268
     55 H          -7.7613   -1.7073   -0.5187 H       1  UNL1        0.0268
     56 H          -9.0458    1.7542   -0.2877 H       1  UNL1        0.0268
     57 H          -7.9604    1.6142   -1.7578 H       1  UNL1        0.0268
     58 H          -7.4480    2.5868   -0.3725 H       1  UNL1        0.0268
     59 H          -9.0175    0.3985    1.2031 H       1  UNL1        0.0268
     60 H          -7.4208    0.6345    2.0932 H       1  UNL1        0.0268
     61 H          -7.9600   -0.9999    1.4157 H       1  UNL1        0.0268
     62 H          -0.0429   -2.9789   -0.2902 H       1  UNL1        0.1822
     63 H          -0.2312   -3.1644   -2.9398 H       1  UNL1        0.2414
@<TRIPOS>BOND
     1     1     2    1
     2     2     3    3
     3     3     4    1
     4     4     5    1
     5     5     6    1
     6     6     7   ar
     7     7     8   ar
     8     8     9   ar
     9     9    10   ar
    10    10    11   ar
    11     9    12    1
    12    12    13    2
    13    12    14    2
    14    12    15    1
    15    15    16    1
    16    16    17    1
    17    17    18    1
    18    18    19    1
    19    19    20    1
    20    20    21    1
    21    19    22   am
    22    22    23    2
    23    22    24    1
    24    24    25    1
    25    25    26    1
    26    25    27    1
    27    25    28    1
    28    16    29    1
    29    29    30    2
    30    29    31   am
    31    31    32    1
    32    11     6   ar
    33    21    16    1
    34     1    33    1
    35     1    34    1
    36     1    35    1
    37     4    36    1
    38     4    37    1
    39     5    38    1
    40     7    39    1
    41     8    40    1
    42    10    41    1
    43    11    42    1
    44    15    43    1
    45    15    44    1
    46    17    45    1
    47    17    46    1
    48    18    47    1
    49    18    48    1
    50    20    49    1
    51    20    50    1
    52    21    51    1
    53    21    52    1
    54    26    53    1
    55    26    54    1
    56    26    55    1
    57    27    56    1
    58    27    57    1
    59    27    58    1
    60    28    59    1
    61    28    60    1
    62    28    61    1
    63    31    62    1
    64    32    63    1
