
     RDKit          3D

 17 17  0  0  0  0  0  0  0  0999 V2000
    2.8789    0.3704    0.9598 N   0  0  0  0  0  0  0  0  0  0  0  0
    1.9430   -0.2089   -0.3625 S   0  0  0  0  0  0  0  0  0  0  0  0
    2.2882    0.5271   -1.6448 O   0  0  0  0  0  0  0  0  0  0  0  0
    2.1881   -1.6997   -0.5423 O   0  0  0  0  0  0  0  0  0  0  0  0
    0.2310   -0.0345   -0.0563 C   0  0  0  0  0  0  0  0  0  0  0  0
   -0.4955    1.0949   -0.3995 C   0  0  0  0  0  0  0  0  0  0  0  0
   -1.8522    1.2089   -0.1460 C   0  0  0  0  0  0  0  0  0  0  0  0
   -2.4285    2.3547   -0.5303 F   0  0  0  0  0  0  0  0  0  0  0  0
   -2.4931    0.1550    0.4704 C   0  0  0  0  0  0  0  0  0  0  0  0
   -1.8216   -0.9935    0.8345 C   0  0  0  0  0  0  0  0  0  0  0  0
   -2.4866   -2.0213    1.4447 F   0  0  0  0  0  0  0  0  0  0  0  0
   -0.4708   -1.0703    0.5657 C   0  0  0  0  0  0  0  0  0  0  0  0
    3.7074   -0.2578    1.1227 H   0  0  0  0  0  0  0  0  0  0  0  0
    2.2832    0.3839    1.8093 H   0  0  0  0  0  0  0  0  0  0  0  0
    0.0528    1.8928   -0.8803 H   0  0  0  0  0  0  0  0  0  0  0  0
   -3.5549    0.2896    0.6485 H   0  0  0  0  0  0  0  0  0  0  0  0
    0.0307   -1.9914    0.8660 H   0  0  0  0  0  0  0  0  0  0  0  0
  1  2  1  0
  2  3  2  0
  2  4  2  0
  2  5  1  0
  5  6  2  0
  6  7  1  0
  7  8  1  0
  7  9  2  0
  9 10  1  0
 10 11  1  0
 10 12  2  0
 12  5  1  0
  1 13  1  0
  1 14  1  0
  6 15  1  0
  9 16  1  0
 12 17  1  0
M  END
$$$$
