@<TRIPOS>MOLECULE
*****
 17 17 0 0 0
SMALL
GASTEIGER

@<TRIPOS>ATOM
      1 N           2.8789    0.3704    0.9598 N.3     1  UNL1       -0.2035
      2 S           1.9430   -0.2089   -0.3625 S.O2    1  UNL1        0.0561
      3 O           2.2882    0.5271   -1.6448 O.2     1  UNL1       -0.1533
      4 O           2.1881   -1.6997   -0.5423 O.2     1  UNL1       -0.1533
      5 C           0.2310   -0.0345   -0.0563 C.ar    1  UNL1        0.1104
      6 C          -0.4955    1.0949   -0.3995 C.ar    1  UNL1        0.0001
      7 C          -1.8522    1.2089   -0.1460 C.ar    1  UNL1        0.1280
      8 F          -2.4285    2.3547   -0.5303 F       1  UNL1       -0.2053
      9 C          -2.4931    0.1550    0.4704 C.ar    1  UNL1        0.0089
     10 C          -1.8216   -0.9935    0.8345 C.ar    1  UNL1        0.1280
     11 F          -2.4866   -2.0213    1.4447 F       1  UNL1       -0.2053
     12 C          -0.4708   -1.0703    0.5657 C.ar    1  UNL1        0.0001
     13 H           3.7074   -0.2578    1.1227 H       1  UNL1        0.1442
     14 H           2.2832    0.3839    1.8093 H       1  UNL1        0.1442
     15 H           0.0528    1.8928   -0.8803 H       1  UNL1        0.0666
     16 H          -3.5549    0.2896    0.6485 H       1  UNL1        0.0675
     17 H           0.0307   -1.9914    0.8660 H       1  UNL1        0.0666
@<TRIPOS>BOND
     1     1     2    1
     2     2     3    2
     3     2     4    2
     4     2     5    1
     5     5     6   ar
     6     6     7   ar
     7     7     8    1
     8     7     9   ar
     9     9    10   ar
    10    10    11    1
    11    10    12   ar
    12    12     5   ar
    13     1    13    1
    14     1    14    1
    15     6    15    1
    16     9    16    1
    17    12    17    1
