
     RDKit          3D

 55 59  0  0  0  0  0  0  0  0999 V2000
   10.0385    0.3720    1.3097 C   0  0  0  0  0  0  0  0  0  0  0  0
    8.9108   -0.4317    1.1651 C   0  0  0  0  0  0  0  0  0  0  0  0
    7.9495   -0.1276    0.2352 C   0  0  0  0  0  0  0  0  0  0  0  0
    6.7721   -0.9591    0.0725 C   0  0  0  0  0  0  0  0  0  0  0  0
    6.6713   -2.3383    0.0049 C   0  0  0  0  0  0  0  0  0  0  0  0
    5.3685   -2.6260   -0.1459 N   0  0  0  0  0  0  0  0  0  0  0  0
    4.6297   -1.5338   -0.1799 N   0  0  0  0  0  0  0  0  0  0  0  0
    3.3182   -1.2827   -0.3085 C   0  0  0  0  0  0  0  0  0  0  0  0
    2.8054   -0.0080   -0.3097 C   0  0  0  0  0  0  0  0  0  0  0  0
    1.3746    0.1974   -0.4553 C   0  0  0  0  0  0  0  0  0  0  0  0
    0.4462   -0.7178    0.0309 C   0  0  0  0  0  0  0  0  0  0  0  0
   -0.8991   -0.4745   -0.1323 C   0  0  0  0  0  0  0  0  0  0  0  0
   -1.3854    0.6484   -0.7632 C   0  0  0  0  0  0  0  0  0  0  0  0
   -2.7711    0.8577   -0.9100 O   0  0  0  0  0  0  0  0  0  0  0  0
   -3.6783   -0.1047   -0.4066 C   0  0  0  0  0  0  0  0  0  0  0  0
   -5.0906    0.3571   -0.6763 C   0  0  0  0  0  0  0  0  0  0  0  0
   -6.0709   -0.5701   -0.2021 N   0  0  0  0  0  0  0  0  0  0  0  0
   -6.1694   -0.7051    1.2122 C   0  0  0  0  0  0  0  0  0  0  0  0
   -6.8615    0.4876    1.7935 C   0  0  0  0  0  0  0  0  0  0  0  0
   -8.3182    0.4354    1.3714 C   0  0  0  0  0  0  0  0  0  0  0  0
   -8.4966   -0.3960    0.1394 C   0  0  0  0  0  0  0  0  0  0  0  0
   -7.3415   -0.3350   -0.8067 C   0  0  0  0  0  0  0  0  0  0  0  0
   -0.4781    1.5611   -1.2481 C   0  0  0  0  0  0  0  0  0  0  0  0
    0.8958    1.3292   -1.0906 C   0  0  0  0  0  0  0  0  0  0  0  0
    3.6759    1.0446   -0.1730 C   0  0  0  0  0  0  0  0  0  0  0  0
    4.9891    0.7650   -0.0452 N   0  0  0  0  0  0  0  0  0  0  0  0
    5.4681   -0.5003   -0.0475 C   0  0  0  0  0  0  0  0  0  0  0  0
    8.1605    0.9983   -0.5322 C   0  0  0  0  0  0  0  0  0  0  0  0
    9.2812    1.7908   -0.3832 C   0  0  0  0  0  0  0  0  0  0  0  0
   10.2190    1.4767    0.5373 N   0  0  0  0  0  0  0  0  0  0  0  0
   10.7695    0.1118    2.0393 H   0  0  0  0  0  0  0  0  0  0  0  0
    8.8439   -1.2890    1.8172 H   0  0  0  0  0  0  0  0  0  0  0  0
    7.5117   -3.0170    0.0682 H   0  0  0  0  0  0  0  0  0  0  0  0
    2.6546   -2.1569   -0.4138 H   0  0  0  0  0  0  0  0  0  0  0  0
    0.8365   -1.6047    0.5302 H   0  0  0  0  0  0  0  0  0  0  0  0
   -1.6150   -1.1936    0.2499 H   0  0  0  0  0  0  0  0  0  0  0  0
   -3.4526   -0.2658    0.6458 H   0  0  0  0  0  0  0  0  0  0  0  0
   -3.4949   -1.0274   -0.9971 H   0  0  0  0  0  0  0  0  0  0  0  0
   -5.2018    0.3973   -1.7949 H   0  0  0  0  0  0  0  0  0  0  0  0
   -5.2905    1.3811   -0.3194 H   0  0  0  0  0  0  0  0  0  0  0  0
   -5.2112   -0.9435    1.7057 H   0  0  0  0  0  0  0  0  0  0  0  0
   -6.8284   -1.5939    1.4143 H   0  0  0  0  0  0  0  0  0  0  0  0
   -6.7746    0.4994    2.9168 H   0  0  0  0  0  0  0  0  0  0  0  0
   -6.4582    1.4605    1.4081 H   0  0  0  0  0  0  0  0  0  0  0  0
   -8.7179    1.4513    1.2134 H   0  0  0  0  0  0  0  0  0  0  0  0
   -8.8967   -0.0006    2.2344 H   0  0  0  0  0  0  0  0  0  0  0  0
   -8.8002   -1.4432    0.3665 H   0  0  0  0  0  0  0  0  0  0  0  0
   -9.3821    0.0462   -0.4121 H   0  0  0  0  0  0  0  0  0  0  0  0
   -7.4974   -1.1572   -1.5612 H   0  0  0  0  0  0  0  0  0  0  0  0
   -7.3883    0.6074   -1.3918 H   0  0  0  0  0  0  0  0  0  0  0  0
   -0.7888    2.4688   -1.7555 H   0  0  0  0  0  0  0  0  0  0  0  0
    1.6390    2.0324   -1.4639 H   0  0  0  0  0  0  0  0  0  0  0  0
    3.3261    2.0780   -0.1670 H   0  0  0  0  0  0  0  0  0  0  0  0
    7.4308    1.2888   -1.2863 H   0  0  0  0  0  0  0  0  0  0  0  0
    9.3726    2.6593   -1.0240 H   0  0  0  0  0  0  0  0  0  0  0  0
  1  2  2  0
  2  3  1  0
  3  4  1  0
  4  5  1  0
  5  6  2  0
  6  7  1  0
  7  8  1  0
  8  9  2  0
  9 10  1  0
 10 11  2  0
 11 12  1  0
 12 13  2  0
 13 14  1  0
 14 15  1  0
 15 16  1  0
 16 17  1  0
 17 18  1  0
 18 19  1  0
 19 20  1  0
 20 21  1  0
 21 22  1  0
 13 23  1  0
 23 24  2  0
  9 25  1  0
 25 26  2  0
 26 27  1  0
  3 28  2  0
 28 29  1  0
 29 30  2  0
 30  1  1  0
 27  4  2  0
 27  7  1  0
 24 10  1  0
 22 17  1  0
  1 31  1  0
  2 32  1  0
  5 33  1  0
  8 34  1  0
 11 35  1  0
 12 36  1  0
 15 37  1  0
 15 38  1  0
 16 39  1  0
 16 40  1  0
 18 41  1  0
 18 42  1  0
 19 43  1  0
 19 44  1  0
 20 45  1  0
 20 46  1  0
 21 47  1  0
 21 48  1  0
 22 49  1  0
 22 50  1  0
 23 51  1  0
 24 52  1  0
 25 53  1  0
 28 54  1  0
 29 55  1  0
M  END
$$$$
