@<TRIPOS>MOLECULE
*****
 55 59 0 0 0
SMALL
GASTEIGER

@<TRIPOS>ATOM
      1 C          10.0385    0.3720    1.3097 C.ar    1  UNL1        0.0281
      2 C           8.9108   -0.4317    1.1651 C.ar    1  UNL1       -0.0357
      3 C           7.9495   -0.1276    0.2352 C.ar    1  UNL1       -0.0100
      4 C           6.7721   -0.9591    0.0725 C.ar    1  UNL1        0.0461
      5 C           6.6713   -2.3383    0.0049 C.ar    1  UNL1        0.0596
      6 N           5.3685   -2.6260   -0.1459 N.ar    1  UNL1       -0.1727
      7 N           4.6297   -1.5338   -0.1799 N.ar    1  UNL1       -0.2206
      8 C           3.3182   -1.2827   -0.3085 C.ar    1  UNL1        0.0406
      9 C           2.8054   -0.0080   -0.3097 C.ar    1  UNL1        0.0184
     10 C           1.3746    0.1974   -0.4553 C.ar    1  UNL1       -0.0148
     11 C           0.4462   -0.7178    0.0309 C.ar    1  UNL1       -0.0505
     12 C          -0.8991   -0.4745   -0.1323 C.ar    1  UNL1       -0.0194
     13 C          -1.3854    0.6484   -0.7632 C.ar    1  UNL1        0.1206
     14 O          -2.7711    0.8577   -0.9100 O.3     1  UNL1       -0.4907
     15 C          -3.6783   -0.1047   -0.4066 C.3     1  UNL1        0.1022
     16 C          -5.0906    0.3571   -0.6763 C.3     1  UNL1        0.0331
     17 N          -6.0709   -0.5701   -0.2021 N.3     1  UNL1       -0.2991
     18 C          -6.1694   -0.7051    1.2122 C.3     1  UNL1       -0.0010
     19 C          -6.8615    0.4876    1.7935 C.3     1  UNL1       -0.0402
     20 C          -8.3182    0.4354    1.3714 C.3     1  UNL1       -0.0507
     21 C          -8.4966   -0.3960    0.1394 C.3     1  UNL1       -0.0402
     22 C          -7.3415   -0.3350   -0.8067 C.3     1  UNL1       -0.0010
     23 C          -0.4781    1.5611   -1.2481 C.ar    1  UNL1       -0.0194
     24 C           0.8958    1.3292   -1.0906 C.ar    1  UNL1       -0.0505
     25 C           3.6759    1.0446   -0.1730 C.ar    1  UNL1        0.0391
     26 N           4.9891    0.7650   -0.0452 N.ar    1  UNL1       -0.2350
     27 C           5.4681   -0.5003   -0.0475 C.ar    1  UNL1        0.1632
     28 C           8.1605    0.9983   -0.5322 C.ar    1  UNL1       -0.0357
     29 C           9.2812    1.7908   -0.3832 C.ar    1  UNL1        0.0281
     30 N          10.2190    1.4767    0.5373 N.ar    1  UNL1       -0.2632
     31 H          10.7695    0.1118    2.0393 H       1  UNL1        0.0830
     32 H           8.8439   -1.2890    1.8172 H       1  UNL1        0.0639
     33 H           7.5117   -3.0170    0.0682 H       1  UNL1        0.0855
     34 H           2.6546   -2.1569   -0.4138 H       1  UNL1        0.0837
     35 H           0.8365   -1.6047    0.5302 H       1  UNL1        0.0625
     36 H          -1.6150   -1.1936    0.2499 H       1  UNL1        0.0654
     37 H          -3.4526   -0.2658    0.6458 H       1  UNL1        0.0709
     38 H          -3.4949   -1.0274   -0.9971 H       1  UNL1        0.0709
     39 H          -5.2018    0.3973   -1.7949 H       1  UNL1        0.0460
     40 H          -5.2905    1.3811   -0.3194 H       1  UNL1        0.0460
     41 H          -5.2112   -0.9435    1.7057 H       1  UNL1        0.0427
     42 H          -6.8284   -1.5939    1.4143 H       1  UNL1        0.0427
     43 H          -6.7746    0.4994    2.9168 H       1  UNL1        0.0278
     44 H          -6.4582    1.4605    1.4081 H       1  UNL1        0.0278
     45 H          -8.7179    1.4513    1.2134 H       1  UNL1        0.0266
     46 H          -8.8967   -0.0006    2.2344 H       1  UNL1        0.0266
     47 H          -8.8002   -1.4432    0.3665 H       1  UNL1        0.0278
     48 H          -9.3821    0.0462   -0.4121 H       1  UNL1        0.0278
     49 H          -7.4974   -1.1572   -1.5612 H       1  UNL1        0.0427
     50 H          -7.3883    0.6074   -1.3918 H       1  UNL1        0.0427
     51 H          -0.7888    2.4688   -1.7555 H       1  UNL1        0.0654
     52 H           1.6390    2.0324   -1.4639 H       1  UNL1        0.0625
     53 H           3.3261    2.0780   -0.1670 H       1  UNL1        0.0837
     54 H           7.4308    1.2888   -1.2863 H       1  UNL1        0.0639
     55 H           9.3726    2.6593   -1.0240 H       1  UNL1        0.0830
@<TRIPOS>BOND
     1     1     2   ar
     2     2     3   ar
     3     3     4    1
     4     4     5   ar
     5     5     6   ar
     6     6     7   ar
     7     7     8   ar
     8     8     9   ar
     9     9    10    1
    10    10    11   ar
    11    11    12   ar
    12    12    13   ar
    13    13    14    1
    14    14    15    1
    15    15    16    1
    16    16    17    1
    17    17    18    1
    18    18    19    1
    19    19    20    1
    20    20    21    1
    21    21    22    1
    22    13    23   ar
    23    23    24   ar
    24     9    25   ar
    25    25    26   ar
    26    26    27   ar
    27     3    28   ar
    28    28    29   ar
    29    29    30   ar
    30    30     1   ar
    31    27     4   ar
    32    27     7   ar
    33    24    10   ar
    34    22    17    1
    35     1    31    1
    36     2    32    1
    37     5    33    1
    38     8    34    1
    39    11    35    1
    40    12    36    1
    41    15    37    1
    42    15    38    1
    43    16    39    1
    44    16    40    1
    45    18    41    1
    46    18    42    1
    47    19    43    1
    48    19    44    1
    49    20    45    1
    50    20    46    1
    51    21    47    1
    52    21    48    1
    53    22    49    1
    54    22    50    1
    55    23    51    1
    56    24    52    1
    57    25    53    1
    58    28    54    1
    59    29    55    1
