
     RDKit          3D

 56 61  0  0  0  0  0  0  0  0999 V2000
    9.1036   -0.4917    0.2166 C   0  0  0  0  0  0  0  0  0  0  0  0
    8.0707   -1.2105    0.8563 O   0  0  0  0  0  0  0  0  0  0  0  0
    6.7602   -0.8379    0.6448 C   0  0  0  0  0  0  0  0  0  0  0  0
    5.7078   -1.5075    1.2466 C   0  0  0  0  0  0  0  0  0  0  0  0
    4.3994   -1.1574    1.0529 C   0  0  0  0  0  0  0  0  0  0  0  0
    4.1143   -0.0876    0.2194 C   0  0  0  0  0  0  0  0  0  0  0  0
    2.9102    0.4813   -0.1554 C   0  0  0  0  0  0  0  0  0  0  0  0
    1.6135    0.0617    0.2632 N   0  0  0  0  0  0  0  0  0  0  0  0
    0.8193    0.6509    1.1971 C   0  0  0  0  0  0  0  0  0  0  0  0
    1.1304    1.6906    1.8488 O   0  0  0  0  0  0  0  0  0  0  0  0
   -0.3273   -0.0523    1.3012 N   0  0  0  0  0  0  0  0  0  0  0  0
   -1.4340    0.2486    2.1872 C   0  0  0  0  0  0  0  0  0  0  0  0
   -2.3690    1.1468    1.4811 C   0  0  0  0  0  0  0  0  0  0  0  0
   -2.1482    2.5135    1.6169 C   0  0  0  0  0  0  0  0  0  0  0  0
   -3.0099    3.3707    0.9658 C   0  0  0  0  0  0  0  0  0  0  0  0
   -4.0663    2.9328    0.1966 C   0  0  0  0  0  0  0  0  0  0  0  0
   -4.2914    1.5880    0.0572 C   0  0  0  0  0  0  0  0  0  0  0  0
   -5.3834    1.0060   -0.7352 C   0  0  1  0  0  0  0  0  0  0  0  0
   -6.4522    2.0071   -1.0942 C   0  0  0  0  0  0  0  0  0  0  0  0
   -4.9513    0.3418   -1.8972 O   0  0  0  0  0  0  0  0  0  0  0  0
   -5.4045   -0.9674   -1.8934 C   0  0  0  0  0  0  0  0  0  0  0  0
   -5.2568   -1.9287   -2.8985 O   0  0  0  0  0  0  0  0  0  0  0  0
   -6.0271   -1.2245   -0.7733 N   0  0  0  0  0  0  0  0  0  0  0  0
   -6.0186   -0.0734    0.0413 C   0  0  0  0  0  0  0  0  0  0  0  0
   -6.4632    0.0151    1.1974 O   0  0  0  0  0  0  0  0  0  0  0  0
   -3.4275    0.7175    0.7102 C   0  0  0  0  0  0  0  0  0  0  0  0
   -0.2938   -1.0816    0.4577 C   0  0  0  0  0  0  0  0  0  0  0  0
   -1.1152   -2.1315    0.0958 C   0  0  0  0  0  0  0  0  0  0  0  0
   -0.7395   -3.0455   -0.8540 C   0  0  0  0  0  0  0  0  0  0  0  0
    0.4791   -2.9499   -1.4867 C   0  0  0  0  0  0  0  0  0  0  0  0
    1.3112   -1.9264   -1.1522 C   0  0  0  0  0  0  0  0  0  0  0  0
    0.9239   -1.0034   -0.1883 C   0  0  0  0  0  0  0  0  0  0  0  0
    3.2496    1.4912   -0.9818 N   0  0  0  0  0  0  0  0  0  0  0  0
    4.5495    1.5494   -1.1127 O   0  0  0  0  0  0  0  0  0  0  0  0
    5.1297    0.6154   -0.4065 C   0  0  0  0  0  0  0  0  0  0  0  0
    6.4379    0.2154   -0.1731 C   0  0  0  0  0  0  0  0  0  0  0  0
   10.0979   -0.9123    0.4059 H   0  0  0  0  0  0  0  0  0  0  0  0
    8.8532   -0.4390   -0.8682 H   0  0  0  0  0  0  0  0  0  0  0  0
    9.0427    0.5653    0.5990 H   0  0  0  0  0  0  0  0  0  0  0  0
    5.9027   -2.3491    1.9042 H   0  0  0  0  0  0  0  0  0  0  0  0
    3.5608   -1.6635    1.5105 H   0  0  0  0  0  0  0  0  0  0  0  0
   -1.9635   -0.7073    2.4543 H   0  0  0  0  0  0  0  0  0  0  0  0
   -1.0729    0.7510    3.1143 H   0  0  0  0  0  0  0  0  0  0  0  0
   -1.3231    2.8687    2.2180 H   0  0  0  0  0  0  0  0  0  0  0  0
   -2.8245    4.4358    1.0815 H   0  0  0  0  0  0  0  0  0  0  0  0
   -4.7393    3.6112   -0.3121 H   0  0  0  0  0  0  0  0  0  0  0  0
   -6.2533    2.5243   -2.0468 H   0  0  0  0  0  0  0  0  0  0  0  0
   -6.6186    2.7143   -0.2499 H   0  0  0  0  0  0  0  0  0  0  0  0
   -7.3992    1.4429   -1.2241 H   0  0  0  0  0  0  0  0  0  0  0  0
   -6.0054   -2.6264   -2.9721 H   0  0  0  0  0  0  0  0  0  0  0  0
   -3.5900   -0.3563    0.6122 H   0  0  0  0  0  0  0  0  0  0  0  0
   -2.0777   -2.2122    0.5927 H   0  0  0  0  0  0  0  0  0  0  0  0
   -1.4011   -3.8698   -1.1283 H   0  0  0  0  0  0  0  0  0  0  0  0
    0.7700   -3.6839   -2.2432 H   0  0  0  0  0  0  0  0  0  0  0  0
    2.2823   -1.8424   -1.6500 H   0  0  0  0  0  0  0  0  0  0  0  0
    7.2279    0.7824   -0.6761 H   0  0  0  0  0  0  0  0  0  0  0  0
  1  2  1  0
  2  3  1  0
  3  4  2  0
  4  5  1  0
  5  6  2  0
  6  7  1  0
  7  8  1  0
  8  9  1  0
  9 10  2  0
  9 11  1  0
 11 12  1  0
 12 13  1  0
 13 14  2  0
 14 15  1  0
 15 16  2  0
 16 17  1  0
 17 18  1  0
 18 19  1  6
 18 20  1  0
 20 21  1  0
 21 22  1  0
 21 23  2  0
 23 24  1  0
 24 25  2  0
 17 26  2  0
 11 27  1  0
 27 28  2  0
 28 29  1  0
 29 30  2  0
 30 31  1  0
 31 32  2  0
  7 33  2  0
 33 34  1  0
 34 35  1  0
 35 36  2  0
 36  3  1  0
 35  6  1  0
 32  8  1  0
 26 13  1  0
 32 27  1  0
 24 18  1  0
  1 37  1  0
  1 38  1  0
  1 39  1  0
  4 40  1  0
  5 41  1  0
 12 42  1  0
 12 43  1  0
 14 44  1  0
 15 45  1  0
 16 46  1  0
 19 47  1  0
 19 48  1  0
 19 49  1  0
 22 50  1  0
 26 51  1  0
 28 52  1  0
 29 53  1  0
 30 54  1  0
 31 55  1  0
 36 56  1  0
M  END
$$$$
