@<TRIPOS>MOLECULE
*****
 56 61 0 0 0
SMALL
GASTEIGER

@<TRIPOS>ATOM
      1 C           9.1036   -0.4917    0.2166 C.3     1  UNL1        0.0788
      2 O           8.0707   -1.2105    0.8563 O.3     1  UNL1       -0.4950
      3 C           6.7602   -0.8379    0.6448 C.ar    1  UNL1        0.1237
      4 C           5.7078   -1.5075    1.2466 C.ar    1  UNL1       -0.0190
      5 C           4.3994   -1.1574    1.0529 C.ar    1  UNL1       -0.0439
      6 C           4.1143   -0.0876    0.2194 C.ar    1  UNL1        0.0662
      7 C           2.9102    0.4813   -0.1554 C.ar    1  UNL1        0.1922
      8 N           1.6135    0.0617    0.2632 N.ar    1  UNL1       -0.2413
      9 C           0.8193    0.6509    1.1971 C.ar    1  UNL1        0.3362
     10 O           1.1304    1.6906    1.8488 O.2     1  UNL1       -0.2459
     11 N          -0.3273   -0.0523    1.3012 N.ar    1  UNL1       -0.2874
     12 C          -1.4340    0.2486    2.1872 C.3     1  UNL1        0.0532
     13 C          -2.3690    1.1468    1.4811 C.ar    1  UNL1       -0.0272
     14 C          -2.1482    2.5135    1.6169 C.ar    1  UNL1       -0.0568
     15 C          -3.0099    3.3707    0.9658 C.ar    1  UNL1       -0.0611
     16 C          -4.0663    2.9328    0.1966 C.ar    1  UNL1       -0.0543
     17 C          -4.2914    1.5880    0.0572 C.ar    1  UNL1        0.0049
     18 C          -5.3834    1.0060   -0.7352 C.3     1  UNL1        0.2142
     19 C          -6.4522    2.0071   -1.0942 C.3     1  UNL1       -0.0116
     20 O          -4.9513    0.3418   -1.8972 O.2     1  UNL1       -0.4308
     21 C          -5.4045   -0.9674   -1.8934 C.2     1  UNL1        0.3808
     22 O          -5.2568   -1.9287   -2.8985 O.2     1  UNL1       -0.4673
     23 N          -6.0271   -1.2245   -0.7733 N.am    1  UNL1       -0.1074
     24 C          -6.0186   -0.0734    0.0413 C.2     1  UNL1        0.2899
     25 O          -6.4632    0.0151    1.1974 O.2     1  UNL1       -0.2687
     26 C          -3.4275    0.7175    0.7102 C.ar    1  UNL1       -0.0494
     27 C          -0.2938   -1.0816    0.4577 C.ar    1  UNL1        0.0706
     28 C          -1.1152   -2.1315    0.0958 C.ar    1  UNL1       -0.0360
     29 C          -0.7395   -3.0455   -0.8540 C.ar    1  UNL1       -0.0597
     30 C           0.4791   -2.9499   -1.4867 C.ar    1  UNL1       -0.0597
     31 C           1.3112   -1.9264   -1.1522 C.ar    1  UNL1       -0.0356
     32 C           0.9239   -1.0034   -0.1883 C.ar    1  UNL1        0.0765
     33 N           3.2496    1.4912   -0.9818 N.ar    1  UNL1       -0.0587
     34 O           4.5495    1.5494   -1.1127 O.2     1  UNL1       -0.3525
     35 C           5.1297    0.6154   -0.4065 C.ar    1  UNL1        0.1728
     36 C           6.4379    0.2154   -0.1731 C.ar    1  UNL1        0.0257
     37 H          10.0979   -0.9123    0.4059 H       1  UNL1        0.0660
     38 H           8.8532   -0.4390   -0.8682 H       1  UNL1        0.0660
     39 H           9.0427    0.5653    0.5990 H       1  UNL1        0.0660
     40 H           5.9027   -2.3491    1.9042 H       1  UNL1        0.0654
     41 H           3.5608   -1.6635    1.5105 H       1  UNL1        0.0627
     42 H          -1.9635   -0.7073    2.4543 H       1  UNL1        0.0543
     43 H          -1.0729    0.7510    3.1143 H       1  UNL1        0.0543
     44 H          -1.3231    2.8687    2.2180 H       1  UNL1        0.0621
     45 H          -2.8245    4.4358    1.0815 H       1  UNL1        0.0618
     46 H          -4.7393    3.6112   -0.3121 H       1  UNL1        0.0622
     47 H          -6.2533    2.5243   -2.0468 H       1  UNL1        0.0276
     48 H          -6.6186    2.7143   -0.2499 H       1  UNL1        0.0276
     49 H          -7.3992    1.4429   -1.2241 H       1  UNL1        0.0276
     50 H          -6.0054   -2.6264   -2.9721 H       1  UNL1        0.2967
     51 H          -3.5900   -0.3563    0.6122 H       1  UNL1        0.0625
     52 H          -2.0777   -2.2122    0.5927 H       1  UNL1        0.0639
     53 H          -1.4011   -3.8698   -1.1283 H       1  UNL1        0.0618
     54 H           0.7700   -3.6839   -2.2432 H       1  UNL1        0.0618
     55 H           2.2823   -1.8424   -1.6500 H       1  UNL1        0.0639
     56 H           7.2279    0.7824   -0.6761 H       1  UNL1        0.0692
@<TRIPOS>BOND
     1     1     2    1
     2     2     3    1
     3     3     4   ar
     4     4     5   ar
     5     5     6   ar
     6     6     7   ar
     7     7     8    1
     8     8     9   ar
     9     9    10    2
    10     9    11   ar
    11    11    12    1
    12    12    13    1
    13    13    14   ar
    14    14    15   ar
    15    15    16   ar
    16    16    17   ar
    17    17    18    1
    18    18    19    1
    19    18    20    1
    20    20    21    1
    21    21    22    1
    22    21    23    2
    23    23    24    1
    24    24    25    2
    25    17    26   ar
    26    11    27   ar
    27    27    28   ar
    28    28    29   ar
    29    29    30   ar
    30    30    31   ar
    31    31    32   ar
    32     7    33   ar
    33    33    34   ar
    34    34    35   ar
    35    35    36   ar
    36    36     3   ar
    37    35     6   ar
    38    32     8   ar
    39    26    13   ar
    40    32    27   ar
    41    24    18    1
    42     1    37    1
    43     1    38    1
    44     1    39    1
    45     4    40    1
    46     5    41    1
    47    12    42    1
    48    12    43    1
    49    14    44    1
    50    15    45    1
    51    16    46    1
    52    19    47    1
    53    19    48    1
    54    19    49    1
    55    22    50    1
    56    26    51    1
    57    28    52    1
    58    29    53    1
    59    30    54    1
    60    31    55    1
    61    36    56    1
