@<TRIPOS>MOLECULE
*****
 69 72 0 0 0
SMALL
GASTEIGER

@<TRIPOS>ATOM
      1 C           7.3202    1.2277   -3.1272 C.3     1  UNL1       -0.0241
      2 C           6.8520    0.2793   -2.0650 C.ar    1  UNL1        0.0192
      3 C           5.6565    0.5117   -1.3810 C.ar    1  UNL1       -0.0346
      4 C           5.2351   -0.3503   -0.4172 C.ar    1  UNL1       -0.0111
      5 C           3.9734   -0.0811    0.2857 C.ar    1  UNL1       -0.0176
      6 C           3.7849   -0.4634    1.5972 C.ar    1  UNL1       -0.0537
      7 C           2.5941   -0.2086    2.2578 C.ar    1  UNL1       -0.0562
      8 C           1.5432    0.4382    1.6364 C.ar    1  UNL1       -0.0271
      9 C           0.2524    0.7294    2.3131 C.3     1  UNL1        0.0515
     10 C           0.1611   -0.1301    3.5821 C.3     1  UNL1       -0.0421
     11 N          -0.8884    0.4217    1.5258 N.am    1  UNL1       -0.2605
     12 C          -1.9070    1.4535    1.3187 C.3     1  UNL1        0.0224
     13 C          -3.2370    0.7438    1.4446 C.3     1  UNL1        0.0076
     14 C          -3.4687   -0.1872    0.3167 C.3     1  UNL1        0.1440
     15 C          -3.4810    0.4509   -1.0337 C.3     1  UNL1        0.0199
     16 C          -4.4650    1.4836   -1.3138 C.3     1  UNL1        0.0645
     17 C          -5.9000    1.1735   -1.2233 C.3     1  UNL1       -0.0362
     18 C          -4.1956    2.0056   -2.7380 C.3     1  UNL1       -0.0362
     19 O          -4.2241    2.6111   -0.4956 O.3     1  UNL1       -0.3890
     20 C          -4.6126   -1.1041    0.5430 C.ar    1  UNL1       -0.0040
     21 C          -5.3332   -0.9670    1.7072 C.ar    1  UNL1       -0.0548
     22 C          -6.4195   -1.7681    2.0334 C.ar    1  UNL1       -0.0614
     23 C          -6.7878   -2.7434    1.1456 C.ar    1  UNL1       -0.0617
     24 C          -6.0670   -2.8902   -0.0333 C.ar    1  UNL1       -0.0614
     25 C          -5.0028   -2.0842   -0.3223 C.ar    1  UNL1       -0.0548
     26 O          -2.3291   -1.0740    0.2877 O.3     1  UNL1       -0.4387
     27 C          -1.1462   -0.8201    0.9046 C.2     1  UNL1        0.4042
     28 O          -0.2542   -1.7036    0.9288 O.2     1  UNL1       -0.2262
     29 C           1.7318    0.8205    0.3248 C.ar    1  UNL1       -0.0562
     30 C           2.9288    0.5652   -0.3417 C.ar    1  UNL1       -0.0537
     31 C           6.0209   -1.4553   -0.1375 C.ar    1  UNL1        0.0107
     32 C           7.2028   -1.6671   -0.8275 C.ar    1  UNL1        0.2518
     33 O           7.9253   -2.6797   -0.5730 O.2     1  UNL1       -0.2677
     34 N           7.6181   -0.7967   -1.7934 N.ar    1  UNL1       -0.3157
     35 C           8.8643   -1.0553   -2.4941 C.3     1  UNL1        0.0149
     36 H           6.8682    2.2268   -2.8856 H       1  UNL1        0.0292
     37 H           8.4233    1.2797   -3.1489 H       1  UNL1        0.0292
     38 H           6.9367    0.8630   -4.0888 H       1  UNL1        0.0292
     39 H           5.1064    1.3999   -1.6644 H       1  UNL1        0.0641
     40 H           4.5891   -0.9682    2.1003 H       1  UNL1        0.0624
     41 H           2.4611   -0.5204    3.3039 H       1  UNL1        0.0621
     42 H           0.1924    1.7704    2.6699 H       1  UNL1        0.0549
     43 H          -0.8422   -0.0376    4.0337 H       1  UNL1        0.0251
     44 H           0.4659   -1.1658    3.3995 H       1  UNL1        0.0251
     45 H           0.8847    0.3237    4.2903 H       1  UNL1        0.0251
     46 H          -1.8769    2.1910    2.1735 H       1  UNL1        0.0467
     47 H          -1.7137    1.9083    0.3516 H       1  UNL1        0.0467
     48 H          -4.0022    1.4754    1.6567 H       1  UNL1        0.0322
     49 H          -3.1210    0.1059    2.3728 H       1  UNL1        0.0322
     50 H          -3.5649   -0.4005   -1.7765 H       1  UNL1        0.0335
     51 H          -2.4586    0.8492   -1.2103 H       1  UNL1        0.0335
     52 H          -6.5093    1.8977   -1.8453 H       1  UNL1        0.0257
     53 H          -6.3571    1.1667   -0.2420 H       1  UNL1        0.0257
     54 H          -6.1587    0.1800   -1.6966 H       1  UNL1        0.0257
     55 H          -4.6025    3.0311   -2.8401 H       1  UNL1        0.0257
     56 H          -4.7810    1.3519   -3.4200 H       1  UNL1        0.0257
     57 H          -3.1413    1.9099   -3.0164 H       1  UNL1        0.0257
     58 H          -3.4272    3.0659   -0.8694 H       1  UNL1        0.2101
     59 H          -5.1077   -0.2088    2.4724 H       1  UNL1        0.0622
     60 H          -6.9670   -1.6207    2.9799 H       1  UNL1        0.0618
     61 H          -7.6357   -3.3669    1.4037 H       1  UNL1        0.0618
     62 H          -6.4168   -3.6899   -0.6974 H       1  UNL1        0.0618
     63 H          -4.4697   -2.2207   -1.2340 H       1  UNL1        0.0622
     64 H           0.9116    1.3303   -0.1743 H       1  UNL1        0.0621
     65 H           3.0331    0.8828   -1.3701 H       1  UNL1        0.0624
     66 H           5.7155   -2.1529    0.6169 H       1  UNL1        0.0678
     67 H           8.7794   -0.9069   -3.5821 H       1  UNL1        0.0457
     68 H           9.1253   -2.1411   -2.3507 H       1  UNL1        0.0457
     69 H           9.7148   -0.4953   -2.0506 H       1  UNL1        0.0457
@<TRIPOS>BOND
     1     1     2    1
     2     2     3   ar
     3     3     4   ar
     4     4     5    1
     5     5     6   ar
     6     6     7   ar
     7     7     8   ar
     8     8     9    1
     9     9    10    1
    10     9    11    1
    11    11    12    1
    12    12    13    1
    13    13    14    1
    14    14    15    1
    15    15    16    1
    16    16    17    1
    17    16    18    1
    18    16    19    1
    19    14    20    1
    20    20    21   ar
    21    21    22   ar
    22    22    23   ar
    23    23    24   ar
    24    24    25   ar
    25    14    26    1
    26    26    27    1
    27    27    28    2
    28     8    29   ar
    29    29    30   ar
    30     4    31   ar
    31    31    32   ar
    32    32    33    2
    33    32    34   ar
    34    34    35    1
    35    34     2   ar
    36    30     5   ar
    37    27    11   am
    38    25    20   ar
    39     1    36    1
    40     1    37    1
    41     1    38    1
    42     3    39    1
    43     6    40    1
    44     7    41    1
    45     9    42    1
    46    10    43    1
    47    10    44    1
    48    10    45    1
    49    12    46    1
    50    12    47    1
    51    13    48    1
    52    13    49    1
    53    15    50    1
    54    15    51    1
    55    17    52    1
    56    17    53    1
    57    17    54    1
    58    18    55    1
    59    18    56    1
    60    18    57    1
    61    19    58    1
    62    21    59    1
    63    22    60    1
    64    23    61    1
    65    24    62    1
    66    25    63    1
    67    29    64    1
    68    30    65    1
    69    31    66    1
    70    35    67    1
    71    35    68    1
    72    35    69    1
