
     RDKit          3D

 69 72  0  0  0  0  0  0  0  0999 V2000
    7.3202    1.2277   -3.1272 C   0  0  0  0  0  0  0  0  0  0  0  0
    6.8520    0.2793   -2.0650 C   0  0  0  0  0  0  0  0  0  0  0  0
    5.6565    0.5117   -1.3810 C   0  0  0  0  0  0  0  0  0  0  0  0
    5.2351   -0.3503   -0.4172 C   0  0  0  0  0  0  0  0  0  0  0  0
    3.9734   -0.0811    0.2857 C   0  0  0  0  0  0  0  0  0  0  0  0
    3.7849   -0.4634    1.5972 C   0  0  0  0  0  0  0  0  0  0  0  0
    2.5941   -0.2086    2.2578 C   0  0  0  0  0  0  0  0  0  0  0  0
    1.5432    0.4382    1.6364 C   0  0  0  0  0  0  0  0  0  0  0  0
    0.2524    0.7294    2.3131 C   0  0  2  0  0  0  0  0  0  0  0  0
    0.1611   -0.1301    3.5821 C   0  0  0  0  0  0  0  0  0  0  0  0
   -0.8884    0.4217    1.5258 N   0  0  0  0  0  0  0  0  0  0  0  0
   -1.9070    1.4535    1.3187 C   0  0  0  0  0  0  0  0  0  0  0  0
   -3.2370    0.7438    1.4446 C   0  0  0  0  0  0  0  0  0  0  0  0
   -3.4687   -0.1872    0.3167 C   0  0  2  0  0  0  0  0  0  0  0  0
   -3.4810    0.4509   -1.0337 C   0  0  0  0  0  0  0  0  0  0  0  0
   -4.4650    1.4836   -1.3138 C   0  0  0  0  0  0  0  0  0  0  0  0
   -5.9000    1.1735   -1.2233 C   0  0  0  0  0  0  0  0  0  0  0  0
   -4.1956    2.0056   -2.7380 C   0  0  0  0  0  0  0  0  0  0  0  0
   -4.2241    2.6111   -0.4956 O   0  0  0  0  0  0  0  0  0  0  0  0
   -4.6126   -1.1041    0.5430 C   0  0  0  0  0  0  0  0  0  0  0  0
   -5.3332   -0.9670    1.7072 C   0  0  0  0  0  0  0  0  0  0  0  0
   -6.4195   -1.7681    2.0334 C   0  0  0  0  0  0  0  0  0  0  0  0
   -6.7878   -2.7434    1.1456 C   0  0  0  0  0  0  0  0  0  0  0  0
   -6.0670   -2.8902   -0.0333 C   0  0  0  0  0  0  0  0  0  0  0  0
   -5.0028   -2.0842   -0.3223 C   0  0  0  0  0  0  0  0  0  0  0  0
   -2.3291   -1.0740    0.2877 O   0  0  0  0  0  0  0  0  0  0  0  0
   -1.1462   -0.8201    0.9046 C   0  0  0  0  0  0  0  0  0  0  0  0
   -0.2542   -1.7036    0.9288 O   0  0  0  0  0  0  0  0  0  0  0  0
    1.7318    0.8205    0.3248 C   0  0  0  0  0  0  0  0  0  0  0  0
    2.9288    0.5652   -0.3417 C   0  0  0  0  0  0  0  0  0  0  0  0
    6.0209   -1.4553   -0.1375 C   0  0  0  0  0  0  0  0  0  0  0  0
    7.2028   -1.6671   -0.8275 C   0  0  0  0  0  0  0  0  0  0  0  0
    7.9253   -2.6797   -0.5730 O   0  0  0  0  0  0  0  0  0  0  0  0
    7.6181   -0.7967   -1.7934 N   0  0  0  0  0  0  0  0  0  0  0  0
    8.8643   -1.0553   -2.4941 C   0  0  0  0  0  0  0  0  0  0  0  0
    6.8682    2.2268   -2.8856 H   0  0  0  0  0  0  0  0  0  0  0  0
    8.4233    1.2797   -3.1489 H   0  0  0  0  0  0  0  0  0  0  0  0
    6.9367    0.8630   -4.0888 H   0  0  0  0  0  0  0  0  0  0  0  0
    5.1064    1.3999   -1.6644 H   0  0  0  0  0  0  0  0  0  0  0  0
    4.5891   -0.9682    2.1003 H   0  0  0  0  0  0  0  0  0  0  0  0
    2.4611   -0.5204    3.3039 H   0  0  0  0  0  0  0  0  0  0  0  0
    0.1924    1.7704    2.6699 H   0  0  0  0  0  0  0  0  0  0  0  0
   -0.8422   -0.0376    4.0337 H   0  0  0  0  0  0  0  0  0  0  0  0
    0.4659   -1.1658    3.3995 H   0  0  0  0  0  0  0  0  0  0  0  0
    0.8847    0.3237    4.2903 H   0  0  0  0  0  0  0  0  0  0  0  0
   -1.8769    2.1910    2.1735 H   0  0  0  0  0  0  0  0  0  0  0  0
   -1.7137    1.9083    0.3516 H   0  0  0  0  0  0  0  0  0  0  0  0
   -4.0022    1.4754    1.6567 H   0  0  0  0  0  0  0  0  0  0  0  0
   -3.1210    0.1059    2.3728 H   0  0  0  0  0  0  0  0  0  0  0  0
   -3.5649   -0.4005   -1.7765 H   0  0  0  0  0  0  0  0  0  0  0  0
   -2.4586    0.8492   -1.2103 H   0  0  0  0  0  0  0  0  0  0  0  0
   -6.5093    1.8977   -1.8453 H   0  0  0  0  0  0  0  0  0  0  0  0
   -6.3571    1.1667   -0.2420 H   0  0  0  0  0  0  0  0  0  0  0  0
   -6.1587    0.1800   -1.6966 H   0  0  0  0  0  0  0  0  0  0  0  0
   -4.6025    3.0311   -2.8401 H   0  0  0  0  0  0  0  0  0  0  0  0
   -4.7810    1.3519   -3.4200 H   0  0  0  0  0  0  0  0  0  0  0  0
   -3.1413    1.9099   -3.0164 H   0  0  0  0  0  0  0  0  0  0  0  0
   -3.4272    3.0659   -0.8694 H   0  0  0  0  0  0  0  0  0  0  0  0
   -5.1077   -0.2088    2.4724 H   0  0  0  0  0  0  0  0  0  0  0  0
   -6.9670   -1.6207    2.9799 H   0  0  0  0  0  0  0  0  0  0  0  0
   -7.6357   -3.3669    1.4037 H   0  0  0  0  0  0  0  0  0  0  0  0
   -6.4168   -3.6899   -0.6974 H   0  0  0  0  0  0  0  0  0  0  0  0
   -4.4697   -2.2207   -1.2340 H   0  0  0  0  0  0  0  0  0  0  0  0
    0.9116    1.3303   -0.1743 H   0  0  0  0  0  0  0  0  0  0  0  0
    3.0331    0.8828   -1.3701 H   0  0  0  0  0  0  0  0  0  0  0  0
    5.7155   -2.1529    0.6169 H   0  0  0  0  0  0  0  0  0  0  0  0
    8.7794   -0.9069   -3.5821 H   0  0  0  0  0  0  0  0  0  0  0  0
    9.1253   -2.1411   -2.3507 H   0  0  0  0  0  0  0  0  0  0  0  0
    9.7148   -0.4953   -2.0506 H   0  0  0  0  0  0  0  0  0  0  0  0
  1  2  1  0
  2  3  2  0
  3  4  1  0
  4  5  1  0
  5  6  2  0
  6  7  1  0
  7  8  2  0
  8  9  1  0
  9 10  1  0
  9 11  1  0
 11 12  1  0
 12 13  1  0
 13 14  1  0
 14 15  1  6
 15 16  1  0
 16 17  1  0
 16 18  1  0
 16 19  1  0
 14 20  1  0
 20 21  2  0
 21 22  1  0
 22 23  2  0
 23 24  1  0
 24 25  2  0
 14 26  1  0
 26 27  1  0
 27 28  2  0
  8 29  1  0
 29 30  2  0
  4 31  2  0
 31 32  1  0
 32 33  2  0
 32 34  1  0
 34 35  1  0
 34  2  1  0
 30  5  1  0
 27 11  1  0
 25 20  1  0
  1 36  1  0
  1 37  1  0
  1 38  1  0
  3 39  1  0
  6 40  1  0
  7 41  1  0
  9 42  1  1
 10 43  1  0
 10 44  1  0
 10 45  1  0
 12 46  1  0
 12 47  1  0
 13 48  1  0
 13 49  1  0
 15 50  1  0
 15 51  1  0
 17 52  1  0
 17 53  1  0
 17 54  1  0
 18 55  1  0
 18 56  1  0
 18 57  1  0
 19 58  1  0
 21 59  1  0
 22 60  1  0
 23 61  1  0
 24 62  1  0
 25 63  1  0
 29 64  1  0
 30 65  1  0
 31 66  1  0
 35 67  1  0
 35 68  1  0
 35 69  1  0
M  END
$$$$
