@<TRIPOS>MOLECULE
*****
 84 89 0 0 0
SMALL
GASTEIGER

@<TRIPOS>ATOM
      1 C           0.4605    1.2560   -1.2973 C.3     1  UNL1       -0.0211
      2 C          -0.9347    0.7989   -1.6163 C.3     1  UNL1       -0.0089
      3 C          -1.6259    0.3761   -0.3480 C.3     1  UNL1        0.1304
      4 O          -2.9901    0.1514   -0.4580 O.3     1  UNL1       -0.4552
      5 C          -3.9470    0.8591    0.2364 C.2     1  UNL1        0.3398
      6 O          -3.4869    1.7536    1.0032 O.2     1  UNL1       -0.2449
      7 C          -5.3613    0.6228    0.1196 C.ar    1  UNL1        0.0661
      8 C          -5.9346   -0.3330   -0.6941 C.ar    1  UNL1       -0.0021
      9 C          -7.3004   -0.5128   -0.7637 C.ar    1  UNL1        0.1660
     10 O          -7.9111   -1.4485   -1.5570 O.3     1  UNL1       -0.4913
     11 C          -7.1343   -2.3045   -2.3716 C.3     1  UNL1        0.0790
     12 C          -8.1541    0.2684   -0.0107 C.ar    1  UNL1        0.2035
     13 O          -9.5430    0.1682   -0.0077 O.3     1  UNL1       -0.4885
     14 C         -10.2979   -0.6437    0.8392 C.3     1  UNL1        0.0791
     15 C          -7.6284    1.2390    0.8194 C.ar    1  UNL1        0.1660
     16 O          -8.4419    2.0508    1.5970 O.3     1  UNL1       -0.4913
     17 C          -7.8350    3.0239    2.4239 C.3     1  UNL1        0.0790
     18 C          -6.2376    1.3893    0.8609 C.ar    1  UNL1       -0.0021
     19 C          -0.8361   -0.8057    0.1792 C.3     1  UNL1        0.1083
     20 O          -1.5604   -1.5801    1.0593 O.3     1  UNL1       -0.3753
     21 C          -1.6936   -2.8490    0.4812 C.3     1  UNL1        0.0370
     22 C           0.4299   -0.2315    0.7229 C.3     1  UNL1        0.0891
     23 C           1.2604   -1.1854    1.4840 C.2     1  UNL1        0.3128
     24 O           1.3915   -2.3564    1.9142 O.2     1  UNL1       -0.2504
     25 O           2.4381   -0.6175    1.9796 O.3     1  UNL1       -0.4677
     26 C           3.3773   -1.3282    2.7286 C.3     1  UNL1        0.0817
     27 C           1.2369    0.3441   -0.4066 C.3     1  UNL1       -0.0197
     28 C           1.8968   -0.7226   -1.2322 C.3     1  UNL1       -0.0278
     29 C           2.9592   -0.1009   -2.1144 C.3     1  UNL1        0.0512
     30 N           2.5739    1.1790   -2.5508 N.3     1  UNL1       -0.2934
     31 C           3.4308    2.2735   -2.3734 C.3     1  UNL1        0.0036
     32 C           4.3969    2.2272   -1.2426 C.3     1  UNL1       -0.0125
     33 C           5.0153    0.9028   -1.1120 C.ar    1  UNL1       -0.0164
     34 C           4.3060   -0.1880   -1.5360 C.ar    1  UNL1        0.0376
     35 N           5.0768   -1.2667   -1.3131 N.ar    1  UNL1       -0.3564
     36 C           6.2404   -0.8729   -0.7641 C.ar    1  UNL1        0.0505
     37 C           6.2474    0.4828   -0.6185 C.ar    1  UNL1        0.0034
     38 C           7.2776    1.2417   -0.0895 C.ar    1  UNL1       -0.0489
     39 C           8.4033    0.5417    0.3279 C.ar    1  UNL1       -0.0193
     40 C           8.4338   -0.8331    0.1967 C.ar    1  UNL1        0.1221
     41 O           9.5413   -1.5857    0.6006 O.3     1  UNL1       -0.4950
     42 C          10.6712   -0.9117    1.1641 C.3     1  UNL1        0.0788
     43 C           7.3738   -1.5363   -0.3395 C.ar    1  UNL1        0.0040
     44 C           1.1803    1.4485   -2.6045 C.3     1  UNL1        0.0028
     45 H           0.3727    2.2734   -0.8307 H       1  UNL1        0.0317
     46 H          -1.4281    1.6598   -2.1225 H       1  UNL1        0.0305
     47 H          -0.8217   -0.0676   -2.3030 H       1  UNL1        0.0305
     48 H          -1.4887    1.2023    0.3800 H       1  UNL1        0.0760
     49 H          -5.2843   -0.9600   -1.2962 H       1  UNL1        0.0663
     50 H          -7.7711   -2.7799   -3.1645 H       1  UNL1        0.0660
     51 H          -6.3905   -1.6551   -2.9153 H       1  UNL1        0.0660
     52 H          -6.5403   -3.0403   -1.8221 H       1  UNL1        0.0660
     53 H         -11.1138    0.0179    1.2518 H       1  UNL1        0.0660
     54 H          -9.6793   -1.0849    1.6250 H       1  UNL1        0.0660
     55 H         -10.7580   -1.4332    0.1994 H       1  UNL1        0.0660
     56 H          -7.2835    2.5541    3.2687 H       1  UNL1        0.0660
     57 H          -8.6402    3.6999    2.8251 H       1  UNL1        0.0660
     58 H          -7.1599    3.6825    1.8615 H       1  UNL1        0.0660
     59 H          -5.8225    2.1589    1.5193 H       1  UNL1        0.0663
     60 H          -0.5778   -1.4205   -0.7195 H       1  UNL1        0.0641
     61 H          -2.2657   -3.5492    1.1186 H       1  UNL1        0.0524
     62 H          -0.6912   -3.3436    0.3358 H       1  UNL1        0.0524
     63 H          -2.1268   -2.7621   -0.5368 H       1  UNL1        0.0524
     64 H           0.1302    0.6239    1.3912 H       1  UNL1        0.0443
     65 H           4.2445   -0.6210    2.8813 H       1  UNL1        0.0661
     66 H           3.7392   -2.2257    2.2150 H       1  UNL1        0.0661
     67 H           2.9614   -1.4821    3.7348 H       1  UNL1        0.0661
     68 H           2.0438    0.9393    0.0770 H       1  UNL1        0.0313
     69 H           2.3163   -1.5449   -0.6153 H       1  UNL1        0.0287
     70 H           1.0987   -1.1764   -1.8563 H       1  UNL1        0.0287
     71 H           2.9792   -0.7634   -3.0301 H       1  UNL1        0.0527
     72 H           2.7900    3.1903   -2.2156 H       1  UNL1        0.0430
     73 H           4.0044    2.5078   -3.3158 H       1  UNL1        0.0430
     74 H           3.8621    2.4613   -0.2954 H       1  UNL1        0.0326
     75 H           5.1567    3.0305   -1.4373 H       1  UNL1        0.0326
     76 H           4.8532   -2.2853   -1.5177 H       1  UNL1        0.1656
     77 H           7.2365    2.3172    0.0056 H       1  UNL1        0.0625
     78 H           9.2764    1.0440    0.7616 H       1  UNL1        0.0654
     79 H          10.3765   -0.4242    2.1206 H       1  UNL1        0.0660
     80 H          10.9694   -0.1058    0.4740 H       1  UNL1        0.0660
     81 H          11.4497   -1.6349    1.4086 H       1  UNL1        0.0660
     82 H           7.4261   -2.6221   -0.4310 H       1  UNL1        0.0675
     83 H           0.7483    0.7618   -3.3807 H       1  UNL1        0.0429
     84 H           1.0430    2.4727   -3.0142 H       1  UNL1        0.0429
@<TRIPOS>BOND
     1     1     2    1
     2     2     3    1
     3     3     4    1
     4     4     5    1
     5     5     6    2
     6     5     7    1
     7     7     8   ar
     8     8     9   ar
     9     9    10    1
    10    10    11    1
    11     9    12   ar
    12    12    13    1
    13    13    14    1
    14    12    15   ar
    15    15    16    1
    16    16    17    1
    17    15    18   ar
    18     3    19    1
    19    19    20    1
    20    20    21    1
    21    19    22    1
    22    22    23    1
    23    23    24    2
    24    23    25    1
    25    25    26    1
    26    22    27    1
    27    27    28    1
    28    28    29    1
    29    29    30    1
    30    30    31    1
    31    31    32    1
    32    32    33    1
    33    33    34   ar
    34    34    35   ar
    35    35    36   ar
    36    36    37   ar
    37    37    38   ar
    38    38    39   ar
    39    39    40   ar
    40    40    41    1
    41    41    42    1
    42    40    43   ar
    43    30    44    1
    44    27     1    1
    45    34    29    1
    46    43    36   ar
    47    44     1    1
    48    18     7   ar
    49    37    33   ar
    50     1    45    1
    51     2    46    1
    52     2    47    1
    53     3    48    1
    54     8    49    1
    55    11    50    1
    56    11    51    1
    57    11    52    1
    58    14    53    1
    59    14    54    1
    60    14    55    1
    61    17    56    1
    62    17    57    1
    63    17    58    1
    64    18    59    1
    65    19    60    1
    66    21    61    1
    67    21    62    1
    68    21    63    1
    69    22    64    1
    70    26    65    1
    71    26    66    1
    72    26    67    1
    73    27    68    1
    74    28    69    1
    75    28    70    1
    76    29    71    1
    77    31    72    1
    78    31    73    1
    79    32    74    1
    80    32    75    1
    81    35    76    1
    82    38    77    1
    83    39    78    1
    84    42    79    1
    85    42    80    1
    86    42    81    1
    87    43    82    1
    88    44    83    1
    89    44    84    1
