@<TRIPOS>MOLECULE
*****
 11 10 0 0 0
SMALL
GASTEIGER

@<TRIPOS>ATOM
      1 N           1.9486    0.0949   -0.0180 N.3     1  UNL1       -0.1978
      2 N           0.7374   -0.5055   -0.3401 N.pl3   1  UNL1       -0.2046
      3 C          -0.5008    0.2008   -0.1782 C.cat   1  UNL1        0.3930
      4 N          -1.6870   -0.5538    0.0409 N.pl3   1  UNL1       -0.2880
      5 N          -0.3686    1.4827   -0.2562 N.pl3   1  UNL1       -0.1284
      6 H           1.8588    0.8441    0.7125 H       1  UNL1        0.1588
      7 H           2.6428   -0.5895    0.3252 H       1  UNL1        0.1588
      8 H           0.7672   -1.5011   -0.7080 H       1  UNL1        0.2826
      9 H          -2.3566   -1.1208   -0.4979 H       1  UNL1        0.2547
     10 H          -1.8641   -0.4526    1.0773 H       1  UNL1        0.2547
     11 H          -1.1775    2.1008   -0.1575 H       1  UNL1        0.3062
@<TRIPOS>BOND
     1     1     2    1
     2     2     3    1
     3     3     4    1
     4     3     5    2
     5     1     6    1
     6     1     7    1
     7     2     8    1
     8     4     9    1
     9     4    10    1
    10     5    11    1
