@<TRIPOS>MOLECULE
*****
 65 70 0 0 0
SMALL
GASTEIGER

@<TRIPOS>ATOM
      1 O          -4.8129    4.9624   -1.2991 O.3     1  UNL1       -0.3946
      2 C          -4.7929    3.7646   -0.6106 C.3     1  UNL1        0.0495
      3 C          -3.4057    3.3126   -0.2581 C.3     1  UNL1        0.0124
      4 C          -3.5464    1.9854    0.4941 C.3     1  UNL1       -0.0247
      5 C          -2.1665    1.4305    0.3695 C.3     1  UNL1        0.0507
      6 N          -2.1753   -0.0673    0.3519 N.pl3   1  UNL1       -0.3230
      7 C          -0.8911   -0.6639    0.2335 C.ar    1  UNL1        0.1334
      8 N           0.2015    0.1628    0.1513 N.ar    1  UNL1       -0.1988
      9 C           1.4616   -0.2778    0.0343 C.ar    1  UNL1        0.2212
     10 N           2.5406    0.6355   -0.0241 N.pl3   1  UNL1       -0.2834
     11 C           3.9032    0.3589   -0.2030 C.ar    1  UNL1        0.0400
     12 C           4.3319   -0.8657   -0.6409 C.ar    1  UNL1       -0.0221
     13 C           5.6861   -1.1810   -0.8100 C.ar    1  UNL1        0.0331
     14 N           6.5864   -0.2348   -0.5276 N.ar    1  UNL1       -0.2212
     15 C           6.1892    0.9741   -0.0969 C.ar    1  UNL1        0.2167
     16 O           7.1506    1.9123    0.1809 O.3     1  UNL1       -0.4730
     17 C           8.5239    1.6549    0.0281 C.3     1  UNL1        0.1021
     18 C           9.5122    2.2166    0.9836 C.3     1  UNL1       -0.0124
     19 C           9.3559    2.8524   -0.3393 C.3     1  UNL1       -0.0124
     20 C           4.8728    1.3127    0.0783 C.ar    1  UNL1        0.0212
     21 N           1.6090   -1.6052   -0.0002 N.ar    1  UNL1       -0.2219
     22 C           0.5773   -2.4840    0.0760 C.ar    1  UNL1        0.0437
     23 C          -0.7337   -2.0196    0.1983 C.ar    1  UNL1        0.0583
     24 C          -1.8625   -2.9188    0.2888 C.ar    1  UNL1        0.0764
     25 C          -1.6399   -4.3016    0.2490 C.ar    1  UNL1       -0.0349
     26 C          -2.6694   -5.2349    0.3324 C.ar    1  UNL1       -0.0505
     27 C          -3.9545   -4.7894    0.4584 C.ar    1  UNL1        0.0004
     28 C          -5.0158   -5.6799    0.5460 C.ar    1  UNL1       -0.0526
     29 C          -6.3074   -5.2144    0.6737 C.ar    1  UNL1       -0.0611
     30 C          -6.5125   -3.8707    0.7112 C.ar    1  UNL1       -0.0597
     31 C          -5.4623   -2.9919    0.6245 C.ar    1  UNL1       -0.0357
     32 C          -4.1490   -3.4092    0.4955 C.ar    1  UNL1        0.0717
     33 N          -3.1258   -2.5575    0.4116 N.ar    1  UNL1       -0.2465
     34 C          -1.6054    1.9474   -0.9214 C.3     1  UNL1        0.0996
     35 O          -0.4006    2.5931   -0.8027 O.3     1  UNL1       -0.3874
     36 C          -2.6698    2.8842   -1.4978 C.3     1  UNL1        0.0877
     37 O          -2.0943    3.9283   -2.1944 O.3     1  UNL1       -0.3888
     38 H          -4.8186    5.7083   -0.6518 H       1  UNL1        0.2094
     39 H          -5.3917    3.8978    0.3114 H       1  UNL1        0.0561
     40 H          -5.2516    2.9741   -1.2579 H       1  UNL1        0.0561
     41 H          -2.8386    4.0420    0.3269 H       1  UNL1        0.0349
     42 H          -3.8570    2.1927    1.5443 H       1  UNL1        0.0288
     43 H          -4.3057    1.4062   -0.0662 H       1  UNL1        0.0288
     44 H          -1.5746    1.7574    1.2478 H       1  UNL1        0.0524
     45 H          -3.0812   -0.5092    0.4246 H       1  UNL1        0.1479
     46 H           2.2910    1.6526    0.0782 H       1  UNL1        0.1550
     47 H           3.6628   -1.6708   -0.8960 H       1  UNL1        0.0651
     48 H           6.0053   -2.1480   -1.1551 H       1  UNL1        0.0831
     49 H           8.7806    0.6554   -0.3678 H       1  UNL1        0.0733
     50 H           9.0605    2.6692    1.8903 H       1  UNL1        0.0302
     51 H          10.4310    1.6598    1.1918 H       1  UNL1        0.0302
     52 H          10.1383    2.7067   -1.1090 H       1  UNL1        0.0302
     53 H           8.8875    3.8457   -0.3915 H       1  UNL1        0.0302
     54 H           4.5267    2.2729    0.4217 H       1  UNL1        0.0689
     55 H           0.7707   -3.5431    0.0416 H       1  UNL1        0.0838
     56 H          -0.6286   -4.6577    0.1492 H       1  UNL1        0.0639
     57 H          -2.4054   -6.2856    0.2933 H       1  UNL1        0.0625
     58 H          -4.8139   -6.7417    0.5129 H       1  UNL1        0.0624
     59 H          -7.1162   -5.9283    0.7403 H       1  UNL1        0.0618
     60 H          -7.5121   -3.4885    0.8109 H       1  UNL1        0.0618
     61 H          -5.6301   -1.9265    0.6552 H       1  UNL1        0.0639
     62 H          -1.4510    1.0845   -1.6151 H       1  UNL1        0.0638
     63 H          -0.1956    2.9672    0.0686 H       1  UNL1        0.2100
     64 H          -3.3897    2.3110   -2.1489 H       1  UNL1        0.0623
     65 H          -2.8014    4.5746   -2.4200 H       1  UNL1        0.2099
@<TRIPOS>BOND
     1     1     2    1
     2     2     3    1
     3     3     4    1
     4     4     5    1
     5     5     6    1
     6     6     7    1
     7     7     8   ar
     8     8     9   ar
     9     9    10    1
    10    10    11    1
    11    11    12   ar
    12    12    13   ar
    13    13    14   ar
    14    14    15   ar
    15    15    16    1
    16    16    17    1
    17    17    18    1
    18    18    19    1
    19    15    20   ar
    20     9    21   ar
    21    21    22   ar
    22    22    23   ar
    23    23    24    1
    24    24    25   ar
    25    25    26   ar
    26    26    27   ar
    27    27    28   ar
    28    28    29   ar
    29    29    30   ar
    30    30    31   ar
    31    31    32   ar
    32    32    33   ar
    33     5    34    1
    34    34    35    1
    35    34    36    1
    36    36    37    1
    37    36     3    1
    38    23     7   ar
    39    33    24   ar
    40    20    11   ar
    41    32    27   ar
    42    19    17    1
    43     1    38    1
    44     2    39    1
    45     2    40    1
    46     3    41    1
    47     4    42    1
    48     4    43    1
    49     5    44    1
    50     6    45    1
    51    10    46    1
    52    12    47    1
    53    13    48    1
    54    17    49    1
    55    18    50    1
    56    18    51    1
    57    19    52    1
    58    19    53    1
    59    20    54    1
    60    22    55    1
    61    25    56    1
    62    26    57    1
    63    28    58    1
    64    29    59    1
    65    30    60    1
    66    31    61    1
    67    34    62    1
    68    35    63    1
    69    36    64    1
    70    37    65    1
