@<TRIPOS>MOLECULE
*****
 37 36 0 0 0
SMALL
GASTEIGER

@<TRIPOS>ATOM
      1 N           3.2335    1.8820   -0.0297 N.3     1  UNK1       -0.3184
      2 C           3.8583    0.7894    0.6823 C.3     1  UNK1        0.1037
      3 C           2.9351    0.0053    1.5376 C.3     1  UNK1       -0.0191
      4 C           1.7919   -0.6652    0.8621 C.3     1  UNK1        0.0259
      5 C           0.8690    0.2707    0.1701 C.2     1  UNK1        0.2137
      6 O           0.6186    1.4671   -0.1147 O.2     1  UNK1       -0.2758
      7 N          -0.1776   -0.5005   -0.4257 N.am    1  UNK1       -0.3033
      8 C          -1.2844    0.0703   -1.1986 C.3     1  UNK1        0.1081
      9 C          -1.3321   -0.5395   -2.5820 C.3     1  UNK1        0.0177
     10 S          -2.7111    0.2034   -3.4907 S.3     1  UNK1       -0.1759
     11 C          -2.5057   -0.2413   -0.4022 C.2     1  UNK1        0.2346
     12 O          -1.8747   -0.8592    0.5212 O.2     1  UNK1       -0.2737
     13 N          -3.8991   -0.0233   -0.4763 N.am    2  GLY2       -0.3033
     14 CA         -4.4978   -0.6294    0.6888 C.3     2  GLY2        0.1089
     15 C          -3.9218    0.0153    1.8949 C.2     2  GLY2        0.3221
     16 O          -4.4491   -0.5144    3.0768 O.3     2  GLY2       -0.4795
     17 OXT        -3.0727    0.9232    2.0679 O.2     2  GLY2       -0.2492
     18 C           4.5055   -0.0516   -0.3867 C.2     1  UNK1        0.3217
     19 O           5.2299   -1.2222   -0.1570 O.3     1  UNK1       -0.4795
     20 O           4.4008    0.3076   -1.6018 O.2     1  UNK1       -0.2493
     21 H           3.4396    2.8115    0.3498 H       1  UNK1        0.1190
     22 H           3.2215    1.7783   -1.0524 H       1  UNK1        0.1190
     23 H           4.6342    1.2493    1.3326 H       1  UNK1        0.0574
     24 H           3.4945   -0.6890    2.2002 H       1  UNK1        0.0290
     25 H           2.4760    0.7456    2.2606 H       1  UNK1        0.0290
     26 H           2.1009   -1.4977    0.1918 H       1  UNK1        0.0359
     27 H           1.1860   -1.1541    1.6561 H       1  UNK1        0.0359
     28 H          -0.3525   -1.5390   -0.4329 H       1  UNK1        0.1495
     29 H          -1.2249    1.1680   -1.2864 H       1  UNK1        0.0603
     30 H          -0.3655   -0.2782   -3.0651 H       1  UNK1        0.0397
     31 H          -1.4912   -1.6185   -2.5697 H       1  UNK1        0.0397
     32 H          -2.6821    1.6050   -3.4215 H       1  UNK1        0.1017
     33 H          -4.0419    0.5113   -1.3588 H       2  GLY2        0.1493
     34 HA1        -5.5928   -0.4330    0.6251 H       2  GLY2        0.0577
     35 HA2        -4.2930   -1.7290    0.7040 H       2  GLY2        0.0577
     36 H          -4.2154   -0.1302    3.9902 H       2  GLY2        0.2951
     37 H           5.9902   -1.4881   -0.7599 H       1  UNK1        0.2951
@<TRIPOS>BOND
     1     1     2    1
     2     2     3    1
     3     3     4    1
     4     4     5    1
     5     5     6    2
     6     5     7   am
     7     7     8    1
     8     8     9    1
     9     9    10    1
    10     8    11    1
    11    11    12    2
    12    11    13   am
    13    13    14    1
    14    14    15    1
    15    15    16    1
    16    15    17    2
    17     2    18    1
    18    18    19    1
    19    18    20    2
    20     1    21    1
    21     1    22    1
    22     2    23    1
    23     3    24    1
    24     3    25    1
    25     4    26    1
    26     4    27    1
    27     7    28    1
    28     8    29    1
    29     9    30    1
    30     9    31    1
    31    10    32    1
    32    13    33    1
    33    14    34    1
    34    14    35    1
    35    16    36    1
    36    19    37    1
