
     RDKit          3D

 54 57  0  0  0  0  0  0  0  0999 V2000
   -0.7448   -0.9512    0.3495 C   0  0  2  0  0  0  0  0  0  0  0  0
   -1.6845   -2.0838    0.1155 C   0  0  0  0  0  0  0  0  0  0  0  0
   -2.9057   -1.5439    0.8781 C   0  0  0  0  0  0  0  0  0  0  0  0
   -2.8406   -0.0250    0.6569 C   0  0  2  0  0  0  0  0  0  0  0  0
   -2.8057    0.6474    1.8727 O   0  0  0  0  0  0  0  0  0  0  0  0
   -3.9992    0.4384   -0.1081 C   0  0  0  0  0  0  0  0  0  0  0  0
   -4.5193    1.2769    0.6424 O   0  0  0  0  0  0  0  0  0  0  0  0
   -5.1767    0.9221   -0.8635 C   0  0  0  0  0  0  0  0  0  0  0  0
   -5.8945    1.8827   -0.1757 O   0  0  0  0  0  0  0  0  0  0  0  0
   -1.5494    0.2391   -0.0624 C   0  0  2  0  0  0  0  0  0  0  0  0
   -1.8436    0.3587   -1.5138 C   0  0  0  0  0  0  0  0  0  0  0  0
   -0.8252    1.4557    0.4542 C   0  0  0  0  0  0  0  0  0  0  0  0
    0.6021    1.4922    0.0227 C   0  0  2  0  0  0  0  0  0  0  0  0
    0.7282    2.0216   -1.2710 O   0  0  0  0  0  0  0  0  0  0  0  0
    1.3376    0.2145    0.1860 C   0  0  1  0  0  0  0  0  0  0  0  0
    0.5459   -0.9619   -0.3654 C   0  0  1  0  0  0  0  0  0  0  0  0
    1.3087   -2.2523   -0.2356 C   0  0  0  0  0  0  0  0  0  0  0  0
    2.7468   -2.1233   -0.6566 C   0  0  0  0  0  0  0  0  0  0  0  0
    3.4407   -1.0015   -0.0193 C   0  0  0  0  0  0  0  0  0  0  0  0
    4.5311   -1.2234    0.6961 C   0  0  0  0  0  0  0  0  0  0  0  0
    5.1190   -0.0206    1.2725 C   0  0  0  0  0  0  0  0  0  0  0  0
    6.1591   -0.1454    1.9674 O   0  0  0  0  0  0  0  0  0  0  0  0
    4.5495    1.3063    1.0734 C   0  0  0  0  0  0  0  0  0  0  0  0
    3.4553    1.3683    0.3324 C   0  0  0  0  0  0  0  0  0  0  0  0
    2.7332    0.2630   -0.3215 C   0  0  2  0  0  0  0  0  0  0  0  0
    2.8218    0.4853   -1.8133 C   0  0  0  0  0  0  0  0  0  0  0  0
   -0.5547   -0.8777    1.4374 H   0  0  0  0  0  0  0  0  0  0  0  0
   -1.3321   -2.9754    0.6831 H   0  0  0  0  0  0  0  0  0  0  0  0
   -1.9139   -2.2900   -0.9314 H   0  0  0  0  0  0  0  0  0  0  0  0
   -3.8457   -1.9791    0.5217 H   0  0  0  0  0  0  0  0  0  0  0  0
   -2.7503   -1.7133    1.9634 H   0  0  0  0  0  0  0  0  0  0  0  0
   -2.9261    1.6083    1.6672 H   0  0  0  0  0  0  0  0  0  0  0  0
   -4.8058    1.3726   -1.8060 H   0  0  0  0  0  0  0  0  0  0  0  0
   -5.8427    0.0934   -1.1830 H   0  0  0  0  0  0  0  0  0  0  0  0
   -6.8710    1.7732   -0.1984 H   0  0  0  0  0  0  0  0  0  0  0  0
   -2.4569   -0.4444   -1.9159 H   0  0  0  0  0  0  0  0  0  0  0  0
   -0.9680    0.4985   -2.1766 H   0  0  0  0  0  0  0  0  0  0  0  0
   -2.4235    1.3223   -1.6335 H   0  0  0  0  0  0  0  0  0  0  0  0
   -1.3186    2.3926    0.1283 H   0  0  0  0  0  0  0  0  0  0  0  0
   -0.8959    1.4457    1.5790 H   0  0  0  0  0  0  0  0  0  0  0  0
    1.1006    2.2553    0.6917 H   0  0  0  0  0  0  0  0  0  0  0  0
    0.7828    2.9953   -1.2821 H   0  0  0  0  0  0  0  0  0  0  0  0
    1.4141    0.0084    1.2896 H   0  0  0  0  0  0  0  0  0  0  0  0
    0.4154   -0.7875   -1.4497 H   0  0  0  0  0  0  0  0  0  0  0  0
    0.8352   -3.0586   -0.8163 H   0  0  0  0  0  0  0  0  0  0  0  0
    1.2974   -2.5461    0.8339 H   0  0  0  0  0  0  0  0  0  0  0  0
    3.2489   -3.0934   -0.5167 H   0  0  0  0  0  0  0  0  0  0  0  0
    2.7437   -1.9330   -1.7654 H   0  0  0  0  0  0  0  0  0  0  0  0
    4.9055   -2.2309    0.8076 H   0  0  0  0  0  0  0  0  0  0  0  0
    5.0078    2.1809    1.5135 H   0  0  0  0  0  0  0  0  0  0  0  0
    3.0715    2.3927    0.2152 H   0  0  0  0  0  0  0  0  0  0  0  0
    2.8720    1.5631   -2.0797 H   0  0  0  0  0  0  0  0  0  0  0  0
    2.0923   -0.1004   -2.3795 H   0  0  0  0  0  0  0  0  0  0  0  0
    3.8284    0.0877   -2.1380 H   0  0  0  0  0  0  0  0  0  0  0  0
  1  2  1  0
  2  3  1  0
  3  4  1  0
  4  5  1  1
  4  6  1  0
  6  7  2  0
  6  8  1  0
  8  9  1  0
  4 10  1  0
 10 11  1  6
 10 12  1  0
 12 13  1  0
 13 14  1  0
 13 15  1  0
 15 16  1  0
 16 17  1  0
 17 18  1  0
 18 19  1  0
 19 20  2  0
 20 21  1  0
 21 22  2  0
 21 23  1  0
 23 24  2  0
 24 25  1  0
 25 26  1  6
 10  1  1  0
 25 15  1  0
 16  1  1  0
 25 19  1  0
  1 27  1  1
  2 28  1  0
  2 29  1  0
  3 30  1  0
  3 31  1  0
  5 32  1  0
  8 33  1  0
  8 34  1  0
  9 35  1  0
 11 36  1  0
 11 37  1  0
 11 38  1  0
 12 39  1  0
 12 40  1  0
 13 41  1  1
 14 42  1  0
 15 43  1  1
 16 44  1  6
 17 45  1  0
 17 46  1  0
 18 47  1  0
 18 48  1  0
 20 49  1  0
 23 50  1  0
 24 51  1  0
 26 52  1  0
 26 53  1  0
 26 54  1  0
M  END
$$$$
