@<TRIPOS>MOLECULE
*****
 56 59 0 0 0
SMALL
GASTEIGER

@<TRIPOS>ATOM
      1 C           2.2786   -1.4677    0.6759 C.3     1  UNL1        0.0175
      2 C           3.6148   -0.9035    0.6024 C.2     1  UNL1       -0.0695
      3 C           4.4837   -0.0191    0.1784 C.2     1  UNL1       -0.0573
      4 C           5.9049    0.2189    0.3642 C.ar    1  UNL1       -0.0253
      5 C           6.6351   -0.6330    1.1557 C.ar    1  UNL1       -0.0546
      6 C           7.9803   -0.3446    1.2871 C.ar    1  UNL1       -0.0612
      7 C           8.5039    0.7519    0.6354 C.ar    1  UNL1       -0.0617
      8 C           7.7087    1.5831   -0.1578 C.ar    1  UNL1       -0.0612
      9 C           6.3524    1.3237   -0.3122 C.ar    1  UNL1       -0.0546
     10 N           1.2953   -0.7563   -0.0795 N.3     1  UNL1       -0.2963
     11 C           0.9332    0.5331    0.4002 C.3     1  UNL1        0.0121
     12 C          -0.4232    0.8959   -0.2553 C.3     1  UNL1        0.0126
     13 N          -1.4906    0.1625    0.3417 N.3     1  UNL1       -0.2891
     14 C          -0.8927   -1.1184    0.7761 C.3     1  UNL1        0.0126
     15 C           0.0960   -1.5505   -0.3075 C.3     1  UNL1        0.0121
     16 C          -2.6222   -0.1435   -0.4594 C.3     1  UNL1        0.0610
     17 C          -3.4217    0.9874   -0.9606 C.ar    1  UNL1       -0.0259
     18 C          -3.0186    2.1327   -1.6053 C.ar    1  UNL1       -0.0568
     19 C          -3.8261    3.1554   -2.0415 C.ar    1  UNL1       -0.0614
     20 C          -5.1812    3.0419   -1.8205 C.ar    1  UNL1       -0.0617
     21 C          -5.7192    1.9448   -1.1851 C.ar    1  UNL1       -0.0614
     22 C          -4.8194    0.9923   -0.7966 C.ar    1  UNL1       -0.0568
     23 C          -3.5423   -0.9480    0.4371 C.ar    1  UNL1       -0.0259
     24 C          -3.6961   -0.3668    1.6990 C.ar    1  UNL1       -0.0568
     25 C          -4.4928   -0.9235    2.6849 C.ar    1  UNL1       -0.0614
     26 C          -5.1416   -2.1012    2.3604 C.ar    1  UNL1       -0.0617
     27 C          -4.9943   -2.6798    1.1183 C.ar    1  UNL1       -0.0614
     28 C          -4.1909   -2.1045    0.1461 C.ar    1  UNL1       -0.0568
     29 H           1.9559   -1.5187    1.7619 H       1  UNL1        0.0470
     30 H           2.2832   -2.5347    0.3323 H       1  UNL1        0.0470
     31 H           4.2549   -1.5496    1.2280 H       1  UNL1        0.0585
     32 H           3.8068    0.5594   -0.4222 H       1  UNL1        0.0621
     33 H           6.2413   -1.4869    1.6655 H       1  UNL1        0.0623
     34 H           8.6080   -0.9851    1.9009 H       1  UNL1        0.0618
     35 H           9.5669    1.0073    0.7198 H       1  UNL1        0.0618
     36 H           8.1271    2.4568   -0.6752 H       1  UNL1        0.0618
     37 H           5.7694    1.9679   -0.9181 H       1  UNL1        0.0623
     38 H           1.6235    1.2994    0.0114 H       1  UNL1        0.0439
     39 H           0.8726    0.6180    1.4932 H       1  UNL1        0.0439
     40 H          -0.2472    0.7260   -1.3198 H       1  UNL1        0.0439
     41 H          -0.5276    1.9827    0.0328 H       1  UNL1        0.0439
     42 H          -1.6260   -1.9128    0.8970 H       1  UNL1        0.0439
     43 H          -0.3590   -0.9951    1.7400 H       1  UNL1        0.0439
     44 H          -0.2817   -1.3135   -1.3030 H       1  UNL1        0.0439
     45 H           0.2845   -2.6261   -0.2494 H       1  UNL1        0.0439
     46 H          -2.3302   -0.8274   -1.3016 H       1  UNL1        0.0562
     47 H          -1.9665    2.2495   -1.8011 H       1  UNL1        0.0621
     48 H          -3.4007    4.0123   -2.5395 H       1  UNL1        0.0618
     49 H          -5.8345    3.8349   -2.1559 H       1  UNL1        0.0618
     50 H          -6.7595    1.8464   -1.0094 H       1  UNL1        0.0618
     51 H          -5.2700    0.1242   -0.2905 H       1  UNL1        0.0621
     52 H          -3.2112    0.5608    2.0140 H       1  UNL1        0.0621
     53 H          -4.6203   -0.4851    3.6632 H       1  UNL1        0.0618
     54 H          -5.7812   -2.5894    3.0901 H       1  UNL1        0.0618
     55 H          -5.4830   -3.6086    0.8102 H       1  UNL1        0.0618
     56 H          -4.0098   -2.4762   -0.8546 H       1  UNL1        0.0621
@<TRIPOS>BOND
     1     1     2    1
     2     2     3    2
     3     3     4    1
     4     4     5   ar
     5     5     6   ar
     6     6     7   ar
     7     7     8   ar
     8     8     9   ar
     9     1    10    1
    10    10    11    1
    11    11    12    1
    12    12    13    1
    13    13    14    1
    14    14    15    1
    15    13    16    1
    16    16    17    1
    17    17    18   ar
    18    18    19   ar
    19    19    20   ar
    20    20    21   ar
    21    21    22   ar
    22    16    23    1
    23    23    24   ar
    24    24    25   ar
    25    25    26   ar
    26    26    27   ar
    27    27    28   ar
    28     9     4   ar
    29    15    10    1
    30    22    17   ar
    31    28    23   ar
    32     1    29    1
    33     1    30    1
    34     2    31    1
    35     3    32    1
    36     5    33    1
    37     6    34    1
    38     7    35    1
    39     8    36    1
    40     9    37    1
    41    11    38    1
    42    11    39    1
    43    12    40    1
    44    12    41    1
    45    14    42    1
    46    14    43    1
    47    15    44    1
    48    15    45    1
    49    16    46    1
    50    18    47    1
    51    19    48    1
    52    20    49    1
    53    21    50    1
    54    22    51    1
    55    24    52    1
    56    25    53    1
    57    26    54    1
    58    27    55    1
    59    28    56    1
