@<TRIPOS>MOLECULE
*****
 61 65 0 0 0
SMALL
GASTEIGER

@<TRIPOS>ATOM
      1 C           7.6765   -0.4056    0.7346 C.3     1  UNL1       -0.0524
      2 C           6.8808    0.7676    0.2125 C.3     1  UNL1       -0.0038
      3 N           5.9535    1.1670    1.2544 N.3     1  UNL1       -0.2996
      4 C           4.9303    0.1803    1.4852 C.3     1  UNL1        0.0148
      5 C           3.5330    0.7342    1.2746 C.3     1  UNL1        0.0278
      6 N           3.4584    1.4388    0.0082 N.am    1  UNL1       -0.2939
      7 C           2.4537    1.2346   -0.9566 C.2     1  UNL1        0.2630
      8 O           2.4681    1.8845   -2.0189 O.2     1  UNL1       -0.2684
      9 C           1.3935    0.2703   -0.7293 C.ar    1  UNL1        0.1027
     10 C           1.6441   -1.0800   -0.5399 C.ar    1  UNL1       -0.0284
     11 C           0.3889   -1.6549   -0.3601 C.ar    1  UNL1       -0.0250
     12 C           0.2568   -3.1078   -0.0823 C.3     1  UNL1       -0.0377
     13 C          -0.5888   -0.6994   -0.4377 C.ar    1  UNL1        0.0435
     14 C          -2.0290   -0.8938   -0.3436 C.2     1  UNL1       -0.0252
     15 C          -2.7262   -1.6016   -1.2129 C.2     1  UNL1        0.0527
     16 C          -2.1908   -2.2804   -2.3810 C.2     1  UNL1        0.2502
     17 O          -1.0106   -2.2791   -2.7692 O.2     1  UNL1       -0.2698
     18 N          -3.2628   -2.9508   -3.0130 N.am    1  UNL1       -0.2657
     19 C          -4.4577   -2.7226   -2.2926 C.ar    1  UNL1        0.1381
     20 N          -5.7341   -3.1219   -2.4588 N.ar    1  UNL1       -0.2198
     21 C          -6.7191   -2.7690   -1.6207 C.ar    1  UNL1        0.1202
     22 N          -6.4861   -1.9907   -0.5601 N.ar    1  UNL1       -0.2199
     23 C          -5.2009   -1.5639   -0.3575 C.ar    1  UNL1        0.1359
     24 N          -4.9223   -0.7302    0.7548 N.pl3   1  UNL1       -0.2988
     25 C          -5.1665    0.6540    0.6449 C.ar    1  UNL1        0.0339
     26 C          -4.9362    1.5119    1.7060 C.ar    1  UNL1       -0.0377
     27 C          -5.1684    2.8767    1.6141 C.ar    1  UNL1       -0.0232
     28 C          -5.6438    3.4194    0.4383 C.ar    1  UNL1        0.1417
     29 F          -5.8745    4.7695    0.3414 F       1  UNL1       -0.2040
     30 C          -5.8782    2.5845   -0.6250 C.ar    1  UNL1        0.0778
     31 CL         -6.4770    3.2611   -2.1135 Cl      1  UNL1       -0.0805
     32 C          -5.6443    1.2345   -0.5211 C.ar    1  UNL1       -0.0194
     33 C          -4.1736   -1.9126   -1.2011 C.ar    1  UNL1        0.0673
     34 N           0.0675    0.4600   -0.6625 N.ar    1  UNL1       -0.3508
     35 C           4.5053    2.4121   -0.2468 C.3     1  UNL1        0.0278
     36 C           5.4120    2.4802    0.9446 C.3     1  UNL1        0.0148
     37 H           7.0861   -0.9263    1.5133 H       1  UNL1        0.0242
     38 H           7.9342   -1.1099   -0.0845 H       1  UNL1        0.0242
     39 H           8.5929    0.0273    1.2113 H       1  UNL1        0.0242
     40 H           6.3554    0.4822   -0.7234 H       1  UNL1        0.0424
     41 H           7.5456    1.6250    0.0098 H       1  UNL1        0.0424
     42 H           5.1028   -0.7439    0.8802 H       1  UNL1        0.0442
     43 H           5.0031   -0.1426    2.5480 H       1  UNL1        0.0442
     44 H           2.8134   -0.0861    1.3775 H       1  UNL1        0.0477
     45 H           3.3502    1.4466    2.1107 H       1  UNL1        0.0477
     46 H           2.6141   -1.5675   -0.5357 H       1  UNL1        0.0643
     47 H           0.6432   -3.6875   -0.9463 H       1  UNL1        0.0278
     48 H           0.7066   -3.4007    0.8839 H       1  UNL1        0.0278
     49 H          -0.8388   -3.3262   -0.0257 H       1  UNL1        0.0278
     50 H          -2.6005   -0.4578    0.4701 H       1  UNL1        0.0646
     51 H          -3.2219   -3.5339   -3.8800 H       1  UNL1        0.1566
     52 H          -7.7510   -3.1125   -1.7839 H       1  UNL1        0.1048
     53 H          -4.5558   -1.1290    1.6226 H       1  UNL1        0.1536
     54 H          -4.5621    1.0609    2.6205 H       1  UNL1        0.0637
     55 H          -4.9767    3.5197    2.4667 H       1  UNL1        0.0647
     56 H          -5.8311    0.5726   -1.3671 H       1  UNL1        0.0652
     57 H          -0.4181    1.3735   -0.7678 H       1  UNL1        0.1660
     58 H           4.0057    3.3973   -0.3380 H       1  UNL1        0.0477
     59 H           5.0508    2.1074   -1.1414 H       1  UNL1        0.0477
     60 H           4.9248    2.9292    1.8198 H       1  UNL1        0.0442
     61 H           6.2957    3.1056    0.6411 H       1  UNL1        0.0442
@<TRIPOS>BOND
     1     1     2    1
     2     2     3    1
     3     3     4    1
     4     4     5    1
     5     5     6    1
     6     6     7   am
     7     7     8    2
     8     7     9    1
     9     9    10   ar
    10    10    11   ar
    11    11    12    1
    12    11    13   ar
    13    13    14    1
    14    14    15    2
    15    15    16    1
    16    16    17    2
    17    16    18   am
    18    18    19    1
    19    19    20   ar
    20    20    21   ar
    21    21    22   ar
    22    22    23   ar
    23    23    24    1
    24    24    25    1
    25    25    26   ar
    26    26    27   ar
    27    27    28   ar
    28    28    29    1
    29    28    30   ar
    30    30    31    1
    31    30    32   ar
    32    23    33   ar
    33    13    34   ar
    34     6    35    1
    35    35    36    1
    36    36     3    1
    37    34     9   ar
    38    33    15    1
    39    33    19   ar
    40    32    25   ar
    41     1    37    1
    42     1    38    1
    43     1    39    1
    44     2    40    1
    45     2    41    1
    46     4    42    1
    47     4    43    1
    48     5    44    1
    49     5    45    1
    50    10    46    1
    51    12    47    1
    52    12    48    1
    53    12    49    1
    54    14    50    1
    55    18    51    1
    56    21    52    1
    57    24    53    1
    58    26    54    1
    59    27    55    1
    60    32    56    1
    61    34    57    1
    62    35    58    1
    63    35    59    1
    64    36    60    1
    65    36    61    1
