
     RDKit          3D

 61 65  0  0  0  0  0  0  0  0999 V2000
    7.6765   -0.4056    0.7346 C   0  0  0  0  0  0  0  0  0  0  0  0
    6.8808    0.7676    0.2125 C   0  0  0  0  0  0  0  0  0  0  0  0
    5.9535    1.1670    1.2544 N   0  0  0  0  0  0  0  0  0  0  0  0
    4.9303    0.1803    1.4852 C   0  0  0  0  0  0  0  0  0  0  0  0
    3.5330    0.7342    1.2746 C   0  0  0  0  0  0  0  0  0  0  0  0
    3.4584    1.4388    0.0082 N   0  0  0  0  0  0  0  0  0  0  0  0
    2.4537    1.2346   -0.9566 C   0  0  0  0  0  0  0  0  0  0  0  0
    2.4681    1.8845   -2.0189 O   0  0  0  0  0  0  0  0  0  0  0  0
    1.3935    0.2703   -0.7293 C   0  0  0  0  0  0  0  0  0  0  0  0
    1.6441   -1.0800   -0.5399 C   0  0  0  0  0  0  0  0  0  0  0  0
    0.3889   -1.6549   -0.3601 C   0  0  0  0  0  0  0  0  0  0  0  0
    0.2568   -3.1078   -0.0823 C   0  0  0  0  0  0  0  0  0  0  0  0
   -0.5888   -0.6994   -0.4377 C   0  0  0  0  0  0  0  0  0  0  0  0
   -2.0290   -0.8938   -0.3436 C   0  0  0  0  0  0  0  0  0  0  0  0
   -2.7262   -1.6016   -1.2129 C   0  0  0  0  0  0  0  0  0  0  0  0
   -2.1908   -2.2804   -2.3810 C   0  0  0  0  0  0  0  0  0  0  0  0
   -1.0106   -2.2791   -2.7692 O   0  0  0  0  0  0  0  0  0  0  0  0
   -3.2628   -2.9508   -3.0130 N   0  0  0  0  0  0  0  0  0  0  0  0
   -4.4577   -2.7226   -2.2926 C   0  0  0  0  0  0  0  0  0  0  0  0
   -5.7341   -3.1219   -2.4588 N   0  0  0  0  0  0  0  0  0  0  0  0
   -6.7191   -2.7690   -1.6207 C   0  0  0  0  0  0  0  0  0  0  0  0
   -6.4861   -1.9907   -0.5601 N   0  0  0  0  0  0  0  0  0  0  0  0
   -5.2009   -1.5639   -0.3575 C   0  0  0  0  0  0  0  0  0  0  0  0
   -4.9223   -0.7302    0.7548 N   0  0  0  0  0  0  0  0  0  0  0  0
   -5.1665    0.6540    0.6449 C   0  0  0  0  0  0  0  0  0  0  0  0
   -4.9362    1.5119    1.7060 C   0  0  0  0  0  0  0  0  0  0  0  0
   -5.1684    2.8767    1.6141 C   0  0  0  0  0  0  0  0  0  0  0  0
   -5.6438    3.4194    0.4383 C   0  0  0  0  0  0  0  0  0  0  0  0
   -5.8745    4.7695    0.3414 F   0  0  0  0  0  0  0  0  0  0  0  0
   -5.8782    2.5845   -0.6250 C   0  0  0  0  0  0  0  0  0  0  0  0
   -6.4770    3.2611   -2.1135 Cl  0  0  0  0  0  0  0  0  0  0  0  0
   -5.6443    1.2345   -0.5211 C   0  0  0  0  0  0  0  0  0  0  0  0
   -4.1736   -1.9126   -1.2011 C   0  0  0  0  0  0  0  0  0  0  0  0
    0.0675    0.4600   -0.6625 N   0  0  0  0  0  0  0  0  0  0  0  0
    4.5053    2.4121   -0.2468 C   0  0  0  0  0  0  0  0  0  0  0  0
    5.4120    2.4802    0.9446 C   0  0  0  0  0  0  0  0  0  0  0  0
    7.0861   -0.9263    1.5133 H   0  0  0  0  0  0  0  0  0  0  0  0
    7.9342   -1.1099   -0.0845 H   0  0  0  0  0  0  0  0  0  0  0  0
    8.5929    0.0273    1.2113 H   0  0  0  0  0  0  0  0  0  0  0  0
    6.3554    0.4822   -0.7234 H   0  0  0  0  0  0  0  0  0  0  0  0
    7.5456    1.6250    0.0098 H   0  0  0  0  0  0  0  0  0  0  0  0
    5.1028   -0.7439    0.8802 H   0  0  0  0  0  0  0  0  0  0  0  0
    5.0031   -0.1426    2.5480 H   0  0  0  0  0  0  0  0  0  0  0  0
    2.8134   -0.0861    1.3775 H   0  0  0  0  0  0  0  0  0  0  0  0
    3.3502    1.4466    2.1107 H   0  0  0  0  0  0  0  0  0  0  0  0
    2.6141   -1.5675   -0.5357 H   0  0  0  0  0  0  0  0  0  0  0  0
    0.6432   -3.6875   -0.9463 H   0  0  0  0  0  0  0  0  0  0  0  0
    0.7066   -3.4007    0.8839 H   0  0  0  0  0  0  0  0  0  0  0  0
   -0.8388   -3.3262   -0.0257 H   0  0  0  0  0  0  0  0  0  0  0  0
   -2.6005   -0.4578    0.4701 H   0  0  0  0  0  0  0  0  0  0  0  0
   -3.2219   -3.5339   -3.8800 H   0  0  0  0  0  0  0  0  0  0  0  0
   -7.7510   -3.1125   -1.7839 H   0  0  0  0  0  0  0  0  0  0  0  0
   -4.5558   -1.1290    1.6226 H   0  0  0  0  0  0  0  0  0  0  0  0
   -4.5621    1.0609    2.6205 H   0  0  0  0  0  0  0  0  0  0  0  0
   -4.9767    3.5197    2.4667 H   0  0  0  0  0  0  0  0  0  0  0  0
   -5.8311    0.5726   -1.3671 H   0  0  0  0  0  0  0  0  0  0  0  0
   -0.4181    1.3735   -0.7678 H   0  0  0  0  0  0  0  0  0  0  0  0
    4.0057    3.3973   -0.3380 H   0  0  0  0  0  0  0  0  0  0  0  0
    5.0508    2.1074   -1.1414 H   0  0  0  0  0  0  0  0  0  0  0  0
    4.9248    2.9292    1.8198 H   0  0  0  0  0  0  0  0  0  0  0  0
    6.2957    3.1056    0.6411 H   0  0  0  0  0  0  0  0  0  0  0  0
  1  2  1  0
  2  3  1  0
  3  4  1  0
  4  5  1  0
  5  6  1  0
  6  7  1  0
  7  8  2  0
  7  9  1  0
  9 10  2  0
 10 11  1  0
 11 12  1  0
 11 13  2  0
 13 14  1  0
 14 15  2  0
 15 16  1  0
 16 17  2  0
 16 18  1  0
 18 19  1  0
 19 20  2  0
 20 21  1  0
 21 22  2  0
 22 23  1  0
 23 24  1  0
 24 25  1  0
 25 26  2  0
 26 27  1  0
 27 28  2  0
 28 29  1  0
 28 30  1  0
 30 31  1  0
 30 32  2  0
 23 33  2  0
 13 34  1  0
  6 35  1  0
 35 36  1  0
 36  3  1  0
 34  9  1  0
 33 15  1  0
 33 19  1  0
 32 25  1  0
  1 37  1  0
  1 38  1  0
  1 39  1  0
  2 40  1  0
  2 41  1  0
  4 42  1  0
  4 43  1  0
  5 44  1  0
  5 45  1  0
 10 46  1  0
 12 47  1  0
 12 48  1  0
 12 49  1  0
 14 50  1  0
 18 51  1  0
 21 52  1  0
 24 53  1  0
 26 54  1  0
 27 55  1  0
 32 56  1  0
 34 57  1  0
 35 58  1  0
 35 59  1  0
 36 60  1  0
 36 61  1  0
M  END
$$$$
