@<TRIPOS>MOLECULE
*****
 58 60 0 0 0
SMALL
GASTEIGER

@<TRIPOS>ATOM
      1 C          -4.3126    0.9950   -1.5520 C.3     1  UNL1       -0.0121
      2 N          -4.4416   -0.1527   -0.7513 N.3     1  UNL1       -0.2970
      3 C          -3.7784   -0.1862    0.4965 C.3     1  UNL1        0.0241
      4 C          -2.3129   -0.0484    0.2662 C.ar    1  UNL1       -0.0333
      5 C          -1.5101   -1.1744    0.0718 C.ar    1  UNL1       -0.0570
      6 C          -0.1712   -1.0935   -0.1404 C.ar    1  UNL1       -0.0551
      7 C           0.4717    0.1085   -0.1757 C.ar    1  UNL1       -0.0104
      8 C           1.9393    0.1839   -0.4093 C.3     1  UNL1        0.1146
      9 O           2.5897    0.1289    0.8488 O.3     1  UNL1       -0.4873
     10 C           3.9861    0.1865    0.8407 C.ar    1  UNL1        0.1245
     11 C           4.6686    0.1375    2.0291 C.ar    1  UNL1       -0.0191
     12 C           6.0537    0.1943    2.0274 C.ar    1  UNL1       -0.0473
     13 C           6.7935    0.2999    0.8641 C.ar    1  UNL1        0.0232
     14 C           8.1803    0.3567    0.8636 C.ar    1  UNL1       -0.0048
     15 C           8.8971    0.3034    2.1490 C.3     1  UNL1        0.0701
     16 O           8.8858   -1.0047    2.6043 O.3     1  UNL1       -0.3904
     17 C           8.8585    0.4620   -0.3374 C.ar    1  UNL1        0.0289
     18 C           8.1005    0.5054   -1.4880 C.ar    1  UNL1        0.3376
     19 O           8.7192    0.6020   -2.5890 O.2     1  UNL1       -0.2452
     20 O           6.7775    0.4488   -1.4497 O.2     1  UNL1       -0.4220
     21 C           6.1031    0.3490   -0.3330 C.ar    1  UNL1        0.1429
     22 C           4.7229    0.2918   -0.3194 C.ar    1  UNL1        0.0231
     23 C          -0.2870    1.2602    0.0130 C.ar    1  UNL1       -0.0551
     24 C          -1.6656    1.1714    0.2312 C.ar    1  UNL1       -0.0570
     25 C          -5.5261   -1.0275   -0.9650 C.3     1  UNL1        0.0241
     26 C          -6.8668   -0.4596   -0.8118 C.ar    1  UNL1       -0.0320
     27 C          -7.5100    0.1014   -1.9013 C.ar    1  UNL1       -0.0573
     28 C          -8.7779    0.6466   -1.7962 C.ar    1  UNL1       -0.0601
     29 C          -9.4284    0.6401   -0.5910 C.ar    1  UNL1       -0.0434
     30 C          -8.8171    0.0893    0.5156 C.ar    1  UNL1        0.0413
     31 CL         -9.6398    0.0771    2.0541 Cl      1  UNL1       -0.0835
     32 C          -7.5349   -0.4567    0.3878 C.ar    1  UNL1       -0.0390
     33 CL          0.6861    0.0000    0.0000 Cl      2  UNL2       -0.1454
     34 H          -4.6718    0.7744   -2.5856 H       1  UNL1        0.0391
     35 H          -3.2272    1.2388   -1.6735 H       1  UNL1        0.0391
     36 H          -4.7746    1.9166   -1.1413 H       1  UNL1        0.0391
     37 H          -4.0943    0.6699    1.1596 H       1  UNL1        0.0476
     38 H          -4.0097   -1.0941    1.0703 H       1  UNL1        0.0476
     39 H          -2.0425   -2.1298    0.1034 H       1  UNL1        0.0621
     40 H           0.3904   -2.0022   -0.2831 H       1  UNL1        0.0621
     41 H           2.2172   -0.6896   -1.0452 H       1  UNL1        0.0748
     42 H           2.1787    1.1116   -0.9319 H       1  UNL1        0.0748
     43 H           4.1093    0.0547    2.9572 H       1  UNL1        0.0654
     44 H           6.5556    0.1524    2.9889 H       1  UNL1        0.0626
     45 H           8.4255    0.9596    2.8936 H       1  UNL1        0.0607
     46 H           9.9346    0.6788    1.9819 H       1  UNL1        0.0607
     47 H           8.2656   -1.5954    2.1092 H       1  UNL1        0.2098
     48 H           9.9353    0.5045   -0.3151 H       1  UNL1        0.0693
     49 H           4.1937    0.3314   -1.2654 H       1  UNL1        0.0691
     50 H           0.2152    2.2117   -0.0140 H       1  UNL1        0.0621
     51 H          -2.2458    2.0840    0.3770 H       1  UNL1        0.0621
     52 H          -5.3647   -1.9176   -0.2844 H       1  UNL1        0.0476
     53 H          -5.3974   -1.4814   -1.9940 H       1  UNL1        0.0476
     54 H          -7.0242    0.1228   -2.8681 H       1  UNL1        0.0621
     55 H          -9.2302    1.0706   -2.6804 H       1  UNL1        0.0618
     56 H         -10.4331    1.0623   -0.4671 H       1  UNL1        0.0632
     57 H          -7.0726   -0.8808    1.2553 H       1  UNL1        0.0635
     58 H          -0.6861    0.0000    0.0000 H       1  UNL1        0.1454
@<TRIPOS>BOND
     1     1     2    1
     2     2     3    1
     3     3     4    1
     4     4     5   ar
     5     5     6   ar
     6     6     7   ar
     7     7     8    1
     8     8     9    1
     9     9    10    1
    10    10    11   ar
    11    11    12   ar
    12    12    13   ar
    13    13    14   ar
    14    14    15    1
    15    15    16    1
    16    14    17   ar
    17    17    18   ar
    18    18    19    2
    19    18    20   ar
    20    20    21   ar
    21    21    22   ar
    22     7    23   ar
    23    23    24   ar
    24     2    25    1
    25    25    26    1
    26    26    27   ar
    27    27    28   ar
    28    28    29   ar
    29    29    30   ar
    30    30    31    1
    31    30    32   ar
    32    24     4   ar
    33    32    26   ar
    34    22    10   ar
    35    21    13   ar
    36     1    34    1
    37     1    35    1
    38     1    36    1
    39     3    37    1
    40     3    38    1
    41     5    39    1
    42     6    40    1
    43     8    41    1
    44     8    42    1
    45    11    43    1
    46    12    44    1
    47    15    45    1
    48    15    46    1
    49    16    47    1
    50    17    48    1
    51    22    49    1
    52    23    50    1
    53    24    51    1
    54    25    52    1
    55    25    53    1
    56    27    54    1
    57    28    55    1
    58    29    56    1
    59    32    57    1
    60    33    58    1
