
     RDKit          3D

 58 60  0  0  0  0  0  0  0  0999 V2000
   -4.3126    0.9950   -1.5520 C   0  0  0  0  0  0  0  0  0  0  0  0
   -4.4416   -0.1527   -0.7513 N   0  0  0  0  0  0  0  0  0  0  0  0
   -3.7784   -0.1862    0.4965 C   0  0  0  0  0  0  0  0  0  0  0  0
   -2.3129   -0.0484    0.2662 C   0  0  0  0  0  0  0  0  0  0  0  0
   -1.5101   -1.1744    0.0718 C   0  0  0  0  0  0  0  0  0  0  0  0
   -0.1712   -1.0935   -0.1404 C   0  0  0  0  0  0  0  0  0  0  0  0
    0.4717    0.1085   -0.1757 C   0  0  0  0  0  0  0  0  0  0  0  0
    1.9393    0.1839   -0.4093 C   0  0  0  0  0  0  0  0  0  0  0  0
    2.5897    0.1289    0.8488 O   0  0  0  0  0  0  0  0  0  0  0  0
    3.9861    0.1865    0.8407 C   0  0  0  0  0  0  0  0  0  0  0  0
    4.6686    0.1375    2.0291 C   0  0  0  0  0  0  0  0  0  0  0  0
    6.0537    0.1943    2.0274 C   0  0  0  0  0  0  0  0  0  0  0  0
    6.7935    0.2999    0.8641 C   0  0  0  0  0  0  0  0  0  0  0  0
    8.1803    0.3567    0.8636 C   0  0  0  0  0  0  0  0  0  0  0  0
    8.8971    0.3034    2.1490 C   0  0  0  0  0  0  0  0  0  0  0  0
    8.8858   -1.0047    2.6043 O   0  0  0  0  0  0  0  0  0  0  0  0
    8.8585    0.4620   -0.3374 C   0  0  0  0  0  0  0  0  0  0  0  0
    8.1005    0.5054   -1.4880 C   0  0  0  0  0  0  0  0  0  0  0  0
    8.7192    0.6020   -2.5890 O   0  0  0  0  0  0  0  0  0  0  0  0
    6.7775    0.4488   -1.4497 O   0  0  0  0  0  0  0  0  0  0  0  0
    6.1031    0.3490   -0.3330 C   0  0  0  0  0  0  0  0  0  0  0  0
    4.7229    0.2918   -0.3194 C   0  0  0  0  0  0  0  0  0  0  0  0
   -0.2870    1.2602    0.0130 C   0  0  0  0  0  0  0  0  0  0  0  0
   -1.6656    1.1714    0.2312 C   0  0  0  0  0  0  0  0  0  0  0  0
   -5.5261   -1.0275   -0.9650 C   0  0  0  0  0  0  0  0  0  0  0  0
   -6.8668   -0.4596   -0.8118 C   0  0  0  0  0  0  0  0  0  0  0  0
   -7.5100    0.1014   -1.9013 C   0  0  0  0  0  0  0  0  0  0  0  0
   -8.7779    0.6466   -1.7962 C   0  0  0  0  0  0  0  0  0  0  0  0
   -9.4284    0.6401   -0.5910 C   0  0  0  0  0  0  0  0  0  0  0  0
   -8.8171    0.0893    0.5156 C   0  0  0  0  0  0  0  0  0  0  0  0
   -9.6398    0.0771    2.0541 Cl  0  0  0  0  0  0  0  0  0  0  0  0
   -7.5349   -0.4567    0.3878 C   0  0  0  0  0  0  0  0  0  0  0  0
    0.6861    0.0000    0.0000 Cl  0  0  0  0  0  0  0  0  0  0  0  0
   -4.6718    0.7744   -2.5856 H   0  0  0  0  0  0  0  0  0  0  0  0
   -3.2272    1.2388   -1.6735 H   0  0  0  0  0  0  0  0  0  0  0  0
   -4.7746    1.9166   -1.1413 H   0  0  0  0  0  0  0  0  0  0  0  0
   -4.0943    0.6699    1.1596 H   0  0  0  0  0  0  0  0  0  0  0  0
   -4.0097   -1.0941    1.0703 H   0  0  0  0  0  0  0  0  0  0  0  0
   -2.0425   -2.1298    0.1034 H   0  0  0  0  0  0  0  0  0  0  0  0
    0.3904   -2.0022   -0.2831 H   0  0  0  0  0  0  0  0  0  0  0  0
    2.2172   -0.6896   -1.0452 H   0  0  0  0  0  0  0  0  0  0  0  0
    2.1787    1.1116   -0.9319 H   0  0  0  0  0  0  0  0  0  0  0  0
    4.1093    0.0547    2.9572 H   0  0  0  0  0  0  0  0  0  0  0  0
    6.5556    0.1524    2.9889 H   0  0  0  0  0  0  0  0  0  0  0  0
    8.4255    0.9596    2.8936 H   0  0  0  0  0  0  0  0  0  0  0  0
    9.9346    0.6788    1.9819 H   0  0  0  0  0  0  0  0  0  0  0  0
    8.2656   -1.5954    2.1092 H   0  0  0  0  0  0  0  0  0  0  0  0
    9.9353    0.5045   -0.3151 H   0  0  0  0  0  0  0  0  0  0  0  0
    4.1937    0.3314   -1.2654 H   0  0  0  0  0  0  0  0  0  0  0  0
    0.2152    2.2117   -0.0140 H   0  0  0  0  0  0  0  0  0  0  0  0
   -2.2458    2.0840    0.3770 H   0  0  0  0  0  0  0  0  0  0  0  0
   -5.3647   -1.9176   -0.2844 H   0  0  0  0  0  0  0  0  0  0  0  0
   -5.3974   -1.4814   -1.9940 H   0  0  0  0  0  0  0  0  0  0  0  0
   -7.0242    0.1228   -2.8681 H   0  0  0  0  0  0  0  0  0  0  0  0
   -9.2302    1.0706   -2.6804 H   0  0  0  0  0  0  0  0  0  0  0  0
  -10.4331    1.0623   -0.4671 H   0  0  0  0  0  0  0  0  0  0  0  0
   -7.0726   -0.8808    1.2553 H   0  0  0  0  0  0  0  0  0  0  0  0
   -0.6861    0.0000    0.0000 H   0  0  0  0  0  0  0  0  0  0  0  0
  1  2  1  0
  2  3  1  0
  3  4  1  0
  4  5  2  0
  5  6  1  0
  6  7  2  0
  7  8  1  0
  8  9  1  0
  9 10  1  0
 10 11  2  0
 11 12  1  0
 12 13  2  0
 13 14  1  0
 14 15  1  0
 15 16  1  0
 14 17  2  0
 17 18  1  0
 18 19  2  0
 18 20  1  0
 20 21  1  0
 21 22  2  0
  7 23  1  0
 23 24  2  0
  2 25  1  0
 25 26  1  0
 26 27  2  0
 27 28  1  0
 28 29  2  0
 29 30  1  0
 30 31  1  0
 30 32  2  0
 24  4  1  0
 32 26  1  0
 22 10  1  0
 21 13  1  0
  1 34  1  0
  1 35  1  0
  1 36  1  0
  3 37  1  0
  3 38  1  0
  5 39  1  0
  6 40  1  0
  8 41  1  0
  8 42  1  0
 11 43  1  0
 12 44  1  0
 15 45  1  0
 15 46  1  0
 16 47  1  0
 17 48  1  0
 22 49  1  0
 23 50  1  0
 24 51  1  0
 25 52  1  0
 25 53  1  0
 27 54  1  0
 28 55  1  0
 29 56  1  0
 32 57  1  0
 33 58  1  0
M  END
$$$$
