
     RDKit          3D

 48 50  0  0  0  0  0  0  0  0999 V2000
   -9.2254    2.1357    0.2251 C   0  0  0  0  0  0  0  0  0  0  0  0
   -7.7711    2.0459    0.1283 N   0  0  0  0  0  0  0  0  0  0  0  0
   -7.1716    0.7822    0.3924 C   0  0  0  0  0  0  0  0  0  0  0  0
   -7.8932   -0.1957    0.6938 O   0  0  0  0  0  0  0  0  0  0  0  0
   -5.7412    0.6609    0.3054 C   0  0  0  0  0  0  0  0  0  0  0  0
   -5.1444   -0.5490    0.5559 C   0  0  0  0  0  0  0  0  0  0  0  0
   -3.7723   -0.6514    0.4689 C   0  0  0  0  0  0  0  0  0  0  0  0
   -3.2063   -1.8772    0.7259 O   0  0  0  0  0  0  0  0  0  0  0  0
   -1.8189   -2.0526    0.6558 C   0  0  0  0  0  0  0  0  0  0  0  0
   -1.2005   -2.4244   -0.5192 C   0  0  0  0  0  0  0  0  0  0  0  0
    0.1648   -2.5979   -0.5917 C   0  0  0  0  0  0  0  0  0  0  0  0
    0.9856   -2.4097    0.5044 C   0  0  0  0  0  0  0  0  0  0  0  0
    2.3946   -2.5875    0.4350 N   0  0  0  0  0  0  0  0  0  0  0  0
    3.2291   -1.4762    0.0928 C   0  0  0  0  0  0  0  0  0  0  0  0
    2.6587   -0.3911   -0.1299 O   0  0  0  0  0  0  0  0  0  0  0  0
    4.6268   -1.5654    0.0024 N   0  0  0  0  0  0  0  0  0  0  0  0
    5.5287   -0.5265   -0.3273 C   0  0  0  0  0  0  0  0  0  0  0  0
    6.8912   -0.8663   -0.3528 C   0  0  0  0  0  0  0  0  0  0  0  0
    7.8809    0.0307   -0.6545 C   0  0  0  0  0  0  0  0  0  0  0  0
    7.5329    1.3387   -0.9503 C   0  0  0  0  0  0  0  0  0  0  0  0
    8.8193    2.4606   -1.3315 Cl  0  0  0  0  0  0  0  0  0  0  0  0
    6.2080    1.6748   -0.9269 C   0  0  0  0  0  0  0  0  0  0  0  0
    5.8532    3.0955   -1.2500 C   0  0  0  0  0  0  0  0  0  0  0  0
    4.5014    3.3148   -1.1956 F   0  0  0  0  0  0  0  0  0  0  0  0
    6.3806    3.4771   -2.4718 F   0  0  0  0  0  0  0  0  0  0  0  0
    6.4282    3.9146   -0.2690 F   0  0  0  0  0  0  0  0  0  0  0  0
    5.2102    0.7607   -0.6203 C   0  0  0  0  0  0  0  0  0  0  0  0
    0.3550   -2.0367    1.6787 C   0  0  0  0  0  0  0  0  0  0  0  0
   -1.0108   -1.8616    1.7572 C   0  0  0  0  0  0  0  0  0  0  0  0
   -3.0005    0.4365    0.1366 C   0  0  0  0  0  0  0  0  0  0  0  0
   -3.6339    1.6326   -0.1075 C   0  0  0  0  0  0  0  0  0  0  0  0
   -4.9550    1.7000   -0.0161 N   0  0  0  0  0  0  0  0  0  0  0  0
   -9.4972    3.2016    0.1329 H   0  0  0  0  0  0  0  0  0  0  0  0
   -9.7218    1.4926   -0.5349 H   0  0  0  0  0  0  0  0  0  0  0  0
   -9.5096    1.7070    1.2241 H   0  0  0  0  0  0  0  0  0  0  0  0
   -7.1882    2.8686   -0.1232 H   0  0  0  0  0  0  0  0  0  0  0  0
   -5.7438   -1.4103    0.8181 H   0  0  0  0  0  0  0  0  0  0  0  0
   -1.8479   -2.5745   -1.3904 H   0  0  0  0  0  0  0  0  0  0  0  0
    0.6501   -2.8885   -1.5092 H   0  0  0  0  0  0  0  0  0  0  0  0
    2.8442   -3.5066    0.6264 H   0  0  0  0  0  0  0  0  0  0  0  0
    5.0297   -2.5319    0.2093 H   0  0  0  0  0  0  0  0  0  0  0  0
    7.2165   -1.8841   -0.1270 H   0  0  0  0  0  0  0  0  0  0  0  0
    8.9048   -0.3089   -0.6528 H   0  0  0  0  0  0  0  0  0  0  0  0
    4.2066    1.0906   -0.6213 H   0  0  0  0  0  0  0  0  0  0  0  0
    1.0081   -1.8888    2.5436 H   0  0  0  0  0  0  0  0  0  0  0  0
   -1.4839   -1.5694    2.6860 H   0  0  0  0  0  0  0  0  0  0  0  0
   -1.9355    0.3294    0.0759 H   0  0  0  0  0  0  0  0  0  0  0  0
   -3.0364    2.4810   -0.3664 H   0  0  0  0  0  0  0  0  0  0  0  0
  1  2  1  0
  2  3  1  0
  3  4  2  0
  3  5  1  0
  5  6  2  0
  6  7  1  0
  7  8  1  0
  8  9  1  0
  9 10  2  0
 10 11  1  0
 11 12  2  0
 12 13  1  0
 13 14  1  0
 14 15  2  0
 14 16  1  0
 16 17  1  0
 17 18  2  0
 18 19  1  0
 19 20  2  0
 20 21  1  0
 20 22  1  0
 22 23  1  0
 23 24  1  0
 23 25  1  0
 23 26  1  0
 22 27  2  0
 12 28  1  0
 28 29  2  0
  7 30  2  0
 30 31  1  0
 31 32  2  0
 32  5  1  0
 29  9  1  0
 27 17  1  0
  1 33  1  0
  1 34  1  0
  1 35  1  0
  2 36  1  0
  6 37  1  0
 10 38  1  0
 11 39  1  0
 13 40  1  0
 16 41  1  0
 18 42  1  0
 19 43  1  0
 27 44  1  0
 28 45  1  0
 29 46  1  0
 30 47  1  0
 31 48  1  0
M  END
$$$$
