@<TRIPOS>MOLECULE
*****
 48 50 0 0 0
SMALL
GASTEIGER

@<TRIPOS>ATOM
      1 C          -9.2254    2.1357    0.2251 C.3     1  UNL1        0.0004
      2 N          -7.7711    2.0459    0.1283 N.am    1  UNL1       -0.3132
      3 C          -7.1716    0.7822    0.3924 C.2     1  UNL1        0.2623
      4 O          -7.8932   -0.1957    0.6938 O.2     1  UNL1       -0.2685
      5 C          -5.7412    0.6609    0.3054 C.ar    1  UNL1        0.1288
      6 C          -5.1444   -0.5490    0.5559 C.ar    1  UNL1        0.0112
      7 C          -3.7723   -0.6514    0.4689 C.ar    1  UNL1        0.1321
      8 O          -3.2063   -1.8772    0.7259 O.3     1  UNL1       -0.4559
      9 C          -1.8189   -2.0526    0.6558 C.ar    1  UNL1        0.1286
     10 C          -1.2005   -2.4244   -0.5192 C.ar    1  UNL1       -0.0176
     11 C           0.1648   -2.5979   -0.5917 C.ar    1  UNL1       -0.0370
     12 C           0.9856   -2.4097    0.5044 C.ar    1  UNL1        0.0350
     13 N           2.3946   -2.5875    0.4350 N.am    1  UNL1       -0.2692
     14 C           3.2291   -1.4762    0.0928 C.2     1  UNL1        0.3081
     15 O           2.6587   -0.3911   -0.1299 O.2     1  UNL1       -0.2522
     16 N           4.6268   -1.5654    0.0024 N.am    1  UNL1       -0.2692
     17 C           5.5287   -0.5265   -0.3273 C.ar    1  UNL1        0.0354
     18 C           6.8912   -0.8663   -0.3528 C.ar    1  UNL1       -0.0390
     19 C           7.8809    0.0307   -0.6545 C.ar    1  UNL1       -0.0411
     20 C           7.5329    1.3387   -0.9503 C.ar    1  UNL1        0.0527
     21 CL          8.8193    2.4606   -1.3315 Cl      1  UNL1       -0.0830
     22 C           6.2080    1.6748   -0.9269 C.ar    1  UNL1        0.0748
     23 C           5.8532    3.0955   -1.2500 C.3     1  UNL1        0.4188
     24 F           4.5014    3.3148   -1.1956 F       1  UNL1       -0.1658
     25 F           6.3806    3.4771   -2.4718 F       1  UNL1       -0.1658
     26 F           6.4282    3.9146   -0.2690 F       1  UNL1       -0.1658
     27 C           5.2102    0.7607   -0.6203 C.ar    1  UNL1       -0.0274
     28 C           0.3550   -2.0367    1.6787 C.ar    1  UNL1       -0.0370
     29 C          -1.0108   -1.8616    1.7572 C.ar    1  UNL1       -0.0176
     30 C          -3.0005    0.4365    0.1366 C.ar    1  UNL1       -0.0012
     31 C          -3.6339    1.6326   -0.1075 C.ar    1  UNL1        0.0319
     32 N          -4.9550    1.7000   -0.0161 N.ar    1  UNL1       -0.2501
     33 H          -9.4972    3.2016    0.1329 H       1  UNL1        0.0426
     34 H          -9.7218    1.4926   -0.5349 H       1  UNL1        0.0426
     35 H          -9.5096    1.7070    1.2241 H       1  UNL1        0.0426
     36 H          -7.1882    2.8686   -0.1232 H       1  UNL1        0.1487
     37 H          -5.7438   -1.4103    0.8181 H       1  UNL1        0.0677
     38 H          -1.8479   -2.5745   -1.3904 H       1  UNL1        0.0655
     39 H           0.6501   -2.8885   -1.5092 H       1  UNL1        0.0637
     40 H           2.8442   -3.5066    0.6264 H       1  UNL1        0.1564
     41 H           5.0297   -2.5319    0.2093 H       1  UNL1        0.1564
     42 H           7.2165   -1.8841   -0.1270 H       1  UNL1        0.0636
     43 H           8.9048   -0.3089   -0.6528 H       1  UNL1        0.0633
     44 H           4.2066    1.0906   -0.6213 H       1  UNL1        0.0642
     45 H           1.0081   -1.8888    2.5436 H       1  UNL1        0.0637
     46 H          -1.4839   -1.5694    2.6860 H       1  UNL1        0.0655
     47 H          -1.9355    0.3294    0.0759 H       1  UNL1        0.0669
     48 H          -3.0364    2.4810   -0.3664 H       1  UNL1        0.0831
@<TRIPOS>BOND
     1     1     2    1
     2     2     3   am
     3     3     4    2
     4     3     5    1
     5     5     6   ar
     6     6     7   ar
     7     7     8    1
     8     8     9    1
     9     9    10   ar
    10    10    11   ar
    11    11    12   ar
    12    12    13    1
    13    13    14   am
    14    14    15    2
    15    14    16   am
    16    16    17    1
    17    17    18   ar
    18    18    19   ar
    19    19    20   ar
    20    20    21    1
    21    20    22   ar
    22    22    23    1
    23    23    24    1
    24    23    25    1
    25    23    26    1
    26    22    27   ar
    27    12    28   ar
    28    28    29   ar
    29     7    30   ar
    30    30    31   ar
    31    31    32   ar
    32    32     5   ar
    33    29     9   ar
    34    27    17   ar
    35     1    33    1
    36     1    34    1
    37     1    35    1
    38     2    36    1
    39     6    37    1
    40    10    38    1
    41    11    39    1
    42    13    40    1
    43    16    41    1
    44    18    42    1
    45    19    43    1
    46    27    44    1
    47    28    45    1
    48    29    46    1
    49    30    47    1
    50    31    48    1
