@<TRIPOS>MOLECULE
*****
 54 57 0 0 0
SMALL
GASTEIGER

@<TRIPOS>ATOM
      1 C          -3.1185    5.0271   -1.5878 C.3     1  UNL1        0.0788
      2 O          -2.7451    3.9302   -2.3685 O.3     1  UNL1       -0.4951
      3 C          -2.1387    2.7909   -1.8510 C.ar    1  UNL1        0.1201
      4 C          -1.7931    1.7441   -2.6704 C.ar    1  UNL1       -0.0196
      5 C          -1.1874    0.5931   -2.1901 C.ar    1  UNL1       -0.0509
      6 C          -0.9230    0.4962   -0.8436 C.ar    1  UNL1        0.0055
      7 C          -0.2811   -0.6922   -0.2486 C.3     1  UNL1        0.2215
      8 C          -1.2933   -1.6880    0.1491 C.ar    1  UNL1        0.0055
      9 C          -1.0034   -2.7841    0.9349 C.ar    1  UNL1       -0.0509
     10 C          -2.0172   -3.6754    1.2714 C.ar    1  UNL1       -0.0196
     11 C          -3.3090   -3.4950    0.8408 C.ar    1  UNL1        0.1201
     12 O          -4.3211   -4.3759    1.1711 O.3     1  UNL1       -0.4951
     13 C          -4.0420   -5.5236    1.9880 C.3     1  UNL1        0.0788
     14 C          -3.6149   -2.4073    0.0565 C.ar    1  UNL1       -0.0196
     15 C          -2.5912   -1.5160   -0.2776 C.ar    1  UNL1       -0.0509
     16 N           0.7391   -1.2519   -1.1136 N.pl3   1  UNL1       -0.2151
     17 C           1.9765   -0.5886   -0.8967 C.2     1  UNL1        0.3729
     18 N           3.0303   -0.5226   -1.6383 N.2     1  UNL1       -0.1329
     19 N           1.8462    0.0378    0.3746 N.am    1  UNL1       -0.1560
     20 C           2.8230    0.8481    1.0759 C.3     1  UNL1        0.0837
     21 C           4.0361   -0.0218    1.4199 C.3     1  UNL1        0.0031
     22 C           4.9692    0.8564    2.2221 C.3     1  UNL1        0.0506
     23 O           5.4387    1.8586    1.3875 O.3     1  UNL1       -0.3795
     24 C           4.8188    1.9210    0.1642 C.3     1  UNL1        0.0506
     25 C           3.3036    2.0221    0.3062 C.3     1  UNL1        0.0031
     26 C           0.5550   -0.2484    0.9035 C.2     1  UNL1        0.3252
     27 O           0.1851   -0.1495    2.1025 O.2     1  UNL1       -0.2524
     28 C          -1.2700    1.5441   -0.0281 C.ar    1  UNL1       -0.0509
     29 C          -1.8763    2.6953   -0.5119 C.ar    1  UNL1       -0.0196
     30 H          -2.2818    5.3298   -0.9372 H       1  UNL1        0.0660
     31 H          -4.0471    4.7766   -1.0379 H       1  UNL1        0.0660
     32 H          -3.2919    5.9014   -2.2729 H       1  UNL1        0.0660
     33 H          -1.9869    1.7843   -3.7410 H       1  UNL1        0.0654
     34 H          -0.9318   -0.2073   -2.8726 H       1  UNL1        0.0623
     35 H           0.0012   -2.9253    1.2702 H       1  UNL1        0.0623
     36 H          -1.7869   -4.5221    1.8796 H       1  UNL1        0.0654
     37 H          -3.4644   -5.1362    2.8558 H       1  UNL1        0.0660
     38 H          -3.3785   -6.2332    1.4273 H       1  UNL1        0.0660
     39 H          -4.9714   -6.0243    2.2782 H       1  UNL1        0.0660
     40 H          -4.6104   -2.2164   -0.3092 H       1  UNL1        0.0654
     41 H          -2.8589   -0.6544   -0.9035 H       1  UNL1        0.0623
     42 H           0.5990   -2.0256   -1.7971 H       1  UNL1        0.2462
     43 H           2.9874   -1.0335   -2.5514 H       1  UNL1        0.3058
     44 H           2.4357    1.2057    2.0520 H       1  UNL1        0.0677
     45 H           3.6542   -0.8322    2.0919 H       1  UNL1        0.0319
     46 H           4.5168   -0.4409    0.5396 H       1  UNL1        0.0319
     47 H           4.3942    1.3507    3.0526 H       1  UNL1        0.0561
     48 H           5.8241    0.2650    2.6163 H       1  UNL1        0.0561
     49 H           5.1333    1.1483   -0.5567 H       1  UNL1        0.0561
     50 H           5.1191    2.9162   -0.2843 H       1  UNL1        0.0561
     51 H           2.8170    2.1784   -0.6699 H       1  UNL1        0.0319
     52 H           3.1288    2.9902    0.8647 H       1  UNL1        0.0319
     53 H          -1.0751    1.5021    1.0495 H       1  UNL1        0.0623
     54 H          -2.1219    3.4778    0.1790 H       1  UNL1        0.0654
@<TRIPOS>BOND
     1     1     2    1
     2     2     3    1
     3     3     4   ar
     4     4     5   ar
     5     5     6   ar
     6     6     7    1
     7     7     8    1
     8     8     9   ar
     9     9    10   ar
    10    10    11   ar
    11    11    12    1
    12    12    13    1
    13    11    14   ar
    14    14    15   ar
    15     7    16    1
    16    16    17    1
    17    17    18    2
    18    17    19    1
    19    19    20    1
    20    20    21    1
    21    21    22    1
    22    22    23    1
    23    23    24    1
    24    24    25    1
    25    19    26   am
    26    26    27    2
    27     6    28   ar
    28    28    29   ar
    29    29     3   ar
    30    26     7    1
    31    15     8   ar
    32    25    20    1
    33     1    30    1
    34     1    31    1
    35     1    32    1
    36     4    33    1
    37     5    34    1
    38     9    35    1
    39    10    36    1
    40    13    37    1
    41    13    38    1
    42    13    39    1
    43    14    40    1
    44    15    41    1
    45    16    42    1
    46    18    43    1
    47    20    44    1
    48    21    45    1
    49    21    46    1
    50    22    47    1
    51    22    48    1
    52    24    49    1
    53    24    50    1
    54    25    51    1
    55    25    52    1
    56    28    53    1
    57    29    54    1
