
     RDKit          3D

 54 57  0  0  0  0  0  0  0  0999 V2000
   -3.1185    5.0271   -1.5878 C   0  0  0  0  0  0  0  0  0  0  0  0
   -2.7451    3.9302   -2.3685 O   0  0  0  0  0  0  0  0  0  0  0  0
   -2.1387    2.7909   -1.8510 C   0  0  0  0  0  0  0  0  0  0  0  0
   -1.7931    1.7441   -2.6704 C   0  0  0  0  0  0  0  0  0  0  0  0
   -1.1874    0.5931   -2.1901 C   0  0  0  0  0  0  0  0  0  0  0  0
   -0.9230    0.4962   -0.8436 C   0  0  0  0  0  0  0  0  0  0  0  0
   -0.2811   -0.6922   -0.2486 C   0  0  0  0  0  0  0  0  0  0  0  0
   -1.2933   -1.6880    0.1491 C   0  0  0  0  0  0  0  0  0  0  0  0
   -1.0034   -2.7841    0.9349 C   0  0  0  0  0  0  0  0  0  0  0  0
   -2.0172   -3.6754    1.2714 C   0  0  0  0  0  0  0  0  0  0  0  0
   -3.3090   -3.4950    0.8408 C   0  0  0  0  0  0  0  0  0  0  0  0
   -4.3211   -4.3759    1.1711 O   0  0  0  0  0  0  0  0  0  0  0  0
   -4.0420   -5.5236    1.9880 C   0  0  0  0  0  0  0  0  0  0  0  0
   -3.6149   -2.4073    0.0565 C   0  0  0  0  0  0  0  0  0  0  0  0
   -2.5912   -1.5160   -0.2776 C   0  0  0  0  0  0  0  0  0  0  0  0
    0.7391   -1.2519   -1.1136 N   0  0  0  0  0  0  0  0  0  0  0  0
    1.9765   -0.5886   -0.8967 C   0  0  0  0  0  0  0  0  0  0  0  0
    3.0303   -0.5226   -1.6383 N   0  0  0  0  0  0  0  0  0  0  0  0
    1.8462    0.0378    0.3746 N   0  0  0  0  0  0  0  0  0  0  0  0
    2.8230    0.8481    1.0759 C   0  0  0  0  0  0  0  0  0  0  0  0
    4.0361   -0.0218    1.4199 C   0  0  0  0  0  0  0  0  0  0  0  0
    4.9692    0.8564    2.2221 C   0  0  0  0  0  0  0  0  0  0  0  0
    5.4387    1.8586    1.3875 O   0  0  0  0  0  0  0  0  0  0  0  0
    4.8188    1.9210    0.1642 C   0  0  0  0  0  0  0  0  0  0  0  0
    3.3036    2.0221    0.3062 C   0  0  0  0  0  0  0  0  0  0  0  0
    0.5550   -0.2484    0.9035 C   0  0  0  0  0  0  0  0  0  0  0  0
    0.1851   -0.1495    2.1025 O   0  0  0  0  0  0  0  0  0  0  0  0
   -1.2700    1.5441   -0.0281 C   0  0  0  0  0  0  0  0  0  0  0  0
   -1.8763    2.6953   -0.5119 C   0  0  0  0  0  0  0  0  0  0  0  0
   -2.2818    5.3298   -0.9372 H   0  0  0  0  0  0  0  0  0  0  0  0
   -4.0471    4.7766   -1.0379 H   0  0  0  0  0  0  0  0  0  0  0  0
   -3.2919    5.9014   -2.2729 H   0  0  0  0  0  0  0  0  0  0  0  0
   -1.9869    1.7843   -3.7410 H   0  0  0  0  0  0  0  0  0  0  0  0
   -0.9318   -0.2073   -2.8726 H   0  0  0  0  0  0  0  0  0  0  0  0
    0.0012   -2.9253    1.2702 H   0  0  0  0  0  0  0  0  0  0  0  0
   -1.7869   -4.5221    1.8796 H   0  0  0  0  0  0  0  0  0  0  0  0
   -3.4644   -5.1362    2.8558 H   0  0  0  0  0  0  0  0  0  0  0  0
   -3.3785   -6.2332    1.4273 H   0  0  0  0  0  0  0  0  0  0  0  0
   -4.9714   -6.0243    2.2782 H   0  0  0  0  0  0  0  0  0  0  0  0
   -4.6104   -2.2164   -0.3092 H   0  0  0  0  0  0  0  0  0  0  0  0
   -2.8589   -0.6544   -0.9035 H   0  0  0  0  0  0  0  0  0  0  0  0
    0.5990   -2.0256   -1.7971 H   0  0  0  0  0  0  0  0  0  0  0  0
    2.9874   -1.0335   -2.5514 H   0  0  0  0  0  0  0  0  0  0  0  0
    2.4357    1.2057    2.0520 H   0  0  0  0  0  0  0  0  0  0  0  0
    3.6542   -0.8322    2.0919 H   0  0  0  0  0  0  0  0  0  0  0  0
    4.5168   -0.4409    0.5396 H   0  0  0  0  0  0  0  0  0  0  0  0
    4.3942    1.3507    3.0526 H   0  0  0  0  0  0  0  0  0  0  0  0
    5.8241    0.2650    2.6163 H   0  0  0  0  0  0  0  0  0  0  0  0
    5.1333    1.1483   -0.5567 H   0  0  0  0  0  0  0  0  0  0  0  0
    5.1191    2.9162   -0.2843 H   0  0  0  0  0  0  0  0  0  0  0  0
    2.8170    2.1784   -0.6699 H   0  0  0  0  0  0  0  0  0  0  0  0
    3.1288    2.9902    0.8647 H   0  0  0  0  0  0  0  0  0  0  0  0
   -1.0751    1.5021    1.0495 H   0  0  0  0  0  0  0  0  0  0  0  0
   -2.1219    3.4778    0.1790 H   0  0  0  0  0  0  0  0  0  0  0  0
  1  2  1  0
  2  3  1  0
  3  4  2  0
  4  5  1  0
  5  6  2  0
  6  7  1  0
  7  8  1  0
  8  9  2  0
  9 10  1  0
 10 11  2  0
 11 12  1  0
 12 13  1  0
 11 14  1  0
 14 15  2  0
  7 16  1  0
 16 17  1  0
 17 18  2  3
 17 19  1  0
 19 20  1  0
 20 21  1  0
 21 22  1  0
 22 23  1  0
 23 24  1  0
 24 25  1  0
 19 26  1  0
 26 27  2  0
  6 28  1  0
 28 29  2  0
 29  3  1  0
 26  7  1  0
 15  8  1  0
 25 20  1  0
  1 30  1  0
  1 31  1  0
  1 32  1  0
  4 33  1  0
  5 34  1  0
  9 35  1  0
 10 36  1  0
 13 37  1  0
 13 38  1  0
 13 39  1  0
 14 40  1  0
 15 41  1  0
 16 42  1  0
 18 43  1  0
 20 44  1  0
 21 45  1  0
 21 46  1  0
 22 47  1  0
 22 48  1  0
 24 49  1  0
 24 50  1  0
 25 51  1  0
 25 52  1  0
 28 53  1  0
 29 54  1  0
M  END
$$$$
