@<TRIPOS>MOLECULE
*****
 66 72 0 0 0
SMALL
GASTEIGER

@<TRIPOS>ATOM
      1 C          -3.9893   -2.6622   -1.5987 C.3     1  UNL1        0.0119
      2 N          -4.2910   -1.3125   -1.1592 N.ar    1  UNL1       -0.3491
      3 C          -3.5394   -0.2285   -1.3680 C.ar    1  UNL1        0.0133
      4 C          -4.2047    0.8349   -0.7813 C.ar    1  UNL1        0.0131
      5 C          -3.7189    2.2132   -0.7630 C.2     1  UNL1        0.0590
      6 C          -2.4943    2.5569   -0.4222 C.2     1  UNL1        0.0590
      7 C          -1.3523    1.7349    0.0078 C.ar    1  UNL1        0.0131
      8 C          -0.0877    1.8330   -0.5217 C.ar    1  UNL1        0.0140
      9 N           0.7440    0.9699    0.0924 N.ar    1  UNL1       -0.3417
     10 C           2.1338    0.7827   -0.1838 C.3     1  UNL1        0.0484
     11 C           3.0659    1.1212    0.9089 C.3     1  UNL1       -0.0181
     12 C           4.2831    0.2486    0.6016 C.3     1  UNL1        0.0012
     13 N           3.9651   -0.5038   -0.5619 N.3     1  UNL1       -0.2961
     14 C           4.6509   -1.7410   -0.6236 C.3     1  UNL1        0.0241
     15 C           6.1188   -1.5079   -0.7016 C.ar    1  UNL1       -0.0334
     16 C           6.9381   -1.4549    0.4083 C.ar    1  UNL1       -0.0573
     17 C           8.3054   -1.2296    0.3165 C.ar    1  UNL1       -0.0615
     18 C           8.8953   -1.0488   -0.9103 C.ar    1  UNL1       -0.0617
     19 C           8.0844   -1.1002   -2.0272 C.ar    1  UNL1       -0.0615
     20 C           6.7387   -1.3214   -1.9411 C.ar    1  UNL1       -0.0573
     21 C           2.5398   -0.5477   -0.6938 C.3     1  UNL1        0.0201
     22 C          -0.0035    0.3231    1.0176 C.ar    1  UNL1        0.0499
     23 C           0.3469   -0.6481    1.9192 C.ar    1  UNL1       -0.0376
     24 C          -0.5813   -1.1875    2.8076 C.ar    1  UNL1       -0.0598
     25 C          -1.8726   -0.7158    2.7573 C.ar    1  UNL1       -0.0611
     26 C          -2.2494    0.2556    1.8646 C.ar    1  UNL1       -0.0520
     27 C          -1.3119    0.7721    0.9952 C.ar    1  UNL1        0.0078
     28 C          -2.4461    4.0323   -0.5686 C.2     1  UNL1        0.2519
     29 O          -1.4085    4.7191   -0.3216 O.2     1  UNL1       -0.2697
     30 N          -3.7019    4.4832   -1.0076 N.am    1  UNL1       -0.2483
     31 C          -4.5393    3.3482   -1.1432 C.2     1  UNL1        0.2519
     32 O          -5.7339    3.4318   -1.5260 O.2     1  UNL1       -0.2697
     33 C          -5.3557    0.3268   -0.2312 C.ar    1  UNL1        0.0077
     34 C          -6.3632    0.9878    0.4812 C.ar    1  UNL1       -0.0520
     35 C          -7.4153    0.2256    0.9325 C.ar    1  UNL1       -0.0611
     36 C          -7.4947   -1.1389    0.7038 C.ar    1  UNL1       -0.0598
     37 C          -6.4789   -1.7494   -0.0016 C.ar    1  UNL1       -0.0376
     38 C          -5.3995   -1.0119   -0.4732 C.ar    1  UNL1        0.0494
     39 H          -4.8021   -3.0604   -2.2532 H       1  UNL1        0.0456
     40 H          -3.9283   -3.3681   -0.7292 H       1  UNL1        0.0456
     41 H          -3.0460   -2.7425   -2.1572 H       1  UNL1        0.0456
     42 H          -2.5732   -0.1662   -1.9008 H       1  UNL1        0.0815
     43 H           0.2101    2.5125   -1.3283 H       1  UNL1        0.0815
     44 H           2.3978    1.5026   -1.0307 H       1  UNL1        0.0541
     45 H           3.3274    2.2019    0.8691 H       1  UNL1        0.0298
     46 H           2.7307    0.9423    1.9392 H       1  UNL1        0.0298
     47 H           5.1129    0.9440    0.3639 H       1  UNL1        0.0427
     48 H           4.5223   -0.3754    1.4891 H       1  UNL1        0.0427
     49 H           4.5052   -2.3167    0.3385 H       1  UNL1        0.0476
     50 H           4.3002   -2.4079   -1.4463 H       1  UNL1        0.0476
     51 H           6.5475   -1.5917    1.3956 H       1  UNL1        0.0621
     52 H           8.9028   -1.1969    1.2108 H       1  UNL1        0.0618
     53 H           9.9676   -0.8719   -0.9732 H       1  UNL1        0.0618
     54 H           8.5702   -0.9563   -2.9797 H       1  UNL1        0.0618
     55 H           6.1338   -1.3558   -2.8389 H       1  UNL1        0.0621
     56 H           2.0613   -1.4265   -0.2842 H       1  UNL1        0.0447
     57 H           2.3103   -0.5762   -1.8042 H       1  UNL1        0.0447
     58 H           1.3839   -0.9964    1.9296 H       1  UNL1        0.0638
     59 H          -0.2689   -1.9616    3.5145 H       1  UNL1        0.0618
     60 H          -2.6170   -1.1344    3.4557 H       1  UNL1        0.0618
     61 H          -3.2738    0.6328    1.8435 H       1  UNL1        0.0624
     62 H          -3.9258    5.4844   -1.1866 H       1  UNL1        0.1581
     63 H          -6.2957    2.0543    0.6717 H       1  UNL1        0.0624
     64 H          -8.1978    0.7106    1.4804 H       1  UNL1        0.0618
     65 H          -8.3095   -1.7460    1.0480 H       1  UNL1        0.0618
     66 H          -6.5226   -2.8249   -0.1921 H       1  UNL1        0.0638
@<TRIPOS>BOND
     1     1     2    1
     2     2     3   ar
     3     3     4   ar
     4     4     5    1
     5     5     6    2
     6     6     7    1
     7     7     8   ar
     8     8     9   ar
     9     9    10    1
    10    10    11    1
    11    11    12    1
    12    12    13    1
    13    13    14    1
    14    14    15    1
    15    15    16   ar
    16    16    17   ar
    17    17    18   ar
    18    18    19   ar
    19    19    20   ar
    20    13    21    1
    21     9    22   ar
    22    22    23   ar
    23    23    24   ar
    24    24    25   ar
    25    25    26   ar
    26    26    27   ar
    27     6    28    1
    28    28    29    2
    29    28    30   am
    30    30    31   am
    31    31    32    2
    32     4    33   ar
    33    33    34   ar
    34    34    35   ar
    35    35    36   ar
    36    36    37   ar
    37    37    38   ar
    38    38     2   ar
    39    31     5    1
    40    38    33   ar
    41    27     7   ar
    42    21    10    1
    43    27    22   ar
    44    20    15   ar
    45     1    39    1
    46     1    40    1
    47     1    41    1
    48     3    42    1
    49     8    43    1
    50    10    44    1
    51    11    45    1
    52    11    46    1
    53    12    47    1
    54    12    48    1
    55    14    49    1
    56    14    50    1
    57    16    51    1
    58    17    52    1
    59    18    53    1
    60    19    54    1
    61    20    55    1
    62    21    56    1
    63    21    57    1
    64    23    58    1
    65    24    59    1
    66    25    60    1
    67    26    61    1
    68    30    62    1
    69    34    63    1
    70    35    64    1
    71    36    65    1
    72    37    66    1
