
     RDKit          3D

 66 72  0  0  0  0  0  0  0  0999 V2000
   -3.9893   -2.6622   -1.5987 C   0  0  0  0  0  0  0  0  0  0  0  0
   -4.2910   -1.3125   -1.1592 N   0  0  0  0  0  0  0  0  0  0  0  0
   -3.5394   -0.2285   -1.3680 C   0  0  0  0  0  0  0  0  0  0  0  0
   -4.2047    0.8349   -0.7813 C   0  0  0  0  0  0  0  0  0  0  0  0
   -3.7189    2.2132   -0.7630 C   0  0  0  0  0  0  0  0  0  0  0  0
   -2.4943    2.5569   -0.4222 C   0  0  0  0  0  0  0  0  0  0  0  0
   -1.3523    1.7349    0.0078 C   0  0  0  0  0  0  0  0  0  0  0  0
   -0.0877    1.8330   -0.5217 C   0  0  0  0  0  0  0  0  0  0  0  0
    0.7440    0.9699    0.0924 N   0  0  0  0  0  0  0  0  0  0  0  0
    2.1338    0.7827   -0.1838 C   0  0  0  0  0  0  0  0  0  0  0  0
    3.0659    1.1212    0.9089 C   0  0  0  0  0  0  0  0  0  0  0  0
    4.2831    0.2486    0.6016 C   0  0  0  0  0  0  0  0  0  0  0  0
    3.9651   -0.5038   -0.5619 N   0  0  0  0  0  0  0  0  0  0  0  0
    4.6509   -1.7410   -0.6236 C   0  0  0  0  0  0  0  0  0  0  0  0
    6.1188   -1.5079   -0.7016 C   0  0  0  0  0  0  0  0  0  0  0  0
    6.9381   -1.4549    0.4083 C   0  0  0  0  0  0  0  0  0  0  0  0
    8.3054   -1.2296    0.3165 C   0  0  0  0  0  0  0  0  0  0  0  0
    8.8953   -1.0488   -0.9103 C   0  0  0  0  0  0  0  0  0  0  0  0
    8.0844   -1.1002   -2.0272 C   0  0  0  0  0  0  0  0  0  0  0  0
    6.7387   -1.3214   -1.9411 C   0  0  0  0  0  0  0  0  0  0  0  0
    2.5398   -0.5477   -0.6938 C   0  0  0  0  0  0  0  0  0  0  0  0
   -0.0035    0.3231    1.0176 C   0  0  0  0  0  0  0  0  0  0  0  0
    0.3469   -0.6481    1.9192 C   0  0  0  0  0  0  0  0  0  0  0  0
   -0.5813   -1.1875    2.8076 C   0  0  0  0  0  0  0  0  0  0  0  0
   -1.8726   -0.7158    2.7573 C   0  0  0  0  0  0  0  0  0  0  0  0
   -2.2494    0.2556    1.8646 C   0  0  0  0  0  0  0  0  0  0  0  0
   -1.3119    0.7721    0.9952 C   0  0  0  0  0  0  0  0  0  0  0  0
   -2.4461    4.0323   -0.5686 C   0  0  0  0  0  0  0  0  0  0  0  0
   -1.4085    4.7191   -0.3216 O   0  0  0  0  0  0  0  0  0  0  0  0
   -3.7019    4.4832   -1.0076 N   0  0  0  0  0  0  0  0  0  0  0  0
   -4.5393    3.3482   -1.1432 C   0  0  0  0  0  0  0  0  0  0  0  0
   -5.7339    3.4318   -1.5260 O   0  0  0  0  0  0  0  0  0  0  0  0
   -5.3557    0.3268   -0.2312 C   0  0  0  0  0  0  0  0  0  0  0  0
   -6.3632    0.9878    0.4812 C   0  0  0  0  0  0  0  0  0  0  0  0
   -7.4153    0.2256    0.9325 C   0  0  0  0  0  0  0  0  0  0  0  0
   -7.4947   -1.1389    0.7038 C   0  0  0  0  0  0  0  0  0  0  0  0
   -6.4789   -1.7494   -0.0016 C   0  0  0  0  0  0  0  0  0  0  0  0
   -5.3995   -1.0119   -0.4732 C   0  0  0  0  0  0  0  0  0  0  0  0
   -4.8021   -3.0604   -2.2532 H   0  0  0  0  0  0  0  0  0  0  0  0
   -3.9283   -3.3681   -0.7292 H   0  0  0  0  0  0  0  0  0  0  0  0
   -3.0460   -2.7425   -2.1572 H   0  0  0  0  0  0  0  0  0  0  0  0
   -2.5732   -0.1662   -1.9008 H   0  0  0  0  0  0  0  0  0  0  0  0
    0.2101    2.5125   -1.3283 H   0  0  0  0  0  0  0  0  0  0  0  0
    2.3978    1.5026   -1.0307 H   0  0  0  0  0  0  0  0  0  0  0  0
    3.3274    2.2019    0.8691 H   0  0  0  0  0  0  0  0  0  0  0  0
    2.7307    0.9423    1.9392 H   0  0  0  0  0  0  0  0  0  0  0  0
    5.1129    0.9440    0.3639 H   0  0  0  0  0  0  0  0  0  0  0  0
    4.5223   -0.3754    1.4891 H   0  0  0  0  0  0  0  0  0  0  0  0
    4.5052   -2.3167    0.3385 H   0  0  0  0  0  0  0  0  0  0  0  0
    4.3002   -2.4079   -1.4463 H   0  0  0  0  0  0  0  0  0  0  0  0
    6.5475   -1.5917    1.3956 H   0  0  0  0  0  0  0  0  0  0  0  0
    8.9028   -1.1969    1.2108 H   0  0  0  0  0  0  0  0  0  0  0  0
    9.9676   -0.8719   -0.9732 H   0  0  0  0  0  0  0  0  0  0  0  0
    8.5702   -0.9563   -2.9797 H   0  0  0  0  0  0  0  0  0  0  0  0
    6.1338   -1.3558   -2.8389 H   0  0  0  0  0  0  0  0  0  0  0  0
    2.0613   -1.4265   -0.2842 H   0  0  0  0  0  0  0  0  0  0  0  0
    2.3103   -0.5762   -1.8042 H   0  0  0  0  0  0  0  0  0  0  0  0
    1.3839   -0.9964    1.9296 H   0  0  0  0  0  0  0  0  0  0  0  0
   -0.2689   -1.9616    3.5145 H   0  0  0  0  0  0  0  0  0  0  0  0
   -2.6170   -1.1344    3.4557 H   0  0  0  0  0  0  0  0  0  0  0  0
   -3.2738    0.6328    1.8435 H   0  0  0  0  0  0  0  0  0  0  0  0
   -3.9258    5.4844   -1.1866 H   0  0  0  0  0  0  0  0  0  0  0  0
   -6.2957    2.0543    0.6717 H   0  0  0  0  0  0  0  0  0  0  0  0
   -8.1978    0.7106    1.4804 H   0  0  0  0  0  0  0  0  0  0  0  0
   -8.3095   -1.7460    1.0480 H   0  0  0  0  0  0  0  0  0  0  0  0
   -6.5226   -2.8249   -0.1921 H   0  0  0  0  0  0  0  0  0  0  0  0
  1  2  1  0
  2  3  1  0
  3  4  2  0
  4  5  1  0
  5  6  2  0
  6  7  1  0
  7  8  2  0
  8  9  1  0
  9 10  1  0
 10 11  1  0
 11 12  1  0
 12 13  1  0
 13 14  1  0
 14 15  1  0
 15 16  2  0
 16 17  1  0
 17 18  2  0
 18 19  1  0
 19 20  2  0
 13 21  1  0
  9 22  1  0
 22 23  2  0
 23 24  1  0
 24 25  2  0
 25 26  1  0
 26 27  2  0
  6 28  1  0
 28 29  2  0
 28 30  1  0
 30 31  1  0
 31 32  2  0
  4 33  1  0
 33 34  2  0
 34 35  1  0
 35 36  2  0
 36 37  1  0
 37 38  2  0
 38  2  1  0
 31  5  1  0
 38 33  1  0
 27  7  1  0
 21 10  1  0
 27 22  1  0
 20 15  1  0
  1 39  1  0
  1 40  1  0
  1 41  1  0
  3 42  1  0
  8 43  1  0
 10 44  1  0
 11 45  1  0
 11 46  1  0
 12 47  1  0
 12 48  1  0
 14 49  1  0
 14 50  1  0
 16 51  1  0
 17 52  1  0
 18 53  1  0
 19 54  1  0
 20 55  1  0
 21 56  1  0
 21 57  1  0
 23 58  1  0
 24 59  1  0
 25 60  1  0
 26 61  1  0
 30 62  1  0
 34 63  1  0
 35 64  1  0
 36 65  1  0
 37 66  1  0
M  END
$$$$
