@<TRIPOS>MOLECULE
*****
 18 19 0 0 0
SMALL
GASTEIGER

@<TRIPOS>ATOM
      1 O           3.3729    1.9396    0.2184 O.2     1  UNL1       -0.2452
      2 C           2.3874    1.1330    0.1093 C.ar    1  UNL1        0.3372
      3 C           2.7333   -0.1869   -0.0882 C.ar    1  UNL1        0.0236
      4 C           1.7010   -1.0938   -0.2116 C.ar    1  UNL1       -0.0443
      5 C           0.4140   -0.6002   -0.1265 C.ar    1  UNL1        0.0178
      6 C          -0.6291   -1.4862   -0.2468 C.ar    1  UNL1       -0.0476
      7 C          -1.9220   -1.0302   -0.1672 C.ar    1  UNL1       -0.0194
      8 C          -2.1745    0.3238    0.0344 C.ar    1  UNL1        0.1204
      9 O          -3.4835    0.7448    0.1090 O.3     1  UNL1       -0.5066
     10 C          -1.1570    1.2241    0.1570 C.ar    1  UNL1        0.0229
     11 C           0.1436    0.7384    0.0730 C.ar    1  UNL1        0.1425
     12 O           1.1494    1.5568    0.1836 O.2     1  UNL1       -0.4220
     13 H           3.7860   -0.4965   -0.1439 H       1  UNL1        0.0689
     14 H           1.9447   -2.1290   -0.3662 H       1  UNL1        0.0627
     15 H          -0.4188   -2.5356   -0.4031 H       1  UNL1        0.0626
     16 H          -2.7204   -1.7571   -0.2664 H       1  UNL1        0.0654
     17 H          -3.8118    1.3796    0.8223 H       1  UNL1        0.2921
     18 H          -1.3153    2.2754    0.3131 H       1  UNL1        0.0691
@<TRIPOS>BOND
     1     1     2    2
     2     2     3   ar
     3     3     4   ar
     4     4     5   ar
     5     5     6   ar
     6     6     7   ar
     7     7     8   ar
     8     8     9    1
     9     8    10   ar
    10    10    11   ar
    11    11    12   ar
    12    12     2   ar
    13    11     5   ar
    14     3    13    1
    15     4    14    1
    16     6    15    1
    17     7    16    1
    18     9    17    1
    19    10    18    1
