
     RDKit          3D

 18 19  0  0  0  0  0  0  0  0999 V2000
    3.3729    1.9396    0.2184 O   0  0  0  0  0  0  0  0  0  0  0  0
    2.3874    1.1330    0.1093 C   0  0  0  0  0  0  0  0  0  0  0  0
    2.7333   -0.1869   -0.0882 C   0  0  0  0  0  0  0  0  0  0  0  0
    1.7010   -1.0938   -0.2116 C   0  0  0  0  0  0  0  0  0  0  0  0
    0.4140   -0.6002   -0.1265 C   0  0  0  0  0  0  0  0  0  0  0  0
   -0.6291   -1.4862   -0.2468 C   0  0  0  0  0  0  0  0  0  0  0  0
   -1.9220   -1.0302   -0.1672 C   0  0  0  0  0  0  0  0  0  0  0  0
   -2.1745    0.3238    0.0344 C   0  0  0  0  0  0  0  0  0  0  0  0
   -3.4835    0.7448    0.1090 O   0  0  0  0  0  0  0  0  0  0  0  0
   -1.1570    1.2241    0.1570 C   0  0  0  0  0  0  0  0  0  0  0  0
    0.1436    0.7384    0.0730 C   0  0  0  0  0  0  0  0  0  0  0  0
    1.1494    1.5568    0.1836 O   0  0  0  0  0  0  0  0  0  0  0  0
    3.7860   -0.4965   -0.1439 H   0  0  0  0  0  0  0  0  0  0  0  0
    1.9447   -2.1290   -0.3662 H   0  0  0  0  0  0  0  0  0  0  0  0
   -0.4188   -2.5356   -0.4031 H   0  0  0  0  0  0  0  0  0  0  0  0
   -2.7204   -1.7571   -0.2664 H   0  0  0  0  0  0  0  0  0  0  0  0
   -3.8118    1.3796    0.8223 H   0  0  0  0  0  0  0  0  0  0  0  0
   -1.3153    2.2754    0.3131 H   0  0  0  0  0  0  0  0  0  0  0  0
  1  2  2  0
  2  3  1  0
  3  4  2  0
  4  5  1  0
  5  6  2  0
  6  7  1  0
  7  8  2  0
  8  9  1  0
  8 10  1  0
 10 11  2  0
 11 12  1  0
 12  2  1  0
 11  5  1  0
  3 13  1  0
  4 14  1  0
  6 15  1  0
  7 16  1  0
  9 17  1  0
 10 18  1  0
M  END
$$$$
