@<TRIPOS>MOLECULE
*****
 50 53 0 0 0
SMALL
GASTEIGER

@<TRIPOS>ATOM
      1 O          -2.5947    1.2962    0.2675 O.2     1  UNL1       -0.2756
      2 C          -2.0954    0.2976    0.8073 C.2     1  UNL1        0.2159
      3 C          -2.8861   -0.6139    1.6257 C.3     1  UNL1        0.0281
      4 C          -4.3112   -0.2476    1.7421 C.3     1  UNL1       -0.0194
      5 C          -5.1071   -0.1731    0.5236 C.ar    1  UNL1       -0.0469
      6 C          -5.6217   -1.2897   -0.1166 C.ar    1  UNL1       -0.0586
      7 C          -6.3998   -1.1637   -1.2398 C.ar    1  UNL1       -0.0615
      8 C          -6.7147    0.0553   -1.7944 C.ar    1  UNL1       -0.0617
      9 C          -6.2171    1.1732   -1.1775 C.ar    1  UNL1       -0.0615
     10 C          -5.4243    1.0424   -0.0318 C.ar    1  UNL1       -0.0586
     11 N          -0.7016    0.0858    0.5852 N.am    1  UNL1       -0.3012
     12 C           0.1083    0.9591   -0.2127 C.3     1  UNL1        0.0183
     13 C           1.4062    0.3379   -0.6074 C.3     1  UNL1        0.0030
     14 C           2.1626   -0.2748    0.5232 C.3     1  UNL1        0.1138
     15 C           2.9360   -1.5109    0.1045 C.3     1  UNL1       -0.0087
     16 C           3.9395   -1.1955   -0.9791 C.3     1  UNL1       -0.0205
     17 C           4.7817   -0.0235   -0.6029 C.ar    1  UNL1       -0.0028
     18 C           5.9740    0.2047   -1.2322 C.ar    1  UNL1       -0.0198
     19 C           6.8015    1.2736   -0.9298 C.ar    1  UNL1        0.1239
     20 F           7.9802    1.4894   -1.5598 F       1  UNL1       -0.2055
     21 C           6.3694    2.1405    0.0692 C.ar    1  UNL1       -0.0230
     22 C           5.1704    1.9098    0.7011 C.ar    1  UNL1       -0.0169
     23 C           4.3546    0.8272    0.3795 C.ar    1  UNL1        0.1246
     24 O           3.1414    0.6325    1.0502 O.3     1  UNL1       -0.4853
     25 C           1.2776   -0.6597    1.6778 C.3     1  UNL1        0.0030
     26 C          -0.0802   -1.0622    1.1936 C.3     1  UNL1        0.0183
     27 H          -2.7282   -1.6907    1.3528 H       1  UNL1        0.0362
     28 H          -2.4617   -0.5766    2.6853 H       1  UNL1        0.0362
     29 H          -4.4312    0.7452    2.2765 H       1  UNL1        0.0318
     30 H          -4.8625   -0.9659    2.4291 H       1  UNL1        0.0318
     31 H          -5.3949   -2.2521    0.2901 H       1  UNL1        0.0620
     32 H          -6.7633   -2.1062   -1.6789 H       1  UNL1        0.0618
     33 H          -7.3321    0.0835   -2.6805 H       1  UNL1        0.0618
     34 H          -6.4523    2.1495   -1.5974 H       1  UNL1        0.0618
     35 H          -5.1012    1.9812    0.3964 H       1  UNL1        0.0620
     36 H          -0.4606    1.1581   -1.1686 H       1  UNL1        0.0466
     37 H           0.2646    1.9559    0.2456 H       1  UNL1        0.0466
     38 H           1.2319   -0.3799   -1.4507 H       1  UNL1        0.0319
     39 H           2.0493    1.1444   -1.0527 H       1  UNL1        0.0319
     40 H           3.5194   -1.8455    0.9909 H       1  UNL1        0.0307
     41 H           2.2785   -2.3103   -0.2564 H       1  UNL1        0.0307
     42 H           4.5914   -2.0985   -1.0821 H       1  UNL1        0.0316
     43 H           3.4463   -1.0566   -1.9619 H       1  UNL1        0.0316
     44 H           6.2947   -0.4899   -2.0152 H       1  UNL1        0.0650
     45 H           7.0153    2.9733    0.3042 H       1  UNL1        0.0647
     46 H           4.8535    2.6001    1.4779 H       1  UNL1        0.0655
     47 H           1.1342    0.2645    2.3064 H       1  UNL1        0.0319
     48 H           1.7618   -1.4503    2.2846 H       1  UNL1        0.0319
     49 H          -0.0395   -1.8627    0.4202 H       1  UNL1        0.0466
     50 H          -0.6630   -1.4807    2.0410 H       1  UNL1        0.0466
@<TRIPOS>BOND
     1     1     2    2
     2     2     3    1
     3     3     4    1
     4     4     5    1
     5     5     6   ar
     6     6     7   ar
     7     7     8   ar
     8     8     9   ar
     9     9    10   ar
    10     2    11   am
    11    11    12    1
    12    12    13    1
    13    13    14    1
    14    14    15    1
    15    15    16    1
    16    16    17    1
    17    17    18   ar
    18    18    19   ar
    19    19    20    1
    20    19    21   ar
    21    21    22   ar
    22    22    23   ar
    23    23    24    1
    24    14    25    1
    25    25    26    1
    26    10     5   ar
    27    26    11    1
    28    24    14    1
    29    23    17   ar
    30     3    27    1
    31     3    28    1
    32     4    29    1
    33     4    30    1
    34     6    31    1
    35     7    32    1
    36     8    33    1
    37     9    34    1
    38    10    35    1
    39    12    36    1
    40    12    37    1
    41    13    38    1
    42    13    39    1
    43    15    40    1
    44    15    41    1
    45    16    42    1
    46    16    43    1
    47    18    44    1
    48    21    45    1
    49    22    46    1
    50    25    47    1
    51    25    48    1
    52    26    49    1
    53    26    50    1
