
     RDKit          3D

 50 53  0  0  0  0  0  0  0  0999 V2000
   -2.5947    1.2962    0.2675 O   0  0  0  0  0  0  0  0  0  0  0  0
   -2.0954    0.2976    0.8073 C   0  0  0  0  0  0  0  0  0  0  0  0
   -2.8861   -0.6139    1.6257 C   0  0  0  0  0  0  0  0  0  0  0  0
   -4.3112   -0.2476    1.7421 C   0  0  0  0  0  0  0  0  0  0  0  0
   -5.1071   -0.1731    0.5236 C   0  0  0  0  0  0  0  0  0  0  0  0
   -5.6217   -1.2897   -0.1166 C   0  0  0  0  0  0  0  0  0  0  0  0
   -6.3998   -1.1637   -1.2398 C   0  0  0  0  0  0  0  0  0  0  0  0
   -6.7147    0.0553   -1.7944 C   0  0  0  0  0  0  0  0  0  0  0  0
   -6.2171    1.1732   -1.1775 C   0  0  0  0  0  0  0  0  0  0  0  0
   -5.4243    1.0424   -0.0318 C   0  0  0  0  0  0  0  0  0  0  0  0
   -0.7016    0.0858    0.5852 N   0  0  0  0  0  0  0  0  0  0  0  0
    0.1083    0.9591   -0.2127 C   0  0  0  0  0  0  0  0  0  0  0  0
    1.4062    0.3379   -0.6074 C   0  0  0  0  0  0  0  0  0  0  0  0
    2.1626   -0.2748    0.5232 C   0  0  0  0  0  0  0  0  0  0  0  0
    2.9360   -1.5109    0.1045 C   0  0  0  0  0  0  0  0  0  0  0  0
    3.9395   -1.1955   -0.9791 C   0  0  0  0  0  0  0  0  0  0  0  0
    4.7817   -0.0235   -0.6029 C   0  0  0  0  0  0  0  0  0  0  0  0
    5.9740    0.2047   -1.2322 C   0  0  0  0  0  0  0  0  0  0  0  0
    6.8015    1.2736   -0.9298 C   0  0  0  0  0  0  0  0  0  0  0  0
    7.9802    1.4894   -1.5598 F   0  0  0  0  0  0  0  0  0  0  0  0
    6.3694    2.1405    0.0692 C   0  0  0  0  0  0  0  0  0  0  0  0
    5.1704    1.9098    0.7011 C   0  0  0  0  0  0  0  0  0  0  0  0
    4.3546    0.8272    0.3795 C   0  0  0  0  0  0  0  0  0  0  0  0
    3.1414    0.6325    1.0502 O   0  0  0  0  0  0  0  0  0  0  0  0
    1.2776   -0.6597    1.6778 C   0  0  0  0  0  0  0  0  0  0  0  0
   -0.0802   -1.0622    1.1936 C   0  0  0  0  0  0  0  0  0  0  0  0
   -2.7282   -1.6907    1.3528 H   0  0  0  0  0  0  0  0  0  0  0  0
   -2.4617   -0.5766    2.6853 H   0  0  0  0  0  0  0  0  0  0  0  0
   -4.4312    0.7452    2.2765 H   0  0  0  0  0  0  0  0  0  0  0  0
   -4.8625   -0.9659    2.4291 H   0  0  0  0  0  0  0  0  0  0  0  0
   -5.3949   -2.2521    0.2901 H   0  0  0  0  0  0  0  0  0  0  0  0
   -6.7633   -2.1062   -1.6789 H   0  0  0  0  0  0  0  0  0  0  0  0
   -7.3321    0.0835   -2.6805 H   0  0  0  0  0  0  0  0  0  0  0  0
   -6.4523    2.1495   -1.5974 H   0  0  0  0  0  0  0  0  0  0  0  0
   -5.1012    1.9812    0.3964 H   0  0  0  0  0  0  0  0  0  0  0  0
   -0.4606    1.1581   -1.1686 H   0  0  0  0  0  0  0  0  0  0  0  0
    0.2646    1.9559    0.2456 H   0  0  0  0  0  0  0  0  0  0  0  0
    1.2319   -0.3799   -1.4507 H   0  0  0  0  0  0  0  0  0  0  0  0
    2.0493    1.1444   -1.0527 H   0  0  0  0  0  0  0  0  0  0  0  0
    3.5194   -1.8455    0.9909 H   0  0  0  0  0  0  0  0  0  0  0  0
    2.2785   -2.3103   -0.2564 H   0  0  0  0  0  0  0  0  0  0  0  0
    4.5914   -2.0985   -1.0821 H   0  0  0  0  0  0  0  0  0  0  0  0
    3.4463   -1.0566   -1.9619 H   0  0  0  0  0  0  0  0  0  0  0  0
    6.2947   -0.4899   -2.0152 H   0  0  0  0  0  0  0  0  0  0  0  0
    7.0153    2.9733    0.3042 H   0  0  0  0  0  0  0  0  0  0  0  0
    4.8535    2.6001    1.4779 H   0  0  0  0  0  0  0  0  0  0  0  0
    1.1342    0.2645    2.3064 H   0  0  0  0  0  0  0  0  0  0  0  0
    1.7618   -1.4503    2.2846 H   0  0  0  0  0  0  0  0  0  0  0  0
   -0.0395   -1.8627    0.4202 H   0  0  0  0  0  0  0  0  0  0  0  0
   -0.6630   -1.4807    2.0410 H   0  0  0  0  0  0  0  0  0  0  0  0
  1  2  2  0
  2  3  1  0
  3  4  1  0
  4  5  1  0
  5  6  2  0
  6  7  1  0
  7  8  2  0
  8  9  1  0
  9 10  2  0
  2 11  1  0
 11 12  1  0
 12 13  1  0
 13 14  1  0
 14 15  1  0
 15 16  1  0
 16 17  1  0
 17 18  2  0
 18 19  1  0
 19 20  1  0
 19 21  2  0
 21 22  1  0
 22 23  2  0
 23 24  1  0
 14 25  1  0
 25 26  1  0
 10  5  1  0
 26 11  1  0
 24 14  1  0
 23 17  1  0
  3 27  1  0
  3 28  1  0
  4 29  1  0
  4 30  1  0
  6 31  1  0
  7 32  1  0
  8 33  1  0
  9 34  1  0
 10 35  1  0
 12 36  1  0
 12 37  1  0
 13 38  1  0
 13 39  1  0
 15 40  1  0
 15 41  1  0
 16 42  1  0
 16 43  1  0
 18 44  1  0
 21 45  1  0
 22 46  1  0
 25 47  1  0
 25 48  1  0
 26 49  1  0
 26 50  1  0
M  END
$$$$
