
     RDKit          3D

 45 47  0  0  0  0  0  0  0  0999 V2000
   -3.6729    1.9664   -0.4360 C   0  0  0  0  0  0  0  0  0  0  0  0
   -3.6954    0.7318    0.4755 C   0  0  0  0  0  0  0  0  0  0  0  0
   -3.1966    1.1549    1.8132 C   0  0  0  0  0  0  0  0  0  0  0  0
   -5.0755    0.3326    0.5871 N   0  0  0  0  0  0  0  0  0  0  0  0
   -5.6068   -0.7136    0.0952 C   0  0  0  0  0  0  0  0  0  0  0  0
   -6.9777   -1.0335    0.2485 N   0  0  0  0  0  0  0  0  0  0  0  0
   -4.7832   -1.6181   -0.6210 N   0  0  0  0  0  0  0  0  0  0  0  0
   -3.5277   -1.3759   -0.7594 C   0  0  0  0  0  0  0  0  0  0  0  0
   -2.7094   -2.2942   -1.4854 N   0  0  0  0  0  0  0  0  0  0  0  0
   -2.8669   -0.2411   -0.2051 N   0  0  0  0  0  0  0  0  0  0  0  0
   -1.4593   -0.1086   -0.3140 C   0  0  0  0  0  0  0  0  0  0  0  0
   -0.8541    0.5939   -1.3311 C   0  0  0  0  0  0  0  0  0  0  0  0
    0.5310    0.7054   -1.4148 C   0  0  0  0  0  0  0  0  0  0  0  0
    1.3258    0.1060   -0.4690 C   0  0  0  0  0  0  0  0  0  0  0  0
    2.6960    0.2038   -0.5332 O   0  0  0  0  0  0  0  0  0  0  0  0
    3.4627   -0.4302    0.4621 C   0  0  0  0  0  0  0  0  0  0  0  0
    4.8875   -0.1836    0.1916 C   0  0  0  0  0  0  0  0  0  0  0  0
    5.6402   -1.1997   -0.3595 C   0  0  0  0  0  0  0  0  0  0  0  0
    6.9817   -0.9137   -0.5923 C   0  0  0  0  0  0  0  0  0  0  0  0
    7.5027    0.3187   -0.2819 C   0  0  0  0  0  0  0  0  0  0  0  0
    6.7378    1.3199    0.2673 C   0  0  0  0  0  0  0  0  0  0  0  0
    5.4014    1.0577    0.5075 C   0  0  0  0  0  0  0  0  0  0  0  0
    4.4079    2.3183    1.2088 Cl  0  0  0  0  0  0  0  0  0  0  0  0
    0.7411   -0.5990    0.5522 C   0  0  0  0  0  0  0  0  0  0  0  0
   -0.6318   -0.7015    0.6245 C   0  0  0  0  0  0  0  0  0  0  0  0
   -3.7043    1.6381   -1.5060 H   0  0  0  0  0  0  0  0  0  0  0  0
   -4.5108    2.6512   -0.2262 H   0  0  0  0  0  0  0  0  0  0  0  0
   -2.7340    2.5596   -0.2845 H   0  0  0  0  0  0  0  0  0  0  0  0
   -2.6561    2.1399    1.7696 H   0  0  0  0  0  0  0  0  0  0  0  0
   -4.0403    1.3155    2.5410 H   0  0  0  0  0  0  0  0  0  0  0  0
   -2.5144    0.4306    2.2600 H   0  0  0  0  0  0  0  0  0  0  0  0
   -7.3154   -1.4006    1.1599 H   0  0  0  0  0  0  0  0  0  0  0  0
   -7.6505   -0.9111   -0.5278 H   0  0  0  0  0  0  0  0  0  0  0  0
   -2.2846   -1.9336   -2.3683 H   0  0  0  0  0  0  0  0  0  0  0  0
   -2.5593   -3.2557   -1.1401 H   0  0  0  0  0  0  0  0  0  0  0  0
   -1.4430    1.0672   -2.0754 H   0  0  0  0  0  0  0  0  0  0  0  0
    0.9372    1.2714   -2.2395 H   0  0  0  0  0  0  0  0  0  0  0  0
    3.1571   -0.0377    1.4711 H   0  0  0  0  0  0  0  0  0  0  0  0
    3.2298   -1.5306    0.5295 H   0  0  0  0  0  0  0  0  0  0  0  0
    5.2279   -2.1770   -0.6068 H   0  0  0  0  0  0  0  0  0  0  0  0
    7.5901   -1.6883   -1.0226 H   0  0  0  0  0  0  0  0  0  0  0  0
    8.5486    0.5113   -0.4742 H   0  0  0  0  0  0  0  0  0  0  0  0
    7.1706    2.2749    0.5011 H   0  0  0  0  0  0  0  0  0  0  0  0
    1.3768   -1.0612    1.2814 H   0  0  0  0  0  0  0  0  0  0  0  0
   -1.0842   -1.2610    1.4247 H   0  0  0  0  0  0  0  0  0  0  0  0
  1  2  1  0
  2  3  1  0
  2  4  1  0
  4  5  2  0
  5  6  1  0
  5  7  1  0
  7  8  2  0
  8  9  1  0
  8 10  1  0
 10 11  1  0
 11 12  2  0
 12 13  1  0
 13 14  2  0
 14 15  1  0
 15 16  1  0
 16 17  1  0
 17 18  2  0
 18 19  1  0
 19 20  2  0
 20 21  1  0
 21 22  2  0
 22 23  1  0
 14 24  1  0
 24 25  2  0
 10  2  1  0
 25 11  1  0
 22 17  1  0
  1 26  1  0
  1 27  1  0
  1 28  1  0
  3 29  1  0
  3 30  1  0
  3 31  1  0
  6 32  1  0
  6 33  1  0
  9 34  1  0
  9 35  1  0
 12 36  1  0
 13 37  1  0
 16 38  1  0
 16 39  1  0
 18 40  1  0
 19 41  1  0
 20 42  1  0
 21 43  1  0
 24 44  1  0
 25 45  1  0
M  END
$$$$
