@<TRIPOS>MOLECULE
*****
 45 47 0 0 0
SMALL
GASTEIGER

@<TRIPOS>ATOM
      1 C          -3.6729    1.9664   -0.4360 C.3     1  UNL1        0.0067
      2 C          -3.6954    0.7318    0.4755 C.3     1  UNL1        0.2351
      3 C          -3.1966    1.1549    1.8132 C.3     1  UNL1        0.0067
      4 N          -5.0755    0.3326    0.5871 N.2     1  UNL1       -0.0704
      5 C          -5.6068   -0.7136    0.0952 C.cat   1  UNL1        0.4197
      6 N          -6.9777   -1.0335    0.2485 N.pl3   1  UNL1       -0.2468
      7 N          -4.7832   -1.6181   -0.6210 N.2     1  UNL1       -0.0088
      8 C          -3.5277   -1.3759   -0.7594 C.cat   1  UNL1        0.3829
      9 N          -2.7094   -2.2942   -1.4854 N.pl3   1  UNL1       -0.2507
     10 N          -2.8669   -0.2411   -0.2051 N.pl3   1  UNL1       -0.1537
     11 C          -1.4593   -0.1086   -0.3140 C.ar    1  UNL1        0.0983
     12 C          -0.8541    0.5939   -1.3311 C.ar    1  UNL1       -0.0215
     13 C           0.5310    0.7054   -1.4148 C.ar    1  UNL1       -0.0168
     14 C           1.3258    0.1060   -0.4690 C.ar    1  UNL1        0.1212
     15 O           2.6960    0.2038   -0.5332 O.3     1  UNL1       -0.4873
     16 C           3.4627   -0.4302    0.4621 C.3     1  UNL1        0.1160
     17 C           4.8875   -0.1836    0.1916 C.ar    1  UNL1        0.0079
     18 C           5.6402   -1.1997   -0.3595 C.ar    1  UNL1       -0.0540
     19 C           6.9817   -0.9137   -0.5923 C.ar    1  UNL1       -0.0613
     20 C           7.5027    0.3187   -0.2819 C.ar    1  UNL1       -0.0604
     21 C           6.7378    1.3199    0.2673 C.ar    1  UNL1       -0.0430
     22 C           5.4014    1.0577    0.5075 C.ar    1  UNL1        0.0474
     23 CL          4.4079    2.3183    1.2088 Cl      1  UNL1       -0.0831
     24 C           0.7411   -0.5990    0.5522 C.ar    1  UNL1       -0.0168
     25 C          -0.6318   -0.7015    0.6245 C.ar    1  UNL1       -0.0215
     26 H          -3.7043    1.6381   -1.5060 H       1  UNL1        0.0299
     27 H          -4.5108    2.6512   -0.2262 H       1  UNL1        0.0299
     28 H          -2.7340    2.5596   -0.2845 H       1  UNL1        0.0299
     29 H          -2.6561    2.1399    1.7696 H       1  UNL1        0.0299
     30 H          -4.0403    1.3155    2.5410 H       1  UNL1        0.0299
     31 H          -2.5144    0.4306    2.2600 H       1  UNL1        0.0299
     32 H          -7.3154   -1.4006    1.1599 H       1  UNL1        0.2415
     33 H          -7.6505   -0.9111   -0.5278 H       1  UNL1        0.2415
     34 H          -2.2846   -1.9336   -2.3683 H       1  UNL1        0.2412
     35 H          -2.5593   -3.2557   -1.1401 H       1  UNL1        0.2412
     36 H          -1.4430    1.0672   -2.0754 H       1  UNL1        0.0651
     37 H           0.9372    1.2714   -2.2395 H       1  UNL1        0.0655
     38 H           3.1571   -0.0377    1.4711 H       1  UNL1        0.0748
     39 H           3.2298   -1.5306    0.5295 H       1  UNL1        0.0748
     40 H           5.2279   -2.1770   -0.6068 H       1  UNL1        0.0622
     41 H           7.5901   -1.6883   -1.0226 H       1  UNL1        0.0618
     42 H           8.5486    0.5113   -0.4742 H       1  UNL1        0.0618
     43 H           7.1706    2.2749    0.5011 H       1  UNL1        0.0632
     44 H           1.3768   -1.0612    1.2814 H       1  UNL1        0.0655
     45 H          -1.0842   -1.2610    1.4247 H       1  UNL1        0.0651
@<TRIPOS>BOND
     1     1     2    1
     2     2     3    1
     3     2     4    1
     4     4     5    2
     5     5     6    1
     6     5     7    1
     7     7     8    2
     8     8     9    1
     9     8    10    1
    10    10    11    1
    11    11    12   ar
    12    12    13   ar
    13    13    14   ar
    14    14    15    1
    15    15    16    1
    16    16    17    1
    17    17    18   ar
    18    18    19   ar
    19    19    20   ar
    20    20    21   ar
    21    21    22   ar
    22    22    23    1
    23    14    24   ar
    24    24    25   ar
    25    10     2    1
    26    25    11   ar
    27    22    17   ar
    28     1    26    1
    29     1    27    1
    30     1    28    1
    31     3    29    1
    32     3    30    1
    33     3    31    1
    34     6    32    1
    35     6    33    1
    36     9    34    1
    37     9    35    1
    38    12    36    1
    39    13    37    1
    40    16    38    1
    41    16    39    1
    42    18    40    1
    43    19    41    1
    44    20    42    1
    45    21    43    1
    46    24    44    1
    47    25    45    1
