@<TRIPOS>MOLECULE
*****
 117 125 0 0 0
SMALL
GASTEIGER

@<TRIPOS>ATOM
      1 C           4.4982    5.1340    2.7342 C.3     1  UNL1       -0.0626
      2 C           3.7788    3.9199    3.2654 C.3     1  UNL1       -0.0256
      3 C           3.5289    2.8951    2.1734 C.3     1  UNL1        0.0788
      4 O           2.7362    3.5604    1.2080 O.3     1  UNL1       -0.3873
      5 C           2.7252    1.7989    2.7308 C.3     1  UNL1       -0.0188
      6 C           2.9987    0.4045    2.1187 C.3     1  UNL1       -0.0239
      7 C           4.5444    0.3166    2.2508 C.3     1  UNL1        0.0020
      8 N           4.9373    1.1518    1.2161 N.3     1  UNL1       -0.2990
      9 C           5.4844    0.7948    0.0197 C.3     1  UNL1        0.0031
     10 C           5.7564   -0.5505   -0.3736 C.3     1  UNL1       -0.0126
     11 C           4.7137   -1.5790   -0.5340 C.ar    1  UNL1       -0.0165
     12 C           3.3911   -1.5873   -0.4887 C.ar    1  UNL1        0.0418
     13 N           2.9794   -2.8634   -0.7558 N.ar    1  UNL1       -0.3565
     14 C           4.0161   -3.6769   -0.9697 C.ar    1  UNL1        0.0470
     15 C           4.1057   -5.0370   -1.2686 C.ar    1  UNL1       -0.0378
     16 C           5.3137   -5.6275   -1.4373 C.ar    1  UNL1       -0.0598
     17 C           6.4479   -4.8784   -1.3125 C.ar    1  UNL1       -0.0611
     18 C           6.3420   -3.5363   -1.0171 C.ar    1  UNL1       -0.0523
     19 C           5.1026   -2.9106   -0.8394 C.ar    1  UNL1        0.0032
     20 C           2.3809   -0.5411   -0.2091 C.3     1  UNL1        0.1360
     21 C           2.3359    0.1321   -1.6032 C.2     1  UNL1        0.3235
     22 O           2.5421    1.3358   -1.7555 O.2     1  UNL1       -0.2494
     23 O           2.0535   -0.6811   -2.6822 O.3     1  UNL1       -0.4670
     24 C           1.9848   -0.1943   -3.9975 C.3     1  UNL1        0.0817
     25 C           0.9889   -1.0461   -0.0871 C.ar    1  UNL1        0.0172
     26 C          -0.0696   -0.6158   -0.8863 C.ar    1  UNL1       -0.0481
     27 C          -1.3593   -1.0808   -0.7600 C.ar    1  UNL1       -0.0162
     28 C          -1.6259   -2.0086    0.1915 C.ar    1  UNL1        0.0372
     29 C          -0.6410   -2.4765    1.0111 C.ar    1  UNL1        0.0017
     30 C           0.6559   -1.9913    0.8639 C.ar    1  UNL1        0.1265
     31 O           1.6053   -2.4875    1.7015 O.3     1  UNL1       -0.4947
     32 C           1.2894   -3.4476    2.6777 C.3     1  UNL1        0.0788
     33 N          -3.0000   -2.3185    0.1092 N.pl3   1  UNL1       -0.3252
     34 C          -3.6289   -3.4401    0.7678 C.3     1  UNL1        0.0011
     35 C          -3.6844   -1.3458   -0.7398 C.3     1  UNL1        0.0772
     36 C          -4.5906   -0.4972    0.0218 C.3     1  UNL1        0.2195
     37 O          -5.9200   -0.6225   -0.4410 O.3     1  UNL1       -0.3733
     38 C          -4.6366   -0.9131    1.4567 C.2     1  UNL1        0.3446
     39 O          -3.5392   -0.8435    2.0921 O.2     1  UNL1       -0.2474
     40 O          -5.7619   -1.3510    2.0987 O.3     1  UNL1       -0.4658
     41 C          -5.8137   -1.7444    3.4473 C.3     1  UNL1        0.0818
     42 C          -4.2930    0.9950    0.0480 C.3     1  UNL1        0.1542
     43 O          -5.5454    1.6165    0.3167 O.3     1  UNL1       -0.4570
     44 C          -5.8889    2.2528    1.4735 C.2     1  UNL1        0.3043
     45 C          -7.2378    2.8521    1.6037 C.3     1  UNL1        0.0332
     46 O          -5.0591    2.3180    2.4019 O.2     1  UNL1       -0.2512
     47 C          -3.7520    1.5203   -1.2192 C.3     1  UNL1        0.0453
     48 C          -3.1537    2.8951   -0.9753 C.3     1  UNL1       -0.0418
     49 C          -4.0954    3.9435   -0.5047 C.3     1  UNL1       -0.0643
     50 C          -4.9559    1.6888   -2.1248 C.2     1  UNL1       -0.0755
     51 C          -4.7626    1.7963   -3.4008 C.2     1  UNL1       -0.0733
     52 C          -3.3911    1.7518   -3.9384 C.3     1  UNL1        0.0175
     53 N          -2.5255    0.8698   -3.2556 N.3     1  UNL1       -0.2939
     54 C          -2.5307   -0.4127   -3.9128 C.3     1  UNL1        0.0005
     55 C          -2.4550   -1.4585   -2.8623 C.3     1  UNL1       -0.0272
     56 C          -2.6087   -0.7347   -1.5258 C.3     1  UNL1        0.0369
     57 C          -2.6662    0.6906   -1.8558 C.3     1  UNL1        0.0348
     58 C           2.5921    0.5193    0.7128 C.3     1  UNL1       -0.0234
     59 C           4.8685    2.5139    1.5938 C.3     1  UNL1        0.0278
     60 H           5.4826    5.3141    3.2145 H       1  UNL1        0.0231
     61 H           4.6898    5.0759    1.6439 H       1  UNL1        0.0231
     62 H           3.8968    6.0566    2.8831 H       1  UNL1        0.0231
     63 H           4.4593    3.4745    4.0493 H       1  UNL1        0.0291
     64 H           2.8657    4.2030    3.8025 H       1  UNL1        0.0291
     65 H           3.3218    3.9402    0.5289 H       1  UNL1        0.2102
     66 H           2.8970    1.6681    3.8368 H       1  UNL1        0.0296
     67 H           1.6298    1.9478    2.6173 H       1  UNL1        0.0296
     68 H           2.4957   -0.2754    2.7800 H       1  UNL1        0.0314
     69 H           4.8422    0.7737    3.2202 H       1  UNL1        0.0429
     70 H           4.8887   -0.7018    2.2937 H       1  UNL1        0.0429
     71 H           6.5379    1.3026    0.0611 H       1  UNL1        0.0430
     72 H           5.1336    1.3672   -0.9060 H       1  UNL1        0.0430
     73 H           6.4088   -0.4965   -1.3172 H       1  UNL1        0.0326
     74 H           6.5499   -0.9362    0.3639 H       1  UNL1        0.0326
     75 H           1.9912   -3.2534   -0.8227 H       1  UNL1        0.1656
     76 H           3.1770   -5.5741   -1.3542 H       1  UNL1        0.0638
     77 H           5.3446   -6.7046   -1.6709 H       1  UNL1        0.0618
     78 H           7.4083   -5.3287   -1.4439 H       1  UNL1        0.0618
     79 H           7.2480   -2.9751   -0.9251 H       1  UNL1        0.0624
     80 H           2.4157   -0.9958   -4.6660 H       1  UNL1        0.0661
     81 H           0.9578   -0.0170   -4.3471 H       1  UNL1        0.0661
     82 H           2.6518    0.6836   -4.1543 H       1  UNL1        0.0661
     83 H           0.1742    0.1413   -1.6459 H       1  UNL1        0.0625
     84 H          -0.8540   -3.2297    1.7882 H       1  UNL1        0.0673
     85 H           0.5485   -3.0721    3.4149 H       1  UNL1        0.0660
     86 H           2.2343   -3.7821    3.2033 H       1  UNL1        0.0660
     87 H           0.8233   -4.3138    2.1644 H       1  UNL1        0.0660
     88 H          -4.7342   -3.4394    0.6360 H       1  UNL1        0.0428
     89 H          -3.2934   -4.4012    0.2752 H       1  UNL1        0.0428
     90 H          -3.3353   -3.5636    1.8296 H       1  UNL1        0.0428
     91 H          -4.3011   -2.0101   -1.4225 H       1  UNL1        0.0544
     92 H          -5.9596   -1.4941   -0.9069 H       1  UNL1        0.2111
     93 H          -4.8866   -1.5035    4.0127 H       1  UNL1        0.0661
     94 H          -6.7068   -1.2653    3.9343 H       1  UNL1        0.0661
     95 H          -5.9519   -2.8553    3.4791 H       1  UNL1        0.0661
     96 H          -3.6272    1.2091    0.9025 H       1  UNL1        0.0779
     97 H          -7.5119    3.3643    0.6350 H       1  UNL1        0.0342
     98 H          -7.3135    3.6115    2.3852 H       1  UNL1        0.0342
     99 H          -8.0185    2.0451    1.6986 H       1  UNL1        0.0342
    100 H          -2.5275    3.2372   -1.8531 H       1  UNL1        0.0273
    101 H          -2.3592    2.8218   -0.1607 H       1  UNL1        0.0273
    102 H          -5.1178    3.7088   -0.7981 H       1  UNL1        0.0230
    103 H          -4.0234    4.1381    0.5828 H       1  UNL1        0.0230
    104 H          -3.7841    4.9546   -0.9506 H       1  UNL1        0.0230
    105 H          -5.9709    1.7229   -1.7406 H       1  UNL1        0.0577
    106 H          -5.5996    1.9218   -4.0972 H       1  UNL1        0.0582
    107 H          -3.4889    1.3602   -5.0020 H       1  UNL1        0.0470
    108 H          -2.9678    2.7840   -4.1325 H       1  UNL1        0.0470
    109 H          -1.7690   -0.5004   -4.7137 H       1  UNL1        0.0427
    110 H          -3.5125   -0.5613   -4.4554 H       1  UNL1        0.0427
    111 H          -1.4840   -1.9732   -2.9669 H       1  UNL1        0.0287
    112 H          -3.2281   -2.2543   -2.9669 H       1  UNL1        0.0287
    113 H          -1.6988    1.1434   -1.4346 H       1  UNL1        0.0482
    114 H           3.1463    1.3981    0.2658 H       1  UNL1        0.0286
    115 H           1.5583    1.0600    0.8074 H       1  UNL1        0.0286
    116 H           5.7149    2.7334    2.2766 H       1  UNL1        0.0455
    117 H           5.0259    3.1467    0.6951 H       1  UNL1        0.0455
@<TRIPOS>BOND
     1     1     2    1
     2     2     3    1
     3     3     4    1
     4     3     5    1
     5     5     6    1
     6     6     7    1
     7     7     8    1
     8     8     9    1
     9     9    10    1
    10    10    11    1
    11    11    12   ar
    12    12    13   ar
    13    13    14   ar
    14    14    15   ar
    15    15    16   ar
    16    16    17   ar
    17    17    18   ar
    18    18    19   ar
    19    12    20    1
    20    20    21    1
    21    21    22    2
    22    21    23    1
    23    23    24    1
    24    20    25    1
    25    25    26   ar
    26    26    27   ar
    27    27    28   ar
    28    28    29   ar
    29    29    30   ar
    30    30    31    1
    31    31    32    1
    32    28    33    1
    33    33    34    1
    34    33    35    1
    35    35    36    1
    36    36    37    1
    37    36    38    1
    38    38    39    2
    39    38    40    1
    40    40    41    1
    41    36    42    1
    42    42    43    1
    43    43    44    1
    44    44    45    1
    45    44    46    2
    46    42    47    1
    47    47    48    1
    48    48    49    1
    49    47    50    1
    50    50    51    2
    51    51    52    1
    52    52    53    1
    53    53    54    1
    54    54    55    1
    55    56    55    1
    56    56    57    1
    57    20    58    1
    58     8    59    1
    59    59     3    1
    60    58     6    1
    61    19    11   ar
    62    30    25   ar
    63    56    35    1
    64    19    14   ar
    65    56    27    1
    66    57    47    1
    67    57    53    1
    68     1    60    1
    69     1    61    1
    70     1    62    1
    71     2    63    1
    72     2    64    1
    73     4    65    1
    74     5    66    1
    75     5    67    1
    76     6    68    1
    77     7    69    1
    78     7    70    1
    79     9    71    1
    80     9    72    1
    81    10    73    1
    82    10    74    1
    83    13    75    1
    84    15    76    1
    85    16    77    1
    86    17    78    1
    87    18    79    1
    88    24    80    1
    89    24    81    1
    90    24    82    1
    91    26    83    1
    92    29    84    1
    93    32    85    1
    94    32    86    1
    95    32    87    1
    96    34    88    1
    97    34    89    1
    98    34    90    1
    99    35    91    1
   100    37    92    1
   101    41    93    1
   102    41    94    1
   103    41    95    1
   104    42    96    1
   105    45    97    1
   106    45    98    1
   107    45    99    1
   108    48   100    1
   109    48   101    1
   110    49   102    1
   111    49   103    1
   112    49   104    1
   113    50   105    1
   114    51   106    1
   115    52   107    1
   116    52   108    1
   117    54   109    1
   118    54   110    1
   119    55   111    1
   120    55   112    1
   121    57   113    1
   122    58   114    1
   123    58   115    1
   124    59   116    1
   125    59   117    1
