
     RDKit          3D

117125  0  0  0  0  0  0  0  0999 V2000
    4.4982    5.1340    2.7342 C   0  0  0  0  0  0  0  0  0  0  0  0
    3.7788    3.9199    3.2654 C   0  0  0  0  0  0  0  0  0  0  0  0
    3.5289    2.8951    2.1734 C   0  0  2  0  0  0  0  0  0  0  0  0
    2.7362    3.5604    1.2080 O   0  0  0  0  0  0  0  0  0  0  0  0
    2.7252    1.7989    2.7308 C   0  0  0  0  0  0  0  0  0  0  0  0
    2.9987    0.4045    2.1187 C   0  0  2  0  0  0  0  0  0  0  0  0
    4.5444    0.3166    2.2508 C   0  0  0  0  0  0  0  0  0  0  0  0
    4.9373    1.1518    1.2161 N   0  0  0  0  0  0  0  0  0  0  0  0
    5.4844    0.7948    0.0197 C   0  0  0  0  0  0  0  0  0  0  0  0
    5.7564   -0.5505   -0.3736 C   0  0  0  0  0  0  0  0  0  0  0  0
    4.7137   -1.5790   -0.5340 C   0  0  0  0  0  0  0  0  0  0  0  0
    3.3911   -1.5873   -0.4887 C   0  0  0  0  0  0  0  0  0  0  0  0
    2.9794   -2.8634   -0.7558 N   0  0  0  0  0  0  0  0  0  0  0  0
    4.0161   -3.6769   -0.9697 C   0  0  0  0  0  0  0  0  0  0  0  0
    4.1057   -5.0370   -1.2686 C   0  0  0  0  0  0  0  0  0  0  0  0
    5.3137   -5.6275   -1.4373 C   0  0  0  0  0  0  0  0  0  0  0  0
    6.4479   -4.8784   -1.3125 C   0  0  0  0  0  0  0  0  0  0  0  0
    6.3420   -3.5363   -1.0171 C   0  0  0  0  0  0  0  0  0  0  0  0
    5.1026   -2.9106   -0.8394 C   0  0  0  0  0  0  0  0  0  0  0  0
    2.3809   -0.5411   -0.2091 C   0  0  1  0  0  0  0  0  0  0  0  0
    2.3359    0.1321   -1.6032 C   0  0  0  0  0  0  0  0  0  0  0  0
    2.5421    1.3358   -1.7555 O   0  0  0  0  0  0  0  0  0  0  0  0
    2.0535   -0.6811   -2.6822 O   0  0  0  0  0  0  0  0  0  0  0  0
    1.9848   -0.1943   -3.9975 C   0  0  0  0  0  0  0  0  0  0  0  0
    0.9889   -1.0461   -0.0871 C   0  0  0  0  0  0  0  0  0  0  0  0
   -0.0696   -0.6158   -0.8863 C   0  0  0  0  0  0  0  0  0  0  0  0
   -1.3593   -1.0808   -0.7600 C   0  0  0  0  0  0  0  0  0  0  0  0
   -1.6259   -2.0086    0.1915 C   0  0  0  0  0  0  0  0  0  0  0  0
   -0.6410   -2.4765    1.0111 C   0  0  0  0  0  0  0  0  0  0  0  0
    0.6559   -1.9913    0.8639 C   0  0  0  0  0  0  0  0  0  0  0  0
    1.6053   -2.4875    1.7015 O   0  0  0  0  0  0  0  0  0  0  0  0
    1.2894   -3.4476    2.6777 C   0  0  0  0  0  0  0  0  0  0  0  0
   -3.0000   -2.3185    0.1092 N   0  0  0  0  0  0  0  0  0  0  0  0
   -3.6289   -3.4401    0.7678 C   0  0  0  0  0  0  0  0  0  0  0  0
   -3.6844   -1.3458   -0.7398 C   0  0  1  0  0  0  0  0  0  0  0  0
   -4.5906   -0.4972    0.0218 C   0  0  1  0  0  0  0  0  0  0  0  0
   -5.9200   -0.6225   -0.4410 O   0  0  0  0  0  0  0  0  0  0  0  0
   -4.6366   -0.9131    1.4567 C   0  0  0  0  0  0  0  0  0  0  0  0
   -3.5392   -0.8435    2.0921 O   0  0  0  0  0  0  0  0  0  0  0  0
   -5.7619   -1.3510    2.0987 O   0  0  0  0  0  0  0  0  0  0  0  0
   -5.8137   -1.7444    3.4473 C   0  0  0  0  0  0  0  0  0  0  0  0
   -4.2930    0.9950    0.0480 C   0  0  2  0  0  0  0  0  0  0  0  0
   -5.5454    1.6165    0.3167 O   0  0  0  0  0  0  0  0  0  0  0  0
   -5.8889    2.2528    1.4735 C   0  0  0  0  0  0  0  0  0  0  0  0
   -7.2378    2.8521    1.6037 C   0  0  0  0  0  0  0  0  0  0  0  0
   -5.0591    2.3180    2.4019 O   0  0  0  0  0  0  0  0  0  0  0  0
   -3.7520    1.5203   -1.2192 C   0  0  2  0  0  0  0  0  0  0  0  0
   -3.1537    2.8951   -0.9753 C   0  0  0  0  0  0  0  0  0  0  0  0
   -4.0954    3.9435   -0.5047 C   0  0  0  0  0  0  0  0  0  0  0  0
   -4.9559    1.6888   -2.1248 C   0  0  0  0  0  0  0  0  0  0  0  0
   -4.7626    1.7963   -3.4008 C   0  0  0  0  0  0  0  0  0  0  0  0
   -3.3911    1.7518   -3.9384 C   0  0  0  0  0  0  0  0  0  0  0  0
   -2.5255    0.8698   -3.2556 N   0  0  0  0  0  0  0  0  0  0  0  0
   -2.5307   -0.4127   -3.9128 C   0  0  0  0  0  0  0  0  0  0  0  0
   -2.4550   -1.4585   -2.8623 C   0  0  0  0  0  0  0  0  0  0  0  0
   -2.6087   -0.7347   -1.5258 C   0  0  2  0  0  0  0  0  0  0  0  0
   -2.6662    0.6906   -1.8558 C   0  0  2  0  0  0  0  0  0  0  0  0
    2.5921    0.5193    0.7128 C   0  0  0  0  0  0  0  0  0  0  0  0
    4.8685    2.5139    1.5938 C   0  0  0  0  0  0  0  0  0  0  0  0
    5.4826    5.3141    3.2145 H   0  0  0  0  0  0  0  0  0  0  0  0
    4.6898    5.0759    1.6439 H   0  0  0  0  0  0  0  0  0  0  0  0
    3.8968    6.0566    2.8831 H   0  0  0  0  0  0  0  0  0  0  0  0
    4.4593    3.4745    4.0493 H   0  0  0  0  0  0  0  0  0  0  0  0
    2.8657    4.2030    3.8025 H   0  0  0  0  0  0  0  0  0  0  0  0
    3.3218    3.9402    0.5289 H   0  0  0  0  0  0  0  0  0  0  0  0
    2.8970    1.6681    3.8368 H   0  0  0  0  0  0  0  0  0  0  0  0
    1.6298    1.9478    2.6173 H   0  0  0  0  0  0  0  0  0  0  0  0
    2.4957   -0.2754    2.7800 H   0  0  0  0  0  0  0  0  0  0  0  0
    4.8422    0.7737    3.2202 H   0  0  0  0  0  0  0  0  0  0  0  0
    4.8887   -0.7018    2.2937 H   0  0  0  0  0  0  0  0  0  0  0  0
    6.5379    1.3026    0.0611 H   0  0  0  0  0  0  0  0  0  0  0  0
    5.1336    1.3672   -0.9060 H   0  0  0  0  0  0  0  0  0  0  0  0
    6.4088   -0.4965   -1.3172 H   0  0  0  0  0  0  0  0  0  0  0  0
    6.5499   -0.9362    0.3639 H   0  0  0  0  0  0  0  0  0  0  0  0
    1.9912   -3.2534   -0.8227 H   0  0  0  0  0  0  0  0  0  0  0  0
    3.1770   -5.5741   -1.3542 H   0  0  0  0  0  0  0  0  0  0  0  0
    5.3446   -6.7046   -1.6709 H   0  0  0  0  0  0  0  0  0  0  0  0
    7.4083   -5.3287   -1.4439 H   0  0  0  0  0  0  0  0  0  0  0  0
    7.2480   -2.9751   -0.9251 H   0  0  0  0  0  0  0  0  0  0  0  0
    2.4157   -0.9958   -4.6660 H   0  0  0  0  0  0  0  0  0  0  0  0
    0.9578   -0.0170   -4.3471 H   0  0  0  0  0  0  0  0  0  0  0  0
    2.6518    0.6836   -4.1543 H   0  0  0  0  0  0  0  0  0  0  0  0
    0.1742    0.1413   -1.6459 H   0  0  0  0  0  0  0  0  0  0  0  0
   -0.8540   -3.2297    1.7882 H   0  0  0  0  0  0  0  0  0  0  0  0
    0.5485   -3.0721    3.4149 H   0  0  0  0  0  0  0  0  0  0  0  0
    2.2343   -3.7821    3.2033 H   0  0  0  0  0  0  0  0  0  0  0  0
    0.8233   -4.3138    2.1644 H   0  0  0  0  0  0  0  0  0  0  0  0
   -4.7342   -3.4394    0.6360 H   0  0  0  0  0  0  0  0  0  0  0  0
   -3.2934   -4.4012    0.2752 H   0  0  0  0  0  0  0  0  0  0  0  0
   -3.3353   -3.5636    1.8296 H   0  0  0  0  0  0  0  0  0  0  0  0
   -4.3011   -2.0101   -1.4225 H   0  0  0  0  0  0  0  0  0  0  0  0
   -5.9596   -1.4941   -0.9069 H   0  0  0  0  0  0  0  0  0  0  0  0
   -4.8866   -1.5035    4.0127 H   0  0  0  0  0  0  0  0  0  0  0  0
   -6.7068   -1.2653    3.9343 H   0  0  0  0  0  0  0  0  0  0  0  0
   -5.9519   -2.8553    3.4791 H   0  0  0  0  0  0  0  0  0  0  0  0
   -3.6272    1.2091    0.9025 H   0  0  0  0  0  0  0  0  0  0  0  0
   -7.5119    3.3643    0.6350 H   0  0  0  0  0  0  0  0  0  0  0  0
   -7.3135    3.6115    2.3852 H   0  0  0  0  0  0  0  0  0  0  0  0
   -8.0185    2.0451    1.6986 H   0  0  0  0  0  0  0  0  0  0  0  0
   -2.5275    3.2372   -1.8531 H   0  0  0  0  0  0  0  0  0  0  0  0
   -2.3592    2.8218   -0.1607 H   0  0  0  0  0  0  0  0  0  0  0  0
   -5.1178    3.7088   -0.7981 H   0  0  0  0  0  0  0  0  0  0  0  0
   -4.0234    4.1381    0.5828 H   0  0  0  0  0  0  0  0  0  0  0  0
   -3.7841    4.9546   -0.9506 H   0  0  0  0  0  0  0  0  0  0  0  0
   -5.9709    1.7229   -1.7406 H   0  0  0  0  0  0  0  0  0  0  0  0
   -5.5996    1.9218   -4.0972 H   0  0  0  0  0  0  0  0  0  0  0  0
   -3.4889    1.3602   -5.0020 H   0  0  0  0  0  0  0  0  0  0  0  0
   -2.9678    2.7840   -4.1325 H   0  0  0  0  0  0  0  0  0  0  0  0
   -1.7690   -0.5004   -4.7137 H   0  0  0  0  0  0  0  0  0  0  0  0
   -3.5125   -0.5613   -4.4554 H   0  0  0  0  0  0  0  0  0  0  0  0
   -1.4840   -1.9732   -2.9669 H   0  0  0  0  0  0  0  0  0  0  0  0
   -3.2281   -2.2543   -2.9669 H   0  0  0  0  0  0  0  0  0  0  0  0
   -1.6988    1.1434   -1.4346 H   0  0  0  0  0  0  0  0  0  0  0  0
    3.1463    1.3981    0.2658 H   0  0  0  0  0  0  0  0  0  0  0  0
    1.5583    1.0600    0.8074 H   0  0  0  0  0  0  0  0  0  0  0  0
    5.7149    2.7334    2.2766 H   0  0  0  0  0  0  0  0  0  0  0  0
    5.0259    3.1467    0.6951 H   0  0  0  0  0  0  0  0  0  0  0  0
  1  2  1  0
  2  3  1  0
  3  4  1  6
  3  5  1  0
  5  6  1  0
  6  7  1  0
  7  8  1  0
  8  9  1  0
  9 10  1  0
 10 11  1  0
 11 12  2  0
 12 13  1  0
 13 14  1  0
 14 15  2  0
 15 16  1  0
 16 17  2  0
 17 18  1  0
 18 19  2  0
 12 20  1  0
 20 21  1  6
 21 22  2  0
 21 23  1  0
 23 24  1  0
 20 25  1  0
 25 26  2  0
 26 27  1  0
 27 28  2  0
 28 29  1  0
 29 30  2  0
 30 31  1  0
 31 32  1  0
 28 33  1  0
 33 34  1  0
 33 35  1  0
 35 36  1  0
 36 37  1  6
 36 38  1  0
 38 39  2  0
 38 40  1  0
 40 41  1  0
 36 42  1  0
 42 43  1  0
 43 44  1  0
 44 45  1  0
 44 46  2  0
 42 47  1  0
 47 48  1  1
 48 49  1  0
 47 50  1  0
 50 51  2  0
 51 52  1  0
 52 53  1  0
 53 54  1  0
 54 55  1  0
 56 55  1  6
 56 57  1  0
 20 58  1  0
  8 59  1  0
 59  3  1  0
 58  6  1  0
 19 11  1  0
 30 25  1  0
 56 35  1  0
 19 14  1  0
 56 27  1  0
 57 47  1  0
 57 53  1  0
  1 60  1  0
  1 61  1  0
  1 62  1  0
  2 63  1  0
  2 64  1  0
  4 65  1  0
  5 66  1  0
  5 67  1  0
  6 68  1  1
  7 69  1  0
  7 70  1  0
  9 71  1  0
  9 72  1  0
 10 73  1  0
 10 74  1  0
 13 75  1  0
 15 76  1  0
 16 77  1  0
 17 78  1  0
 18 79  1  0
 24 80  1  0
 24 81  1  0
 24 82  1  0
 26 83  1  0
 29 84  1  0
 32 85  1  0
 32 86  1  0
 32 87  1  0
 34 88  1  0
 34 89  1  0
 34 90  1  0
 35 91  1  6
 37 92  1  0
 41 93  1  0
 41 94  1  0
 41 95  1  0
 42 96  1  1
 45 97  1  0
 45 98  1  0
 45 99  1  0
 48100  1  0
 48101  1  0
 49102  1  0
 49103  1  0
 49104  1  0
 50105  1  0
 51106  1  0
 52107  1  0
 52108  1  0
 54109  1  0
 54110  1  0
 55111  1  0
 55112  1  0
 57113  1  1
 58114  1  0
 58115  1  0
 59116  1  0
 59117  1  0
M  END
$$$$
