@<TRIPOS>MOLECULE
*****
 43 45 0 0 0
SMALL
GASTEIGER

@<TRIPOS>ATOM
      1 C          -5.2146   -0.7986    1.4157 C.3     1  UNL1       -0.0560
      2 C          -4.7762   -0.1766    0.1354 C.3     1  UNL1       -0.0127
      3 C          -5.2093   -0.9441   -1.0828 C.3     1  UNL1       -0.0560
      4 C          -5.2696    1.2506    0.0162 C.3     1  UNL1       -0.0560
      5 C          -3.2788   -0.0816    0.0461 C.ar    1  UNL1       -0.0419
      6 C          -2.5906   -0.5710    1.1308 C.ar    1  UNL1       -0.0570
      7 C          -1.2318   -0.4922    1.0652 C.ar    1  UNL1       -0.0477
      8 C          -0.4577    0.0114    0.0593 C.ar    1  UNL1        0.0128
      9 S           1.2085    0.2709   -0.3648 S.3     1  UNL1       -0.0887
     10 C           2.4646   -0.2018    0.7265 C.ar    1  UNL1        0.0252
     11 C           2.5316   -0.7870    1.9672 C.ar    1  UNL1       -0.0472
     12 C           3.6516   -1.0935    2.6974 C.ar    1  UNL1       -0.0587
     13 C           4.8656   -0.7863    2.1389 C.ar    1  UNL1       -0.0354
     14 C           4.8884   -0.2012    0.9051 C.ar    1  UNL1        0.0789
     15 C           3.7353    0.0898    0.2050 C.ar    1  UNL1        0.0537
     16 C           3.9924    0.6776   -1.0170 C.ar    1  UNL1        0.1301
     17 N           2.8600    1.0234   -1.8313 N.pl3   1  UNL1       -0.3425
     18 N           5.2145    0.9485   -1.4985 N.ar    1  UNL1       -0.1995
     19 C           6.2856    0.6415   -0.7707 C.ar    1  UNL1        0.2148
     20 N           7.5455    0.9563   -1.3420 N.pl3   1  UNL1       -0.3274
     21 N           6.1429    0.0635    0.4392 N.ar    1  UNL1       -0.2145
     22 C          -1.2070    0.5016   -1.0315 C.ar    1  UNL1       -0.0477
     23 C          -2.6123    0.4532   -1.0339 C.ar    1  UNL1       -0.0570
     24 H          -6.3200   -0.8598    1.3933 H       1  UNL1        0.0238
     25 H          -4.8862   -0.1748    2.2541 H       1  UNL1        0.0238
     26 H          -4.7790   -1.8038    1.5203 H       1  UNL1        0.0238
     27 H          -6.1808   -1.4714   -0.9268 H       1  UNL1        0.0238
     28 H          -5.2688   -0.2326   -1.9487 H       1  UNL1        0.0238
     29 H          -4.4242   -1.6859   -1.4053 H       1  UNL1        0.0238
     30 H          -4.6770    1.9347    0.6543 H       1  UNL1        0.0238
     31 H          -5.0828    1.5339   -1.0485 H       1  UNL1        0.0238
     32 H          -6.3616    1.3388    0.1872 H       1  UNL1        0.0238
     33 H          -2.9702   -1.0101    2.0297 H       1  UNL1        0.0621
     34 H          -0.5935   -0.8424    1.8522 H       1  UNL1        0.0629
     35 H           1.5746   -1.0177    2.3832 H       1  UNL1        0.0629
     36 H           3.5242   -1.5515    3.6551 H       1  UNL1        0.0619
     37 H           5.7475   -1.0242    2.7066 H       1  UNL1        0.0639
     38 H           2.7436    0.1236   -2.3869 H       1  UNL1        0.1437
     39 H           2.6772    2.0148   -1.4913 H       1  UNL1        0.1437
     40 H           7.9477    0.5745   -2.2279 H       1  UNL1        0.1452
     41 H           8.0351    1.6429   -0.7411 H       1  UNL1        0.1452
     42 H          -0.9377    0.9685   -1.9975 H       1  UNL1        0.0629
     43 H          -3.3071    0.7883   -1.7931 H       1  UNL1        0.0621
@<TRIPOS>BOND
     1     1     2    1
     2     2     3    1
     3     2     4    1
     4     2     5    1
     5     5     6   ar
     6     6     7   ar
     7     7     8   ar
     8     8     9    1
     9     9    10    1
    10    10    11   ar
    11    11    12   ar
    12    12    13   ar
    13    13    14   ar
    14    14    15   ar
    15    15    16   ar
    16    16    17    1
    17    16    18   ar
    18    18    19   ar
    19    19    20    1
    20    19    21   ar
    21     8    22   ar
    22    22    23   ar
    23    23     5   ar
    24    15    10   ar
    25    21    14   ar
    26     1    24    1
    27     1    25    1
    28     1    26    1
    29     3    27    1
    30     3    28    1
    31     3    29    1
    32     4    30    1
    33     4    31    1
    34     4    32    1
    35     6    33    1
    36     7    34    1
    37    11    35    1
    38    12    36    1
    39    13    37    1
    40    17    38    1
    41    17    39    1
    42    20    40    1
    43    20    41    1
    44    22    42    1
    45    23    43    1
