
     RDKit          3D

 50 53  0  0  0  0  0  0  0  0999 V2000
    1.6813   -1.8664    2.2871 O   0  0  0  0  0  0  0  0  0  0  0  0
    1.6177   -1.1919    1.2274 C   0  0  0  0  0  0  0  0  0  0  0  0
    2.7531   -0.3629    0.7920 C   0  0  0  0  0  0  0  0  0  0  0  0
    3.9148   -0.4447    1.7580 C   0  0  0  0  0  0  0  0  0  0  0  0
    5.0545    0.3894    1.3187 C   0  0  0  0  0  0  0  0  0  0  0  0
    6.0369   -0.1286    0.5046 C   0  0  0  0  0  0  0  0  0  0  0  0
    7.1151    0.6639    0.0904 C   0  0  0  0  0  0  0  0  0  0  0  0
    7.1966    1.9746    0.4996 C   0  0  0  0  0  0  0  0  0  0  0  0
    6.2201    2.5082    1.3155 C   0  0  0  0  0  0  0  0  0  0  0  0
    5.1650    1.7030    1.7103 C   0  0  0  0  0  0  0  0  0  0  0  0
    0.4101   -1.2706    0.4831 N   0  0  0  0  0  0  0  0  0  0  0  0
    0.2234   -0.5303   -0.7650 C   0  0  0  0  0  0  0  0  0  0  0  0
   -0.9843   -1.1125   -1.4641 C   0  0  0  0  0  0  0  0  0  0  0  0
   -2.2598   -0.9039   -0.6716 C   0  0  0  0  0  0  0  0  0  0  0  0
   -3.3624   -1.7356   -1.2323 C   0  0  0  0  0  0  0  0  0  0  0  0
   -4.6319   -1.0593   -1.5289 C   0  0  0  0  0  0  0  0  0  0  0  0
   -4.8338    0.2602   -0.9579 C   0  0  0  0  0  0  0  0  0  0  0  0
   -6.1100    0.7591   -0.8308 C   0  0  0  0  0  0  0  0  0  0  0  0
   -6.3154    2.0217   -0.2855 C   0  0  0  0  0  0  0  0  0  0  0  0
   -7.5713    2.5117   -0.1608 F   0  0  0  0  0  0  0  0  0  0  0  0
   -5.2465    2.7749    0.1277 C   0  0  0  0  0  0  0  0  0  0  0  0
   -3.9591    2.2920    0.0085 C   0  0  0  0  0  0  0  0  0  0  0  0
   -3.7759    1.0265   -0.5396 C   0  0  0  0  0  0  0  0  0  0  0  0
   -2.5225    0.4835   -0.6879 O   0  0  0  0  0  0  0  0  0  0  0  0
   -1.9866   -1.2697    0.7765 C   0  0  0  0  0  0  0  0  0  0  0  0
   -0.7131   -2.0836    0.9060 C   0  0  0  0  0  0  0  0  0  0  0  0
    2.4605    0.6990    0.7327 H   0  0  0  0  0  0  0  0  0  0  0  0
    3.0377   -0.6863   -0.2216 H   0  0  0  0  0  0  0  0  0  0  0  0
    4.2614   -1.4975    1.7626 H   0  0  0  0  0  0  0  0  0  0  0  0
    3.6001   -0.0841    2.7431 H   0  0  0  0  0  0  0  0  0  0  0  0
    5.9908   -1.1526    0.1735 H   0  0  0  0  0  0  0  0  0  0  0  0
    7.8903    0.2655   -0.5483 H   0  0  0  0  0  0  0  0  0  0  0  0
    8.0451    2.5802    0.1674 H   0  0  0  0  0  0  0  0  0  0  0  0
    6.3306    3.5386    1.6073 H   0  0  0  0  0  0  0  0  0  0  0  0
    4.4179    2.1472    2.3472 H   0  0  0  0  0  0  0  0  0  0  0  0
    0.0454    0.5312   -0.5541 H   0  0  0  0  0  0  0  0  0  0  0  0
    1.0760   -0.6225   -1.4417 H   0  0  0  0  0  0  0  0  0  0  0  0
   -1.0349   -0.6306   -2.4664 H   0  0  0  0  0  0  0  0  0  0  0  0
   -0.8293   -2.1990   -1.6671 H   0  0  0  0  0  0  0  0  0  0  0  0
   -2.9985   -2.2553   -2.1672 H   0  0  0  0  0  0  0  0  0  0  0  0
   -3.5514   -2.5834   -0.5167 H   0  0  0  0  0  0  0  0  0  0  0  0
   -5.5077   -1.6997   -1.2072 H   0  0  0  0  0  0  0  0  0  0  0  0
   -4.7844   -0.9669   -2.6463 H   0  0  0  0  0  0  0  0  0  0  0  0
   -6.9743    0.2049   -1.1406 H   0  0  0  0  0  0  0  0  0  0  0  0
   -5.4175    3.7604    0.5524 H   0  0  0  0  0  0  0  0  0  0  0  0
   -3.0921    2.8574    0.3236 H   0  0  0  0  0  0  0  0  0  0  0  0
   -1.9186   -0.3987    1.4298 H   0  0  0  0  0  0  0  0  0  0  0  0
   -2.8114   -1.9099    1.1426 H   0  0  0  0  0  0  0  0  0  0  0  0
   -0.5740   -2.2757    1.9910 H   0  0  0  0  0  0  0  0  0  0  0  0
   -0.7774   -3.0313    0.3460 H   0  0  0  0  0  0  0  0  0  0  0  0
  1  2  2  0
  2  3  1  0
  3  4  1  0
  4  5  1  0
  5  6  2  0
  6  7  1  0
  7  8  2  0
  8  9  1  0
  9 10  2  0
  2 11  1  0
 11 12  1  0
 12 13  1  0
 13 14  1  0
 14 15  1  0
 15 16  1  0
 16 17  1  0
 17 18  2  0
 18 19  1  0
 19 20  1  0
 19 21  2  0
 21 22  1  0
 22 23  2  0
 23 24  1  0
 14 25  1  0
 25 26  1  0
 10  5  1  0
 26 11  1  0
 24 14  1  0
 23 17  1  0
  3 27  1  0
  3 28  1  0
  4 29  1  0
  4 30  1  0
  6 31  1  0
  7 32  1  0
  8 33  1  0
  9 34  1  0
 10 35  1  0
 12 36  1  0
 12 37  1  0
 13 38  1  0
 13 39  1  0
 15 40  1  0
 15 41  1  0
 16 42  1  0
 16 43  1  0
 18 44  1  0
 21 45  1  0
 22 46  1  0
 25 47  1  0
 25 48  1  0
 26 49  1  0
 26 50  1  0
M  END
$$$$
