@<TRIPOS>MOLECULE
*****
 50 53 0 0 0
SMALL
GASTEIGER

@<TRIPOS>ATOM
      1 O           1.6813   -1.8664    2.2871 O.2     1  UNL1       -0.2756
      2 C           1.6177   -1.1919    1.2274 C.2     1  UNL1        0.2159
      3 C           2.7531   -0.3629    0.7920 C.3     1  UNL1        0.0281
      4 C           3.9148   -0.4447    1.7580 C.3     1  UNL1       -0.0194
      5 C           5.0545    0.3894    1.3187 C.ar    1  UNL1       -0.0469
      6 C           6.0369   -0.1286    0.5046 C.ar    1  UNL1       -0.0586
      7 C           7.1151    0.6639    0.0904 C.ar    1  UNL1       -0.0615
      8 C           7.1966    1.9746    0.4996 C.ar    1  UNL1       -0.0617
      9 C           6.2201    2.5082    1.3155 C.ar    1  UNL1       -0.0615
     10 C           5.1650    1.7030    1.7103 C.ar    1  UNL1       -0.0586
     11 N           0.4101   -1.2706    0.4831 N.am    1  UNL1       -0.3012
     12 C           0.2234   -0.5303   -0.7650 C.3     1  UNL1        0.0183
     13 C          -0.9843   -1.1125   -1.4641 C.3     1  UNL1        0.0030
     14 C          -2.2598   -0.9039   -0.6716 C.3     1  UNL1        0.1138
     15 C          -3.3624   -1.7356   -1.2323 C.3     1  UNL1       -0.0087
     16 C          -4.6319   -1.0593   -1.5289 C.3     1  UNL1       -0.0205
     17 C          -4.8338    0.2602   -0.9579 C.ar    1  UNL1       -0.0028
     18 C          -6.1100    0.7591   -0.8308 C.ar    1  UNL1       -0.0198
     19 C          -6.3154    2.0217   -0.2855 C.ar    1  UNL1        0.1239
     20 F          -7.5713    2.5117   -0.1608 F       1  UNL1       -0.2055
     21 C          -5.2465    2.7749    0.1277 C.ar    1  UNL1       -0.0230
     22 C          -3.9591    2.2920    0.0085 C.ar    1  UNL1       -0.0169
     23 C          -3.7759    1.0265   -0.5396 C.ar    1  UNL1        0.1246
     24 O          -2.5225    0.4835   -0.6879 O.3     1  UNL1       -0.4853
     25 C          -1.9866   -1.2697    0.7765 C.3     1  UNL1        0.0030
     26 C          -0.7131   -2.0836    0.9060 C.3     1  UNL1        0.0183
     27 H           2.4605    0.6990    0.7327 H       1  UNL1        0.0362
     28 H           3.0377   -0.6863   -0.2216 H       1  UNL1        0.0362
     29 H           4.2614   -1.4975    1.7626 H       1  UNL1        0.0318
     30 H           3.6001   -0.0841    2.7431 H       1  UNL1        0.0318
     31 H           5.9908   -1.1526    0.1735 H       1  UNL1        0.0620
     32 H           7.8903    0.2655   -0.5483 H       1  UNL1        0.0618
     33 H           8.0451    2.5802    0.1674 H       1  UNL1        0.0618
     34 H           6.3306    3.5386    1.6073 H       1  UNL1        0.0618
     35 H           4.4179    2.1472    2.3472 H       1  UNL1        0.0620
     36 H           0.0454    0.5312   -0.5541 H       1  UNL1        0.0466
     37 H           1.0760   -0.6225   -1.4417 H       1  UNL1        0.0466
     38 H          -1.0349   -0.6306   -2.4664 H       1  UNL1        0.0319
     39 H          -0.8293   -2.1990   -1.6671 H       1  UNL1        0.0319
     40 H          -2.9985   -2.2553   -2.1672 H       1  UNL1        0.0307
     41 H          -3.5514   -2.5834   -0.5167 H       1  UNL1        0.0307
     42 H          -5.5077   -1.6997   -1.2072 H       1  UNL1        0.0316
     43 H          -4.7844   -0.9669   -2.6463 H       1  UNL1        0.0316
     44 H          -6.9743    0.2049   -1.1406 H       1  UNL1        0.0650
     45 H          -5.4175    3.7604    0.5524 H       1  UNL1        0.0647
     46 H          -3.0921    2.8574    0.3236 H       1  UNL1        0.0655
     47 H          -1.9186   -0.3987    1.4298 H       1  UNL1        0.0319
     48 H          -2.8114   -1.9099    1.1426 H       1  UNL1        0.0319
     49 H          -0.5740   -2.2757    1.9910 H       1  UNL1        0.0466
     50 H          -0.7774   -3.0313    0.3460 H       1  UNL1        0.0466
@<TRIPOS>BOND
     1     1     2    2
     2     2     3    1
     3     3     4    1
     4     4     5    1
     5     5     6   ar
     6     6     7   ar
     7     7     8   ar
     8     8     9   ar
     9     9    10   ar
    10     2    11   am
    11    11    12    1
    12    12    13    1
    13    13    14    1
    14    14    15    1
    15    15    16    1
    16    16    17    1
    17    17    18   ar
    18    18    19   ar
    19    19    20    1
    20    19    21   ar
    21    21    22   ar
    22    22    23   ar
    23    23    24    1
    24    14    25    1
    25    25    26    1
    26    10     5   ar
    27    26    11    1
    28    24    14    1
    29    23    17   ar
    30     3    27    1
    31     3    28    1
    32     4    29    1
    33     4    30    1
    34     6    31    1
    35     7    32    1
    36     8    33    1
    37     9    34    1
    38    10    35    1
    39    12    36    1
    40    12    37    1
    41    13    38    1
    42    13    39    1
    43    15    40    1
    44    15    41    1
    45    16    42    1
    46    16    43    1
    47    18    44    1
    48    21    45    1
    49    22    46    1
    50    25    47    1
    51    25    48    1
    52    26    49    1
    53    26    50    1
