
     RDKit          3D

 44 47  0  0  0  0  0  0  0  0999 V2000
   -1.3537    2.0419   -0.8601 O   0  0  0  0  0  0  0  0  0  0  0  0
   -1.7601    0.9612   -0.0465 C   0  0  2  0  0  0  0  0  0  0  0  0
   -3.1447    0.5972   -0.5287 C   0  0  0  0  0  0  0  0  0  0  0  0
   -4.2606    0.6348    0.2601 C   0  0  0  0  0  0  0  0  0  0  0  0
   -5.5323    0.2979   -0.1991 C   0  0  0  0  0  0  0  0  0  0  0  0
   -5.6520   -0.0877   -1.5081 C   0  0  0  0  0  0  0  0  0  0  0  0
   -6.8871   -0.4260   -1.9940 F   0  0  0  0  0  0  0  0  0  0  0  0
   -4.5453   -0.1352   -2.3267 C   0  0  0  0  0  0  0  0  0  0  0  0
   -4.7220   -0.5270   -3.6245 F   0  0  0  0  0  0  0  0  0  0  0  0
   -3.2995    0.2015   -1.8531 C   0  0  0  0  0  0  0  0  0  0  0  0
   -1.7413    1.3867    1.3624 C   0  0  0  0  0  0  0  0  0  0  0  0
   -1.6388    0.3285    2.3916 C   0  0  0  0  0  0  0  0  0  0  0  0
   -0.9293   -0.8555    2.0264 N   0  0  0  0  0  0  0  0  0  0  0  0
   -1.3170   -1.3194    0.6859 C   0  0  0  0  0  0  0  0  0  0  0  0
   -0.8498   -0.2221   -0.2520 C   0  0  2  0  0  0  0  0  0  0  0  0
    0.5532    0.1102    0.1101 C   0  0  0  0  0  0  0  0  0  0  0  0
    1.0469    0.9584    0.9658 O   0  0  0  0  0  0  0  0  0  0  0  0
    2.3135    0.9680    1.0042 N   0  0  0  0  0  0  0  0  0  0  0  0
    2.8251    0.0587    0.1105 C   0  0  0  0  0  0  0  0  0  0  0  0
    4.2379   -0.1910   -0.1060 C   0  0  0  0  0  0  0  0  0  0  0  0
    4.7324   -1.0962   -0.9961 C   0  0  0  0  0  0  0  0  0  0  0  0
    6.1035   -1.2994   -1.1672 C   0  0  0  0  0  0  0  0  0  0  0  0
    6.9814   -0.5725   -0.4235 C   0  0  0  0  0  0  0  0  0  0  0  0
    6.5161    0.3524    0.4868 C   0  0  0  0  0  0  0  0  0  0  0  0
    5.1550    0.5266    0.6293 C   0  0  0  0  0  0  0  0  0  0  0  0
    4.6393    1.7307    1.8165 Cl  0  0  0  0  0  0  0  0  0  0  0  0
    1.7021   -0.4854   -0.4568 C   0  0  0  0  0  0  0  0  0  0  0  0
    1.6270   -1.8240   -1.7912 Br  0  0  0  0  0  0  0  0  0  0  0  0
   -1.3831    1.7469   -1.8049 H   0  0  0  0  0  0  0  0  0  0  0  0
   -4.1836    0.9394    1.3104 H   0  0  0  0  0  0  0  0  0  0  0  0
   -6.3811    0.3461    0.4710 H   0  0  0  0  0  0  0  0  0  0  0  0
   -2.4434    0.1550   -2.5214 H   0  0  0  0  0  0  0  0  0  0  0  0
   -2.5906    2.0633    1.6434 H   0  0  0  0  0  0  0  0  0  0  0  0
   -0.8461    2.0830    1.4805 H   0  0  0  0  0  0  0  0  0  0  0  0
   -1.0664    0.7660    3.2681 H   0  0  0  0  0  0  0  0  0  0  0  0
   -2.6248    0.0480    2.8644 H   0  0  0  0  0  0  0  0  0  0  0  0
   -1.1460   -1.5924    2.7402 H   0  0  0  0  0  0  0  0  0  0  0  0
   -0.7152   -2.2163    0.4727 H   0  0  0  0  0  0  0  0  0  0  0  0
   -2.3916   -1.5127    0.6093 H   0  0  0  0  0  0  0  0  0  0  0  0
   -0.8994   -0.5814   -1.3190 H   0  0  0  0  0  0  0  0  0  0  0  0
    4.1088   -1.7054   -1.6168 H   0  0  0  0  0  0  0  0  0  0  0  0
    6.4549   -2.0233   -1.8800 H   0  0  0  0  0  0  0  0  0  0  0  0
    8.0733   -0.6821   -0.5078 H   0  0  0  0  0  0  0  0  0  0  0  0
    7.2344    0.9254    1.0737 H   0  0  0  0  0  0  0  0  0  0  0  0
  2  1  1  6
  2  3  1  0
  3  4  2  0
  4  5  1  0
  5  6  2  0
  6  7  1  0
  6  8  1  0
  8  9  1  0
  8 10  2  0
  2 11  1  0
 11 12  1  0
 12 13  1  0
 13 14  1  0
 14 15  1  0
 15 16  1  0
 16 17  1  0
 17 18  1  0
 18 19  2  0
 19 20  1  0
 20 21  2  0
 21 22  1  0
 22 23  2  0
 23 24  1  0
 24 25  2  0
 25 26  1  0
 19 27  1  0
 27 28  1  0
 15  2  1  0
 27 16  2  0
 10  3  1  0
 25 20  1  0
  1 29  1  0
  4 30  1  0
  5 31  1  0
 10 32  1  0
 11 33  1  0
 11 34  1  0
 12 35  1  0
 12 36  1  0
 13 37  1  0
 14 38  1  0
 14 39  1  0
 15 40  1  6
 21 41  1  0
 22 42  1  0
 23 43  1  0
 24 44  1  0
M  END
$$$$
