@<TRIPOS>MOLECULE
*****
 44 47 0 0 0
SMALL
GASTEIGER

@<TRIPOS>ATOM
      1 O          -1.3537    2.0419   -0.8601 O.3     1  UNL1       -0.3832
      2 C          -1.7601    0.9612   -0.0465 C.3     1  UNL1        0.1031
      3 C          -3.1447    0.5972   -0.5287 C.ar    1  UNL1       -0.0125
      4 C          -4.2606    0.6348    0.2601 C.ar    1  UNL1       -0.0529
      5 C          -5.5323    0.2979   -0.1991 C.ar    1  UNL1       -0.0232
      6 C          -5.6520   -0.0877   -1.5081 C.ar    1  UNL1        0.1584
      7 F          -6.8871   -0.4260   -1.9940 F       1  UNL1       -0.2025
      8 C          -4.5453   -0.1352   -2.3267 C.ar    1  UNL1        0.1587
      9 F          -4.7220   -0.5270   -3.6245 F       1  UNL1       -0.2025
     10 C          -3.2995    0.2015   -1.8531 C.ar    1  UNL1       -0.0177
     11 C          -1.7413    1.3867    1.3624 C.3     1  UNL1       -0.0065
     12 C          -1.6388    0.3285    2.3916 C.3     1  UNL1       -0.0011
     13 N          -0.9293   -0.8555    2.0264 N.3     1  UNL1       -0.3151
     14 C          -1.3170   -1.3194    0.6859 C.3     1  UNL1        0.0087
     15 C          -0.8498   -0.2221   -0.2520 C.3     1  UNL1        0.0663
     16 C           0.5532    0.1102    0.1101 C.ar    1  UNL1        0.1591
     17 O           1.0469    0.9584    0.9658 O.2     1  UNL1       -0.3575
     18 N           2.3135    0.9680    1.0042 N.ar    1  UNL1       -0.0768
     19 C           2.8251    0.0587    0.1105 C.ar    1  UNL1        0.1289
     20 C           4.2379   -0.1910   -0.1060 C.ar    1  UNL1        0.0230
     21 C           4.7324   -1.0962   -0.9961 C.ar    1  UNL1       -0.0510
     22 C           6.1035   -1.2994   -1.1672 C.ar    1  UNL1       -0.0610
     23 C           6.9814   -0.5725   -0.4235 C.ar    1  UNL1       -0.0603
     24 C           6.5161    0.3524    0.4868 C.ar    1  UNL1       -0.0427
     25 C           5.1550    0.5266    0.6293 C.ar    1  UNL1        0.0503
     26 CL          4.6393    1.7307    1.8165 Cl      1  UNL1       -0.0829
     27 C           1.7021   -0.4854   -0.4568 C.ar    1  UNL1        0.0880
     28 BR          1.6270   -1.8240   -1.7912 Br      1  UNL1       -0.0444
     29 H          -1.3831    1.7469   -1.8049 H       1  UNL1        0.2106
     30 H          -4.1836    0.9394    1.3104 H       1  UNL1        0.0622
     31 H          -6.3811    0.3461    0.4710 H       1  UNL1        0.0647
     32 H          -2.4434    0.1550   -2.5214 H       1  UNL1        0.0651
     33 H          -2.5906    2.0633    1.6434 H       1  UNL1        0.0309
     34 H          -0.8461    2.0830    1.4805 H       1  UNL1        0.0309
     35 H          -1.0664    0.7660    3.2681 H       1  UNL1        0.0425
     36 H          -2.6248    0.0480    2.8644 H       1  UNL1        0.0425
     37 H          -1.1460   -1.5924    2.7402 H       1  UNL1        0.1220
     38 H          -0.7152   -2.2163    0.4727 H       1  UNL1        0.0432
     39 H          -2.3916   -1.5127    0.6093 H       1  UNL1        0.0432
     40 H          -0.8994   -0.5814   -1.3190 H       1  UNL1        0.0425
     41 H           4.1088   -1.7054   -1.6168 H       1  UNL1        0.0625
     42 H           6.4549   -2.0233   -1.8800 H       1  UNL1        0.0618
     43 H           8.0733   -0.6821   -0.5078 H       1  UNL1        0.0618
     44 H           7.2344    0.9254    1.0737 H       1  UNL1        0.0632
@<TRIPOS>BOND
     1     2     1    1
     2     2     3    1
     3     3     4   ar
     4     4     5   ar
     5     5     6   ar
     6     6     7    1
     7     6     8   ar
     8     8     9    1
     9     8    10   ar
    10     2    11    1
    11    11    12    1
    12    12    13    1
    13    13    14    1
    14    14    15    1
    15    15    16    1
    16    16    17   ar
    17    17    18   ar
    18    18    19   ar
    19    19    20    1
    20    20    21   ar
    21    21    22   ar
    22    22    23   ar
    23    23    24   ar
    24    24    25   ar
    25    25    26    1
    26    19    27   ar
    27    27    28    1
    28    15     2    1
    29    27    16   ar
    30    10     3   ar
    31    25    20   ar
    32     1    29    1
    33     4    30    1
    34     5    31    1
    35    10    32    1
    36    11    33    1
    37    11    34    1
    38    12    35    1
    39    12    36    1
    40    13    37    1
    41    14    38    1
    42    14    39    1
    43    15    40    1
    44    21    41    1
    45    22    42    1
    46    23    43    1
    47    24    44    1
