@<TRIPOS>MOLECULE
*****
 44 46 0 0 0
SMALL
GASTEIGER

@<TRIPOS>ATOM
      1 O          -6.2871    2.0268   -2.3825 O.3     1  UNL1       -0.4773
      2 C          -5.2132    1.4625   -1.7314 C.2     1  UNL1        0.3332
      3 O          -4.5069    2.0530   -2.5731 O.2     1  UNL1       -0.2455
      4 C          -5.2587    0.5889   -0.5775 C.2     1  UNL1        0.0445
      5 C          -4.2268    0.0808    0.0243 C.2     1  UNL1        0.0246
      6 C          -4.6943   -0.7721    1.1783 C.3     1  UNL1       -0.0220
      7 C          -6.1400   -1.0231    0.8102 C.3     1  UNL1       -0.0447
      8 C          -6.5649    0.1734    0.0251 C.3     1  UNL1       -0.0202
      9 C          -2.8044    0.1385   -0.1392 C.2     1  UNL1        0.2449
     10 O          -1.9784   -0.4869    0.6285 O.2     1  UNL1       -0.2702
     11 N          -1.8375    0.7236   -0.9651 N.am    1  UNL1       -0.2772
     12 C          -0.4639    0.4832   -0.7371 C.ar    1  UNL1        0.1049
     13 C          -0.0352   -0.6349   -1.4546 C.ar    1  UNL1        0.1479
     14 F          -0.7979   -1.4081   -2.2677 F       1  UNL1       -0.2034
     15 C           1.2966   -1.0564   -1.3753 C.ar    1  UNL1       -0.0167
     16 C           2.1535   -0.3223   -0.5640 C.ar    1  UNL1       -0.0122
     17 C           1.7437    0.7872    0.1528 C.ar    1  UNL1       -0.0167
     18 C           0.4267    1.1777    0.0544 C.ar    1  UNL1        0.1479
     19 F          -0.1202    2.2399    0.6942 F       1  UNL1       -0.2034
     20 C           3.5518   -0.7719   -0.4867 C.ar    1  UNL1       -0.0143
     21 C           3.9717   -2.0849   -0.5863 C.ar    1  UNL1       -0.0538
     22 C           5.3185   -2.3873   -0.4984 C.ar    1  UNL1       -0.0577
     23 C           6.2279   -1.3746   -0.3123 C.ar    1  UNL1       -0.0196
     24 C           5.8527   -0.0453   -0.2071 C.ar    1  UNL1        0.1306
     25 O           6.8189    0.9330   -0.0197 O.3     1  UNL1       -0.4057
     26 C           7.2782    1.3814    1.2259 C.3     1  UNL1        0.5752
     27 F           8.2523    2.3729    1.0774 F       1  UNL1       -0.1328
     28 F           6.2063    1.9467    1.8970 F       1  UNL1       -0.1328
     29 F           7.8248    0.3543    1.9864 F       1  UNL1       -0.1328
     30 C           4.4947    0.2301   -0.2988 C.ar    1  UNL1       -0.0119
     31 H          -6.5406    3.0056   -2.4627 H       1  UNL1        0.2954
     32 H          -4.6715   -0.1175    2.0812 H       1  UNL1        0.0315
     33 H          -4.1218   -1.6910    1.2980 H       1  UNL1        0.0315
     34 H          -6.7886   -1.0532    1.7157 H       1  UNL1        0.0272
     35 H          -6.2491   -1.9526    0.2459 H       1  UNL1        0.0272
     36 H          -6.9917    0.9943    0.6026 H       1  UNL1        0.0316
     37 H          -7.2428   -0.0986   -0.8361 H       1  UNL1        0.0316
     38 H          -2.2596    1.3072   -1.7015 H       1  UNL1        0.1553
     39 H           1.6779   -1.9195   -1.9142 H       1  UNL1        0.0653
     40 H           2.3957    1.3539    0.7764 H       1  UNL1        0.0653
     41 H           3.1835   -2.8380   -0.7347 H       1  UNL1        0.0624
     42 H           5.6291   -3.4142   -0.5779 H       1  UNL1        0.0619
     43 H           7.2796   -1.6363   -0.2464 H       1  UNL1        0.0654
     44 H           4.2113    1.2732   -0.2155 H       1  UNL1        0.0660
@<TRIPOS>BOND
     1     1     2    1
     2     2     3    2
     3     2     4    1
     4     4     5    2
     5     5     6    1
     6     6     7    1
     7     7     8    1
     8     5     9    1
     9     9    10    2
    10     9    11   am
    11    11    12    1
    12    12    13   ar
    13    13    14    1
    14    13    15   ar
    15    15    16   ar
    16    16    17   ar
    17    17    18   ar
    18    18    19    1
    19    16    20    1
    20    20    21   ar
    21    21    22   ar
    22    22    23   ar
    23    23    24   ar
    24    24    25    1
    25    25    26    1
    26    26    27    1
    27    26    28    1
    28    26    29    1
    29    24    30   ar
    30     8     4    1
    31    18    12   ar
    32    30    20   ar
    33     1    31    1
    34     6    32    1
    35     6    33    1
    36     7    34    1
    37     7    35    1
    38     8    36    1
    39     8    37    1
    40    11    38    1
    41    15    39    1
    42    17    40    1
    43    21    41    1
    44    22    42    1
    45    23    43    1
    46    30    44    1
