@<TRIPOS>MOLECULE
*****
 56 59 0 0 0
SMALL
GASTEIGER

@<TRIPOS>ATOM
      1 C          -2.5844    5.4158    0.6926 C.3     1  UNL1        0.0788
      2 O          -1.8183    4.2156    0.5287 O.3     1  UNL1       -0.4951
      3 C          -2.4004    3.0570    0.0382 C.ar    1  UNL1        0.1204
      4 C          -3.7364    3.0512   -0.3017 C.ar    1  UNL1       -0.0199
      5 C          -4.3334    1.8968   -0.7934 C.ar    1  UNL1       -0.0580
      6 C          -3.5401    0.7855   -0.9200 C.ar    1  UNL1       -0.0568
      7 C          -2.1856    0.7476   -0.5880 C.ar    1  UNL1       -0.0266
      8 C          -1.4681   -0.5195   -0.7641 C.3     1  UNL1        0.0402
      9 N          -1.4351   -1.3925    0.3601 N.am    1  UNL1       -0.2903
     10 C          -2.5886   -2.2149    0.6723 C.3     1  UNL1        0.0281
     11 C          -2.5496   -3.5719    0.0014 C.3     1  UNL1        0.0141
     12 N          -3.7518   -4.2973    0.3810 N.3     1  UNL1       -0.3069
     13 C          -3.8056   -5.6099   -0.2145 C.3     1  UNL1       -0.0130
     14 C          -4.9575   -3.5723    0.0270 C.3     1  UNL1       -0.0130
     15 C          -0.3075   -1.4821    1.1941 C.2     1  UNL1        0.2721
     16 O          -0.3224   -2.2593    2.2082 O.2     1  UNL1       -0.2677
     17 C           0.9293   -0.7411    0.9954 C.ar    1  UNL1        0.1641
     18 N           1.4324    0.3106    0.9716 N.ar    1  UNL1       -0.2344
     19 C           2.6600    0.6908    0.7499 C.ar    1  UNL1        0.0791
     20 C           3.1968    2.0149    0.7356 C.ar    1  UNL1       -0.0346
     21 C           4.5267    2.1501    0.4719 C.ar    1  UNL1       -0.0519
     22 C           5.4158    1.1402    0.2156 C.ar    1  UNL1       -0.0138
     23 C           6.8149    1.3926   -0.0599 C.ar    1  UNL1        0.0193
     24 C           7.5773    2.4372    0.4578 C.ar    1  UNL1        0.0568
     25 N           8.8016    2.3153   -0.0316 N.ar    1  UNL1       -0.1817
     26 N           8.8955    1.2713   -0.8292 N.ar    1  UNL1       -0.2841
     27 C           7.6819    0.6852   -0.8627 C.ar    1  UNL1        0.0300
     28 C           4.9085   -0.1523    0.2264 C.ar    1  UNL1       -0.0381
     29 C           3.5355   -0.3350    0.4954 C.ar    1  UNL1        0.0402
     30 S           2.4946   -1.7952    0.5984 S.2     1  UNL1       -0.0627
     31 C          -1.6210    1.9019   -0.1056 C.ar    1  UNL1       -0.0153
     32 H          -1.9810    6.2270    1.0974 H       1  UNL1        0.0660
     33 H          -3.4938    5.2031    1.3190 H       1  UNL1        0.0660
     34 H          -2.9515    5.6860   -0.3177 H       1  UNL1        0.0660
     35 H          -4.2908    3.9668   -0.1724 H       1  UNL1        0.0654
     36 H          -5.3883    1.8855   -1.0652 H       1  UNL1        0.0619
     37 H          -3.9679   -0.1233   -1.3016 H       1  UNL1        0.0621
     38 H          -0.4313   -0.2481   -1.1220 H       1  UNL1        0.0514
     39 H          -1.8829   -1.1112   -1.6344 H       1  UNL1        0.0514
     40 H          -2.5601   -2.4115    1.7663 H       1  UNL1        0.0477
     41 H          -3.5523   -1.7599    0.3604 H       1  UNL1        0.0477
     42 H          -2.5664   -3.4692   -1.0903 H       1  UNL1        0.0442
     43 H          -1.6988   -4.1765    0.3446 H       1  UNL1        0.0442
     44 H          -3.0222   -6.2874    0.1975 H       1  UNL1        0.0391
     45 H          -3.7805   -5.5774   -1.3250 H       1  UNL1        0.0391
     46 H          -4.8245   -6.0237    0.0429 H       1  UNL1        0.0391
     47 H          -4.8064   -2.9078   -0.8590 H       1  UNL1        0.0391
     48 H          -5.4005   -3.0260    0.8827 H       1  UNL1        0.0391
     49 H          -5.7278   -4.3088   -0.2938 H       1  UNL1        0.0391
     50 H           2.6013    2.8760    0.9217 H       1  UNL1        0.0639
     51 H           4.9627    3.1595    0.4549 H       1  UNL1        0.0624
     52 H           7.2223    3.2002    1.1325 H       1  UNL1        0.0854
     53 H           9.7682    0.9750   -1.3330 H       1  UNL1        0.1882
     54 H           7.4122   -0.2020   -1.4246 H       1  UNL1        0.0830
     55 H           5.4816   -1.0254    0.0455 H       1  UNL1        0.0635
     56 H          -0.5867    1.9430    0.1644 H       1  UNL1        0.0657
@<TRIPOS>BOND
     1     1     2    1
     2     2     3    1
     3     3     4   ar
     4     4     5   ar
     5     5     6   ar
     6     6     7   ar
     7     7     8    1
     8     8     9    1
     9     9    10    1
    10    10    11    1
    11    11    12    1
    12    12    13    1
    13    12    14    1
    14     9    15   am
    15    15    16    2
    16    15    17    1
    17    17    18   ar
    18    18    19   ar
    19    19    20   ar
    20    20    21   ar
    21    21    22   ar
    22    22    23    1
    23    23    24   ar
    24    24    25   ar
    25    25    26   ar
    26    26    27   ar
    27    22    28   ar
    28    28    29   ar
    29    29    30   ar
    30     7    31   ar
    31    31     3   ar
    32    30    17   ar
    33    29    19   ar
    34    27    23   ar
    35     1    32    1
    36     1    33    1
    37     1    34    1
    38     4    35    1
    39     5    36    1
    40     6    37    1
    41     8    38    1
    42     8    39    1
    43    10    40    1
    44    10    41    1
    45    11    42    1
    46    11    43    1
    47    13    44    1
    48    13    45    1
    49    13    46    1
    50    14    47    1
    51    14    48    1
    52    14    49    1
    53    20    50    1
    54    21    51    1
    55    24    52    1
    56    26    53    1
    57    27    54    1
    58    28    55    1
    59    31    56    1
