
     RDKit          3D

 56 59  0  0  0  0  0  0  0  0999 V2000
   -2.5844    5.4158    0.6926 C   0  0  0  0  0  0  0  0  0  0  0  0
   -1.8183    4.2156    0.5287 O   0  0  0  0  0  0  0  0  0  0  0  0
   -2.4004    3.0570    0.0382 C   0  0  0  0  0  0  0  0  0  0  0  0
   -3.7364    3.0512   -0.3017 C   0  0  0  0  0  0  0  0  0  0  0  0
   -4.3334    1.8968   -0.7934 C   0  0  0  0  0  0  0  0  0  0  0  0
   -3.5401    0.7855   -0.9200 C   0  0  0  0  0  0  0  0  0  0  0  0
   -2.1856    0.7476   -0.5880 C   0  0  0  0  0  0  0  0  0  0  0  0
   -1.4681   -0.5195   -0.7641 C   0  0  0  0  0  0  0  0  0  0  0  0
   -1.4351   -1.3925    0.3601 N   0  0  0  0  0  0  0  0  0  0  0  0
   -2.5886   -2.2149    0.6723 C   0  0  0  0  0  0  0  0  0  0  0  0
   -2.5496   -3.5719    0.0014 C   0  0  0  0  0  0  0  0  0  0  0  0
   -3.7518   -4.2973    0.3810 N   0  0  0  0  0  0  0  0  0  0  0  0
   -3.8056   -5.6099   -0.2145 C   0  0  0  0  0  0  0  0  0  0  0  0
   -4.9575   -3.5723    0.0270 C   0  0  0  0  0  0  0  0  0  0  0  0
   -0.3075   -1.4821    1.1941 C   0  0  0  0  0  0  0  0  0  0  0  0
   -0.3224   -2.2593    2.2082 O   0  0  0  0  0  0  0  0  0  0  0  0
    0.9293   -0.7411    0.9954 C   0  0  0  0  0  0  0  0  0  0  0  0
    1.4324    0.3106    0.9716 N   0  0  0  0  0  0  0  0  0  0  0  0
    2.6600    0.6908    0.7499 C   0  0  0  0  0  0  0  0  0  0  0  0
    3.1968    2.0149    0.7356 C   0  0  0  0  0  0  0  0  0  0  0  0
    4.5267    2.1501    0.4719 C   0  0  0  0  0  0  0  0  0  0  0  0
    5.4158    1.1402    0.2156 C   0  0  0  0  0  0  0  0  0  0  0  0
    6.8149    1.3926   -0.0599 C   0  0  0  0  0  0  0  0  0  0  0  0
    7.5773    2.4372    0.4578 C   0  0  0  0  0  0  0  0  0  0  0  0
    8.8016    2.3153   -0.0316 N   0  0  0  0  0  0  0  0  0  0  0  0
    8.8955    1.2713   -0.8292 N   0  0  0  0  0  0  0  0  0  0  0  0
    7.6819    0.6852   -0.8627 C   0  0  0  0  0  0  0  0  0  0  0  0
    4.9085   -0.1523    0.2264 C   0  0  0  0  0  0  0  0  0  0  0  0
    3.5355   -0.3350    0.4954 C   0  0  0  0  0  0  0  0  0  0  0  0
    2.4946   -1.7952    0.5984 S   0  0  0  0  0  0  0  0  0  0  0  0
   -1.6210    1.9019   -0.1056 C   0  0  0  0  0  0  0  0  0  0  0  0
   -1.9810    6.2270    1.0974 H   0  0  0  0  0  0  0  0  0  0  0  0
   -3.4938    5.2031    1.3190 H   0  0  0  0  0  0  0  0  0  0  0  0
   -2.9515    5.6860   -0.3177 H   0  0  0  0  0  0  0  0  0  0  0  0
   -4.2908    3.9668   -0.1724 H   0  0  0  0  0  0  0  0  0  0  0  0
   -5.3883    1.8855   -1.0652 H   0  0  0  0  0  0  0  0  0  0  0  0
   -3.9679   -0.1233   -1.3016 H   0  0  0  0  0  0  0  0  0  0  0  0
   -0.4313   -0.2481   -1.1220 H   0  0  0  0  0  0  0  0  0  0  0  0
   -1.8829   -1.1112   -1.6344 H   0  0  0  0  0  0  0  0  0  0  0  0
   -2.5601   -2.4115    1.7663 H   0  0  0  0  0  0  0  0  0  0  0  0
   -3.5523   -1.7599    0.3604 H   0  0  0  0  0  0  0  0  0  0  0  0
   -2.5664   -3.4692   -1.0903 H   0  0  0  0  0  0  0  0  0  0  0  0
   -1.6988   -4.1765    0.3446 H   0  0  0  0  0  0  0  0  0  0  0  0
   -3.0222   -6.2874    0.1975 H   0  0  0  0  0  0  0  0  0  0  0  0
   -3.7805   -5.5774   -1.3250 H   0  0  0  0  0  0  0  0  0  0  0  0
   -4.8245   -6.0237    0.0429 H   0  0  0  0  0  0  0  0  0  0  0  0
   -4.8064   -2.9078   -0.8590 H   0  0  0  0  0  0  0  0  0  0  0  0
   -5.4005   -3.0260    0.8827 H   0  0  0  0  0  0  0  0  0  0  0  0
   -5.7278   -4.3088   -0.2938 H   0  0  0  0  0  0  0  0  0  0  0  0
    2.6013    2.8760    0.9217 H   0  0  0  0  0  0  0  0  0  0  0  0
    4.9627    3.1595    0.4549 H   0  0  0  0  0  0  0  0  0  0  0  0
    7.2223    3.2002    1.1325 H   0  0  0  0  0  0  0  0  0  0  0  0
    9.7682    0.9750   -1.3330 H   0  0  0  0  0  0  0  0  0  0  0  0
    7.4122   -0.2020   -1.4246 H   0  0  0  0  0  0  0  0  0  0  0  0
    5.4816   -1.0254    0.0455 H   0  0  0  0  0  0  0  0  0  0  0  0
   -0.5867    1.9430    0.1644 H   0  0  0  0  0  0  0  0  0  0  0  0
  1  2  1  0
  2  3  1  0
  3  4  2  0
  4  5  1  0
  5  6  2  0
  6  7  1  0
  7  8  1  0
  8  9  1  0
  9 10  1  0
 10 11  1  0
 11 12  1  0
 12 13  1  0
 12 14  1  0
  9 15  1  0
 15 16  2  0
 15 17  1  0
 17 18  2  0
 18 19  1  0
 19 20  2  0
 20 21  1  0
 21 22  2  0
 22 23  1  0
 23 24  1  0
 24 25  2  0
 25 26  1  0
 26 27  1  0
 22 28  1  0
 28 29  2  0
 29 30  1  0
  7 31  2  0
 31  3  1  0
 30 17  1  0
 29 19  1  0
 27 23  2  0
  1 32  1  0
  1 33  1  0
  1 34  1  0
  4 35  1  0
  5 36  1  0
  6 37  1  0
  8 38  1  0
  8 39  1  0
 10 40  1  0
 10 41  1  0
 11 42  1  0
 11 43  1  0
 13 44  1  0
 13 45  1  0
 13 46  1  0
 14 47  1  0
 14 48  1  0
 14 49  1  0
 20 50  1  0
 21 51  1  0
 24 52  1  0
 26 53  1  0
 27 54  1  0
 28 55  1  0
 31 56  1  0
M  END
$$$$
