@<TRIPOS>MOLECULE
*****
 42 44 0 0 0
SMALL
GASTEIGER

@<TRIPOS>ATOM
      1 C           1.4179   -0.8072    1.1088 C.3     1  UNL1        0.0587
      2 C           1.6978    0.4766    1.8528 C.3     1  UNL1        0.0650
      3 O           0.8099    0.6380    2.9097 O.3     1  UNL1       -0.3930
      4 C           0.0371   -0.8610    0.5300 C.3     1  UNL1       -0.0259
      5 C          -0.2883    0.2048   -0.4458 C.3     1  UNL1       -0.0252
      6 C          -1.6859    0.0214   -0.9183 C.ar    1  UNL1       -0.0396
      7 C          -1.9529   -0.5934   -2.1433 C.ar    1  UNL1       -0.0580
      8 C          -3.2612   -0.7721   -2.5425 C.ar    1  UNL1       -0.0609
      9 C          -4.3522   -0.3755   -1.7970 C.ar    1  UNL1       -0.0540
     10 C          -4.0963    0.2370   -0.5779 C.ar    1  UNL1       -0.0176
     11 C          -2.7871    0.4094   -0.1913 C.ar    1  UNL1       -0.0147
     12 C          -2.6156    1.0369    1.0321 C.ar    1  UNL1       -0.0538
     13 C          -3.6548    1.4734    1.8398 C.ar    1  UNL1       -0.0612
     14 C          -4.9533    1.2812    1.4175 C.ar    1  UNL1       -0.0612
     15 C          -5.1582    0.6611    0.2054 C.ar    1  UNL1       -0.0540
     16 N           2.4779   -1.0328    0.1516 N.ar    1  UNL1       -0.3308
     17 C           2.7560   -2.0963   -0.6320 C.ar    1  UNL1        0.0971
     18 N           3.8347   -1.9202   -1.3903 N.ar    1  UNL1       -0.2311
     19 C           4.3158   -0.6938   -1.1201 C.ar    1  UNL1        0.1428
     20 C           3.4627   -0.1758   -0.1719 C.ar    1  UNL1        0.0368
     21 C           5.4952   -0.0531   -1.7108 C.2     1  UNL1        0.2613
     22 N           5.8226    1.2621   -1.2747 N.am    1  UNL1       -0.3240
     23 O           6.1369   -0.7378   -2.5774 O.2     1  UNL1       -0.2687
     24 H           1.4768   -1.6114    1.8744 H       1  UNL1        0.0551
     25 H           1.7443    1.3566    1.1953 H       1  UNL1        0.0578
     26 H           2.7110    0.3523    2.2954 H       1  UNL1        0.0578
     27 H           0.4454   -0.2197    3.2344 H       1  UNL1        0.2095
     28 H          -0.0481   -1.8547    0.0238 H       1  UNL1        0.0289
     29 H          -0.6879   -0.9055    1.3590 H       1  UNL1        0.0289
     30 H          -0.1064    1.2343   -0.0752 H       1  UNL1        0.0314
     31 H           0.3664    0.0667   -1.3453 H       1  UNL1        0.0314
     32 H          -1.0898   -0.9000   -2.7169 H       1  UNL1        0.0620
     33 H          -3.3573   -1.2647   -3.5210 H       1  UNL1        0.0618
     34 H          -5.3433   -0.5452   -2.1639 H       1  UNL1        0.0624
     35 H          -1.6438    1.2354    1.4339 H       1  UNL1        0.0624
     36 H          -3.4973    1.9575    2.7845 H       1  UNL1        0.0618
     37 H          -5.8182    1.5898    1.9846 H       1  UNL1        0.0618
     38 H          -6.1917    0.5102   -0.1269 H       1  UNL1        0.0624
     39 H           2.1462   -3.0135   -0.6362 H       1  UNL1        0.1029
     40 H           3.5720    0.8181    0.2688 H       1  UNL1        0.0833
     41 H           5.6509    1.4862   -0.2608 H       1  UNL1        0.1453
     42 H           6.2122    2.1246   -1.7117 H       1  UNL1        0.1453
@<TRIPOS>BOND
     1     1     2    1
     2     2     3    1
     3     1     4    1
     4     4     5    1
     5     5     6    1
     6     6     7   ar
     7     7     8   ar
     8     8     9   ar
     9     9    10   ar
    10    10    11   ar
    11    11    12   ar
    12    12    13   ar
    13    13    14   ar
    14    14    15   ar
    15     1    16    1
    16    16    17   ar
    17    17    18   ar
    18    18    19   ar
    19    19    20   ar
    20    19    21    1
    21    21    22   am
    22    21    23    2
    23    11     6   ar
    24    20    16   ar
    25    15    10   ar
    26     1    24    1
    27     2    25    1
    28     2    26    1
    29     3    27    1
    30     4    28    1
    31     4    29    1
    32     5    30    1
    33     5    31    1
    34     7    32    1
    35     8    33    1
    36     9    34    1
    37    12    35    1
    38    13    36    1
    39    14    37    1
    40    15    38    1
    41    17    39    1
    42    20    40    1
    43    22    41    1
    44    22    42    1
