@<TRIPOS>MOLECULE
*****
 48 49 0 0 0
SMALL
GASTEIGER

@<TRIPOS>ATOM
      1 C          -3.6613   -0.7142    2.8978 C.3     1  UNL1        0.0788
      2 O          -3.4515    0.0995    1.8256 O.3     1  UNL1       -0.4948
      3 C          -2.3311    0.2273    1.0219 C.ar    1  UNL1        0.1236
      4 C          -1.4095   -0.5915    1.8034 C.ar    1  UNL1       -0.0185
      5 C          -0.2067   -0.9130    1.5453 C.ar    1  UNL1       -0.0429
      6 C           0.5113   -0.5219    0.4109 C.ar    1  UNL1        0.0254
      7 C           1.7054   -1.1427    0.3724 C.1     1  UNL1       -0.0663
      8 C           2.9543   -1.8098    0.3288 C.1     1  UNL1       -0.0970
      9 C           4.1626   -2.4334    0.2848 C.3     1  UNL1        0.0095
     10 C           4.9583   -1.3471   -0.3042 C.3     1  UNL1       -0.0417
     11 C           6.3295   -1.1550   -0.7366 C.3     1  UNL1       -0.0421
     12 C           7.5081   -0.9355    0.1342 C.3     1  UNL1        0.0448
     13 C           7.3436    0.4652    0.8262 C.2     1  UNL1        0.3047
     14 O           7.1178    1.1592    1.5697 O.2     1  UNL1       -0.2510
     15 O           7.8866    1.3398   -0.4958 O.3     1  UNL1       -0.4806
     16 C          -0.2445    0.2966   -0.4014 C.ar    1  UNL1       -0.0394
     17 C          -1.6286    0.6372   -0.0616 C.ar    1  UNL1       -0.0001
     18 C          -2.5072    0.9613   -1.2080 C.3     1  UNL1        0.0058
     19 C          -3.9443    1.0092   -0.9930 C.ar    1  UNL1        0.0148
     20 C          -4.7238   -0.1346   -1.2192 C.ar    1  UNL1        0.0379
     21 N          -5.9871   -0.0462   -1.1266 N.ar    1  UNL1       -0.2227
     22 C          -6.7155    1.0913   -0.8150 C.ar    1  UNL1        0.2142
     23 N          -8.1037    1.0786   -0.7875 N.pl3   1  UNL1       -0.3274
     24 N          -5.9431    2.1807   -0.5987 N.ar    1  UNL1       -0.1999
     25 C          -4.5332    2.1739   -0.6963 C.ar    1  UNL1        0.1247
     26 N          -3.8022    3.3257   -0.4811 N.pl3   1  UNL1       -0.3428
     27 H          -3.2253   -1.7672    2.6212 H       1  UNL1        0.0660
     28 H          -4.7171   -0.9404    3.1307 H       1  UNL1        0.0660
     29 H          -3.2063   -0.4642    3.8756 H       1  UNL1        0.0660
     30 H          -1.7760   -0.8418    2.8606 H       1  UNL1        0.0654
     31 H           0.3749   -1.5677    2.3151 H       1  UNL1        0.0631
     32 H           4.1634   -3.4286    0.4599 H       1  UNL1        0.0397
     33 H           3.8068   -2.7841   -1.1257 H       1  UNL1        0.0397
     34 H           4.3690   -1.0157   -1.3428 H       1  UNL1        0.0274
     35 H           4.6042   -0.2839    0.2172 H       1  UNL1        0.0274
     36 H           6.6959   -2.0671   -1.4000 H       1  UNL1        0.0271
     37 H           6.4233   -0.3302   -1.5529 H       1  UNL1        0.0271
     38 H           7.8754   -1.6639    0.8123 H       1  UNL1        0.0377
     39 H           8.3721   -0.8028   -0.6143 H       1  UNL1        0.0377
     40 H           7.9455    2.3067   -0.1625 H       1  UNL1        0.2951
     41 H           0.2659    0.6626   -1.2083 H       1  UNL1        0.0634
     42 H          -2.3087    0.0806   -1.9795 H       1  UNL1        0.0364
     43 H          -2.1175    1.8828   -1.6973 H       1  UNL1        0.0364
     44 H          -4.1924   -1.0242   -1.4964 H       1  UNL1        0.0834
     45 H          -8.7289    1.2426    0.0001 H       1  UNL1        0.1452
     46 H          -8.5744    0.8366   -1.7555 H       1  UNL1        0.1452
     47 H          -2.8548    3.4857   -0.4874 H       1  UNL1        0.1437
     48 H          -4.4792    4.1837   -0.2734 H       1  UNL1        0.1437
@<TRIPOS>BOND
     1     1     2    1
     2     2     3    1
     3     3     4   ar
     4     4     5   ar
     5     5     6   ar
     6     6     7    1
     7     7     8    3
     8     8     9    1
     9     9    10    1
    10    10    11    1
    11    11    12    1
    12    12    13    1
    13    13    14    2
    14    13    15    1
    15     6    16   ar
    16    16    17   ar
    17    17    18    1
    18    18    19    1
    19    19    20   ar
    20    20    21   ar
    21    21    22   ar
    22    22    23    1
    23    22    24   ar
    24    24    25   ar
    25    25    26    1
    26    17     3   ar
    27    25    19   ar
    28     1    27    1
    29     1    28    1
    30     1    29    1
    31     4    30    1
    32     5    31    1
    33     9    32    1
    34     9    33    1
    35    10    34    1
    36    10    35    1
    37    11    36    1
    38    11    37    1
    39    12    38    1
    40    12    39    1
    41    15    40    1
    42    16    41    1
    43    18    42    1
    44    18    43    1
    45    20    44    1
    46    23    45    1
    47    23    46    1
    48    26    47    1
    49    26    48    1
