@<TRIPOS>MOLECULE
*****
 64 67 0 0 0
SMALL
GASTEIGER

@<TRIPOS>ATOM
      1 O          -5.3500    1.7443    1.5488 O.2     1  UNL1       -0.2702
      2 C          -5.5760    0.6749    0.9274 C.2     1  UNL1        0.2443
      3 N          -4.8345    0.5133   -0.2728 N.am    1  UNL1       -0.3081
      4 C          -3.9104    1.4819   -0.7365 C.3     1  UNL1        0.0293
      5 C          -4.3768    2.0263   -2.0609 C.3     1  UNL1       -0.0341
      6 C          -3.6734    1.1700   -3.0597 C.3     1  UNL1       -0.0510
      7 C          -2.6188    0.3752   -2.3296 C.3     1  UNL1       -0.0454
      8 C          -2.5109    1.0410   -0.9423 C.3     1  UNL1        0.0117
      9 C          -1.6480    2.2370   -1.1349 C.3     1  UNL1        0.0973
     10 O          -0.3147    1.8452   -1.3311 O.3     1  UNL1       -0.4608
     11 C           0.3513    1.1611   -0.3377 C.2     1  UNL1        0.3394
     12 O          -0.2093    0.8850    0.7395 O.2     1  UNL1       -0.2450
     13 C           1.7459    0.7342   -0.5162 C.ar    1  UNL1        0.0659
     14 C           2.4318    1.0029   -1.6785 C.ar    1  UNL1       -0.0053
     15 C           3.7373    0.5996   -1.8356 C.ar    1  UNL1        0.1320
     16 O           4.4477    0.8694   -3.0204 O.3     1  UNL1       -0.5059
     17 C           4.4426   -0.0966   -0.8456 C.ar    1  UNL1        0.1050
     18 C           5.7790   -0.5824   -1.1322 C.2     1  UNL1        0.2044
     19 O           6.1068   -0.7527   -2.3732 O.2     1  UNL1       -0.2863
     20 C           6.7904   -0.9112   -0.1657 C.ar    1  UNL1        0.0778
     21 C           7.5131   -2.0861   -0.4643 C.ar    1  UNL1        0.1285
     22 O           7.2322   -2.8453   -1.5892 O.3     1  UNL1       -0.5060
     23 C           8.5132   -2.4754    0.3843 C.ar    1  UNL1       -0.0194
     24 C           8.8256   -1.7595    1.5040 C.ar    1  UNL1       -0.0575
     25 C           8.1262   -0.6195    1.7889 C.ar    1  UNL1       -0.0468
     26 C           7.0874   -0.1762    0.9399 C.ar    1  UNL1        0.0731
     27 C           6.5308    1.1397    1.1673 C.2     1  UNL1        0.3376
     28 O           5.8164    1.8058    0.3894 O.2     1  UNL1       -0.2451
     29 O           6.8118    1.7658    2.4051 O.3     1  UNL1       -0.4771
     30 C           3.7419   -0.3600    0.3127 C.ar    1  UNL1        0.1320
     31 O           4.3473   -1.0474    1.3453 O.3     1  UNL1       -0.5059
     32 C           2.4174    0.0512    0.4694 C.ar    1  UNL1       -0.0053
     33 C          -6.5316   -0.3119    1.4193 C.ar    1  UNL1        0.0369
     34 C          -7.2068   -0.0703    2.5964 C.ar    1  UNL1       -0.0462
     35 C          -8.1179   -0.9811    3.0915 C.ar    1  UNL1       -0.0195
     36 C          -8.3932   -2.1643    2.4387 C.ar    1  UNL1        0.1169
     37 O          -9.3167   -3.0895    2.9389 O.3     1  UNL1       -0.5068
     38 C          -7.7221   -2.4123    1.2619 C.ar    1  UNL1       -0.0195
     39 C          -6.7982   -1.4891    0.7594 C.ar    1  UNL1       -0.0462
     40 H          -4.9611   -0.3471   -0.8511 H       1  UNL1        0.1493
     41 H          -3.8969    2.3332   -0.0090 H       1  UNL1        0.0502
     42 H          -5.4820    2.0053   -2.1567 H       1  UNL1        0.0283
     43 H          -4.0438    3.0862   -2.1972 H       1  UNL1        0.0283
     44 H          -3.1353    1.7900   -3.8279 H       1  UNL1        0.0266
     45 H          -4.4018    0.5382   -3.5951 H       1  UNL1        0.0266
     46 H          -1.6524    0.3719   -2.8477 H       1  UNL1        0.0270
     47 H          -2.9714   -0.6619   -2.2460 H       1  UNL1        0.0270
     48 H          -2.1539    0.2559   -0.2912 H       1  UNL1        0.0352
     49 H          -1.9719    2.7225   -2.1002 H       1  UNL1        0.0701
     50 H          -1.6822    2.9635   -0.3014 H       1  UNL1        0.0701
     51 H           1.9325    1.5395   -2.4775 H       1  UNL1        0.0662
     52 H           3.9931    0.6306   -3.8913 H       1  UNL1        0.2922
     53 H           7.1742   -3.8565   -1.5706 H       1  UNL1        0.2922
     54 H           9.0917   -3.3812    0.1805 H       1  UNL1        0.0654
     55 H           9.6211   -2.0681    2.1856 H       1  UNL1        0.0619
     56 H           8.3152   -0.0043    2.6531 H       1  UNL1        0.0626
     57 H           6.2047    2.5062    2.7287 H       1  UNL1        0.2954
     58 H           4.3594   -0.6120    2.2654 H       1  UNL1        0.2922
     59 H           1.8912   -0.1673    1.3888 H       1  UNL1        0.0662
     60 H          -7.0130    0.8480    3.1313 H       1  UNL1        0.0626
     61 H          -8.6625   -0.8077    4.0219 H       1  UNL1        0.0654
     62 H         -10.0233   -3.5138    2.3803 H       1  UNL1        0.2921
     63 H          -7.9252   -3.3434    0.7288 H       1  UNL1        0.0654
     64 H          -6.2931   -1.7211   -0.1664 H       1  UNL1        0.0626
@<TRIPOS>BOND
     1     1     2    2
     2     2     3   am
     3     3     4    1
     4     4     5    1
     5     5     6    1
     6     6     7    1
     7     7     8    1
     8     8     9    1
     9     9    10    1
    10    10    11    1
    11    11    12    2
    12    11    13    1
    13    13    14   ar
    14    14    15   ar
    15    15    16    1
    16    15    17   ar
    17    17    18    1
    18    18    19    2
    19    18    20    1
    20    20    21   ar
    21    21    22    1
    22    21    23   ar
    23    23    24   ar
    24    24    25   ar
    25    25    26   ar
    26    26    27    1
    27    27    28    2
    28    27    29    1
    29    17    30   ar
    30    30    31    1
    31    30    32   ar
    32     2    33    1
    33    33    34   ar
    34    34    35   ar
    35    35    36   ar
    36    36    37    1
    37    36    38   ar
    38    38    39   ar
    39     8     4    1
    40    32    13   ar
    41    39    33   ar
    42    26    20   ar
    43     3    40    1
    44     4    41    1
    45     5    42    1
    46     5    43    1
    47     6    44    1
    48     6    45    1
    49     7    46    1
    50     7    47    1
    51     8    48    1
    52     9    49    1
    53     9    50    1
    54    14    51    1
    55    16    52    1
    56    22    53    1
    57    23    54    1
    58    24    55    1
    59    25    56    1
    60    29    57    1
    61    31    58    1
    62    32    59    1
    63    34    60    1
    64    35    61    1
    65    37    62    1
    66    38    63    1
    67    39    64    1
