
     RDKit          3D

 64 67  0  0  0  0  0  0  0  0999 V2000
   -5.3500    1.7443    1.5488 O   0  0  0  0  0  0  0  0  0  0  0  0
   -5.5760    0.6749    0.9274 C   0  0  0  0  0  0  0  0  0  0  0  0
   -4.8345    0.5133   -0.2728 N   0  0  0  0  0  0  0  0  0  0  0  0
   -3.9104    1.4819   -0.7365 C   0  0  2  0  0  0  0  0  0  0  0  0
   -4.3768    2.0263   -2.0609 C   0  0  0  0  0  0  0  0  0  0  0  0
   -3.6734    1.1700   -3.0597 C   0  0  0  0  0  0  0  0  0  0  0  0
   -2.6188    0.3752   -2.3296 C   0  0  0  0  0  0  0  0  0  0  0  0
   -2.5109    1.0410   -0.9423 C   0  0  1  0  0  0  0  0  0  0  0  0
   -1.6480    2.2370   -1.1349 C   0  0  0  0  0  0  0  0  0  0  0  0
   -0.3147    1.8452   -1.3311 O   0  0  0  0  0  0  0  0  0  0  0  0
    0.3513    1.1611   -0.3377 C   0  0  0  0  0  0  0  0  0  0  0  0
   -0.2093    0.8850    0.7395 O   0  0  0  0  0  0  0  0  0  0  0  0
    1.7459    0.7342   -0.5162 C   0  0  0  0  0  0  0  0  0  0  0  0
    2.4318    1.0029   -1.6785 C   0  0  0  0  0  0  0  0  0  0  0  0
    3.7373    0.5996   -1.8356 C   0  0  0  0  0  0  0  0  0  0  0  0
    4.4477    0.8694   -3.0204 O   0  0  0  0  0  0  0  0  0  0  0  0
    4.4426   -0.0966   -0.8456 C   0  0  0  0  0  0  0  0  0  0  0  0
    5.7790   -0.5824   -1.1322 C   0  0  0  0  0  0  0  0  0  0  0  0
    6.1068   -0.7527   -2.3732 O   0  0  0  0  0  0  0  0  0  0  0  0
    6.7904   -0.9112   -0.1657 C   0  0  0  0  0  0  0  0  0  0  0  0
    7.5131   -2.0861   -0.4643 C   0  0  0  0  0  0  0  0  0  0  0  0
    7.2322   -2.8453   -1.5892 O   0  0  0  0  0  0  0  0  0  0  0  0
    8.5132   -2.4754    0.3843 C   0  0  0  0  0  0  0  0  0  0  0  0
    8.8256   -1.7595    1.5040 C   0  0  0  0  0  0  0  0  0  0  0  0
    8.1262   -0.6195    1.7889 C   0  0  0  0  0  0  0  0  0  0  0  0
    7.0874   -0.1762    0.9399 C   0  0  0  0  0  0  0  0  0  0  0  0
    6.5308    1.1397    1.1673 C   0  0  0  0  0  0  0  0  0  0  0  0
    5.8164    1.8058    0.3894 O   0  0  0  0  0  0  0  0  0  0  0  0
    6.8118    1.7658    2.4051 O   0  0  0  0  0  0  0  0  0  0  0  0
    3.7419   -0.3600    0.3127 C   0  0  0  0  0  0  0  0  0  0  0  0
    4.3473   -1.0474    1.3453 O   0  0  0  0  0  0  0  0  0  0  0  0
    2.4174    0.0512    0.4694 C   0  0  0  0  0  0  0  0  0  0  0  0
   -6.5316   -0.3119    1.4193 C   0  0  0  0  0  0  0  0  0  0  0  0
   -7.2068   -0.0703    2.5964 C   0  0  0  0  0  0  0  0  0  0  0  0
   -8.1179   -0.9811    3.0915 C   0  0  0  0  0  0  0  0  0  0  0  0
   -8.3932   -2.1643    2.4387 C   0  0  0  0  0  0  0  0  0  0  0  0
   -9.3167   -3.0895    2.9389 O   0  0  0  0  0  0  0  0  0  0  0  0
   -7.7221   -2.4123    1.2619 C   0  0  0  0  0  0  0  0  0  0  0  0
   -6.7982   -1.4891    0.7594 C   0  0  0  0  0  0  0  0  0  0  0  0
   -4.9611   -0.3471   -0.8511 H   0  0  0  0  0  0  0  0  0  0  0  0
   -3.8969    2.3332   -0.0090 H   0  0  0  0  0  0  0  0  0  0  0  0
   -5.4820    2.0053   -2.1567 H   0  0  0  0  0  0  0  0  0  0  0  0
   -4.0438    3.0862   -2.1972 H   0  0  0  0  0  0  0  0  0  0  0  0
   -3.1353    1.7900   -3.8279 H   0  0  0  0  0  0  0  0  0  0  0  0
   -4.4018    0.5382   -3.5951 H   0  0  0  0  0  0  0  0  0  0  0  0
   -1.6524    0.3719   -2.8477 H   0  0  0  0  0  0  0  0  0  0  0  0
   -2.9714   -0.6619   -2.2460 H   0  0  0  0  0  0  0  0  0  0  0  0
   -2.1539    0.2559   -0.2912 H   0  0  0  0  0  0  0  0  0  0  0  0
   -1.9719    2.7225   -2.1002 H   0  0  0  0  0  0  0  0  0  0  0  0
   -1.6822    2.9635   -0.3014 H   0  0  0  0  0  0  0  0  0  0  0  0
    1.9325    1.5395   -2.4775 H   0  0  0  0  0  0  0  0  0  0  0  0
    3.9931    0.6306   -3.8913 H   0  0  0  0  0  0  0  0  0  0  0  0
    7.1742   -3.8565   -1.5706 H   0  0  0  0  0  0  0  0  0  0  0  0
    9.0917   -3.3812    0.1805 H   0  0  0  0  0  0  0  0  0  0  0  0
    9.6211   -2.0681    2.1856 H   0  0  0  0  0  0  0  0  0  0  0  0
    8.3152   -0.0043    2.6531 H   0  0  0  0  0  0  0  0  0  0  0  0
    6.2047    2.5062    2.7287 H   0  0  0  0  0  0  0  0  0  0  0  0
    4.3594   -0.6120    2.2654 H   0  0  0  0  0  0  0  0  0  0  0  0
    1.8912   -0.1673    1.3888 H   0  0  0  0  0  0  0  0  0  0  0  0
   -7.0130    0.8480    3.1313 H   0  0  0  0  0  0  0  0  0  0  0  0
   -8.6625   -0.8077    4.0219 H   0  0  0  0  0  0  0  0  0  0  0  0
  -10.0233   -3.5138    2.3803 H   0  0  0  0  0  0  0  0  0  0  0  0
   -7.9252   -3.3434    0.7288 H   0  0  0  0  0  0  0  0  0  0  0  0
   -6.2931   -1.7211   -0.1664 H   0  0  0  0  0  0  0  0  0  0  0  0
  1  2  2  0
  2  3  1  0
  3  4  1  0
  4  5  1  0
  5  6  1  0
  6  7  1  0
  7  8  1  0
  8  9  1  0
  9 10  1  0
 10 11  1  0
 11 12  2  0
 11 13  1  0
 13 14  2  0
 14 15  1  0
 15 16  1  0
 15 17  2  0
 17 18  1  0
 18 19  2  0
 18 20  1  0
 20 21  2  0
 21 22  1  0
 21 23  1  0
 23 24  2  0
 24 25  1  0
 25 26  2  0
 26 27  1  0
 27 28  2  0
 27 29  1  0
 17 30  1  0
 30 31  1  0
 30 32  2  0
  2 33  1  0
 33 34  2  0
 34 35  1  0
 35 36  2  0
 36 37  1  0
 36 38  1  0
 38 39  2  0
  8  4  1  0
 32 13  1  0
 39 33  1  0
 26 20  1  0
  3 40  1  0
  4 41  1  1
  5 42  1  0
  5 43  1  0
  6 44  1  0
  6 45  1  0
  7 46  1  0
  7 47  1  0
  8 48  1  1
  9 49  1  0
  9 50  1  0
 14 51  1  0
 16 52  1  0
 22 53  1  0
 23 54  1  0
 24 55  1  0
 25 56  1  0
 29 57  1  0
 31 58  1  0
 32 59  1  0
 34 60  1  0
 35 61  1  0
 37 62  1  0
 38 63  1  0
 39 64  1  0
M  END
$$$$
