@<TRIPOS>MOLECULE
*****
 61 68 0 0 0
SMALL
GASTEIGER

@<TRIPOS>ATOM
      1 C          -4.5114   -2.6412    0.3184 C.3     1  UNL1       -0.0155
      2 N          -4.1204   -1.2500    0.4485 N.3     1  UNL1       -0.3136
      3 C          -3.0487   -1.0153   -0.4839 C.3     1  UNL1        0.0423
      4 C          -1.8871   -1.9277   -0.1512 C.3     1  UNL1        0.0107
      5 C          -0.8113   -1.6955   -1.1770 C.3     1  UNL1        0.1402
      6 O          -0.9748   -0.5970   -1.9441 O.3     1  UNL1       -0.3282
      7 C          -1.4244    0.5754   -1.3634 C.3     1  UNL1        0.1741
      8 C          -2.0163    1.3369   -2.5660 C.3     1  UNL1       -0.0136
      9 C          -2.4983    0.4110   -0.3459 C.3     1  UNL1        0.1214
     10 O          -2.0104    0.5658    0.9503 O.3     1  UNL1       -0.3735
     11 C          -2.7387    1.5281    1.6531 C.3     1  UNL1        0.0371
     12 N          -0.3001    1.2547   -0.7682 N.ar    1  UNL1       -0.3070
     13 C          -0.1731    2.5859   -0.6067 C.ar    1  UNL1        0.0527
     14 C          -1.0193    3.6461   -0.8924 C.ar    1  UNL1       -0.0375
     15 C          -0.5859    4.9187   -0.5893 C.ar    1  UNL1       -0.0598
     16 C           0.6332    5.1986   -0.0207 C.ar    1  UNL1       -0.0611
     17 C           1.4715    4.1393    0.2629 C.ar    1  UNL1       -0.0520
     18 C           1.0509    2.8656   -0.0346 C.ar    1  UNL1        0.0081
     19 C           1.7069    1.6770    0.1721 C.ar    1  UNL1        0.0151
     20 C           2.9073    1.3103    0.6966 C.ar    1  UNL1       -0.0078
     21 C           3.2825   -0.0245    0.7773 C.ar    1  UNL1        0.0518
     22 C           2.4157   -1.0179    0.3147 C.ar    1  UNL1        0.0221
     23 C           2.4841   -2.4054    0.2697 C.ar    1  UNL1        0.0085
     24 C           3.4135   -3.3353    0.6403 C.ar    1  UNL1       -0.0520
     25 C           3.1638   -4.6833    0.4543 C.ar    1  UNL1       -0.0611
     26 C           1.9618   -5.1037   -0.1128 C.ar    1  UNL1       -0.0598
     27 C           1.0424   -4.1462   -0.4774 C.ar    1  UNL1       -0.0375
     28 C           1.2683   -2.8042   -0.3024 C.ar    1  UNL1        0.0524
     29 N           0.5353   -1.7268   -0.5758 N.ar    1  UNL1       -0.3115
     30 C           1.2033   -0.6193   -0.2138 C.ar    1  UNL1        0.0774
     31 C           0.8488    0.7091   -0.2883 C.ar    1  UNL1        0.0772
     32 C           4.5947   -0.0843    1.3569 C.2     1  UNL1        0.2453
     33 O           5.3111   -1.0648    1.6128 O.2     1  UNL1       -0.2702
     34 N           4.9925    1.2796    1.6207 N.am    1  UNL1       -0.3072
     35 C           3.9569    2.2024    1.2535 C.3     1  UNL1        0.0385
     36 H          -3.9100   -3.2971    0.9895 H       1  UNL1        0.0388
     37 H          -4.4051   -3.0152   -0.7157 H       1  UNL1        0.0388
     38 H          -5.5609   -2.7096    0.6983 H       1  UNL1        0.0388
     39 H          -3.7222   -1.1480    1.4092 H       1  UNL1        0.1220
     40 H          -3.3624   -1.1146   -1.5426 H       1  UNL1        0.0489
     41 H          -2.1924   -2.9904   -0.0710 H       1  UNL1        0.0325
     42 H          -1.4895   -1.6183    0.8335 H       1  UNL1        0.0325
     43 H          -0.8359   -2.5886   -1.8546 H       1  UNL1        0.0839
     44 H          -1.3162    2.0379   -3.0147 H       1  UNL1        0.0277
     45 H          -2.2216    0.6026   -3.4235 H       1  UNL1        0.0277
     46 H          -3.0373    1.7085   -2.3531 H       1  UNL1        0.0277
     47 H          -3.3523    1.1171   -0.4639 H       1  UNL1        0.0660
     48 H          -3.8060    1.2300    1.7179 H       1  UNL1        0.0524
     49 H          -2.6905    2.5115    1.1838 H       1  UNL1        0.0524
     50 H          -2.3693    1.6170    2.6787 H       1  UNL1        0.0524
     51 H          -1.9705    3.4413   -1.3142 H       1  UNL1        0.0638
     52 H          -1.2549    5.7328   -0.8180 H       1  UNL1        0.0618
     53 H           0.9667    6.2013    0.2143 H       1  UNL1        0.0618
     54 H           2.4437    4.2714    0.7068 H       1  UNL1        0.0624
     55 H           4.3431   -3.0952    1.0750 H       1  UNL1        0.0624
     56 H           3.8720   -5.4510    0.7334 H       1  UNL1        0.0618
     57 H           1.7809   -6.1655   -0.2522 H       1  UNL1        0.0618
     58 H           0.0982   -4.4638   -0.9222 H       1  UNL1        0.0638
     59 H           5.9439    1.5271    2.0363 H       1  UNL1        0.1493
     60 H           4.3378    2.8297    0.4426 H       1  UNL1        0.0512
     61 H           3.5867    2.7671    2.1384 H       1  UNL1        0.0512
@<TRIPOS>BOND
     1     1     2    1
     2     2     3    1
     3     3     4    1
     4     4     5    1
     5     5     6    1
     6     6     7    1
     7     7     8    1
     8     7     9    1
     9     9    10    1
    10    10    11    1
    11     7    12    1
    12    12    13   ar
    13    13    14   ar
    14    14    15   ar
    15    15    16   ar
    16    16    17   ar
    17    17    18   ar
    18    18    19   ar
    19    19    20   ar
    20    20    21   ar
    21    21    22   ar
    22    22    23   ar
    23    23    24   ar
    24    24    25   ar
    25    25    26   ar
    26    26    27   ar
    27    27    28   ar
    28    28    29   ar
    29    29    30   ar
    30    30    31   ar
    31    21    32    1
    32    32    33    2
    33    32    34   am
    34    34    35    1
    35     9     3    1
    36    31    12   ar
    37    29     5    1
    38    18    13   ar
    39    31    19   ar
    40    35    20    1
    41    30    22   ar
    42    28    23   ar
    43     1    36    1
    44     1    37    1
    45     1    38    1
    46     2    39    1
    47     3    40    1
    48     4    41    1
    49     4    42    1
    50     5    43    1
    51     8    44    1
    52     8    45    1
    53     8    46    1
    54     9    47    1
    55    11    48    1
    56    11    49    1
    57    11    50    1
    58    14    51    1
    59    15    52    1
    60    16    53    1
    61    17    54    1
    62    24    55    1
    63    25    56    1
    64    26    57    1
    65    27    58    1
    66    34    59    1
    67    35    60    1
    68    35    61    1
