
     RDKit          3D

 85 89  0  0  0  0  0  0  0  0999 V2000
    9.8577    4.3800   -1.8846 C   0  0  0  0  0  0  0  0  0  0  0  0
    9.8391    3.0243   -1.5237 O   0  0  0  0  0  0  0  0  0  0  0  0
    8.6925    2.4650   -0.9822 C   0  0  0  0  0  0  0  0  0  0  0  0
    8.6190    1.1435   -0.6120 C   0  0  0  0  0  0  0  0  0  0  0  0
    7.4921    0.5911   -0.0791 N   0  0  0  0  0  0  0  0  0  0  0  0
    6.4168    1.3658    0.0897 C   0  0  0  0  0  0  0  0  0  0  0  0
    5.1763    0.8423    0.6537 C   0  0  0  0  0  0  0  0  0  0  0  0
    4.0641    1.6330    0.8309 C   0  0  0  0  0  0  0  0  0  0  0  0
    2.9053    1.1196    1.3632 C   0  0  0  0  0  0  0  0  0  0  0  0
    2.7647   -0.1916    1.7526 C   0  0  0  0  0  0  0  0  0  0  0  0
    1.5382   -0.7389    2.3569 C   0  0  0  0  0  0  0  0  0  0  0  0
    0.4201   -0.9339    1.4917 N   0  0  0  0  0  0  0  0  0  0  0  0
    0.0550   -2.0147    0.7226 C   0  0  0  0  0  0  0  0  0  0  0  0
    0.8468   -3.2534    0.6214 C   0  0  0  0  0  0  0  0  0  0  0  0
    1.6005   -3.5101   -0.6148 C   0  0  0  0  0  0  0  0  0  0  0  0
    2.3905   -4.8450   -0.4128 C   0  0  0  0  0  0  0  0  0  0  0  0
    2.5812   -2.5025   -1.0729 C   0  0  0  0  0  0  0  0  0  0  0  0
    0.6740   -3.9041   -1.7504 C   0  0  0  0  0  0  0  0  0  0  0  0
    0.5391   -3.2218   -2.7743 O   0  0  0  0  0  0  0  0  0  0  0  0
   -0.0171   -5.0940   -1.5680 O   0  0  0  0  0  0  0  0  0  0  0  0
   -1.1323   -1.7424    0.1141 C   0  0  0  0  0  0  0  0  0  0  0  0
   -2.1244   -2.7272   -0.9479 S   0  0  0  0  0  0  0  0  0  0  0  0
   -3.3333   -3.7332   -0.0874 C   0  0  0  0  0  0  0  0  0  0  0  0
   -2.7355   -4.8033    0.7742 C   0  0  0  0  0  0  0  0  0  0  0  0
   -4.2780   -2.8716    0.7158 C   0  0  0  0  0  0  0  0  0  0  0  0
   -4.1879   -4.4352   -1.1479 C   0  0  0  0  0  0  0  0  0  0  0  0
   -1.5186   -0.4604    0.5088 C   0  0  0  0  0  0  0  0  0  0  0  0
   -2.6177    0.3154    0.2109 C   0  0  0  0  0  0  0  0  0  0  0  0
   -2.8092    1.5731    0.7243 C   0  0  0  0  0  0  0  0  0  0  0  0
   -3.8958    2.3887    0.4542 O   0  0  0  0  0  0  0  0  0  0  0  0
   -4.9564    2.0486   -0.3818 C   0  0  0  0  0  0  0  0  0  0  0  0
   -5.9048    3.2063   -0.3921 C   0  0  0  0  0  0  0  0  0  0  0  0
   -5.6740    4.3568    0.3327 C   0  0  0  0  0  0  0  0  0  0  0  0
   -6.5916    5.4000    0.2851 C   0  0  0  0  0  0  0  0  0  0  0  0
   -7.7027    5.2483   -0.4868 C   0  0  0  0  0  0  0  0  0  0  0  0
   -8.7298    6.3143   -0.5917 C   0  0  0  0  0  0  0  0  0  0  0  0
   -7.9017    4.0834   -1.1990 C   0  0  0  0  0  0  0  0  0  0  0  0
   -7.0132    3.0878   -1.1454 N   0  0  0  0  0  0  0  0  0  0  0  0
   -1.8199    2.0449    1.5820 C   0  0  0  0  0  0  0  0  0  0  0  0
   -0.7151    1.2849    1.8913 C   0  0  0  0  0  0  0  0  0  0  0  0
   -0.5465    0.0049    1.3514 C   0  0  0  0  0  0  0  0  0  0  0  0
    3.9034   -0.9808    1.5659 C   0  0  0  0  0  0  0  0  0  0  0  0
    5.0729   -0.4922    1.0363 C   0  0  0  0  0  0  0  0  0  0  0  0
    6.4831    2.6520   -0.2688 N   0  0  0  0  0  0  0  0  0  0  0  0
    7.5634    3.2410   -0.7951 C   0  0  0  0  0  0  0  0  0  0  0  0
    9.6242    5.0557   -1.0120 H   0  0  0  0  0  0  0  0  0  0  0  0
   10.8777    4.6348   -2.2311 H   0  0  0  0  0  0  0  0  0  0  0  0
    9.1590    4.5940   -2.7240 H   0  0  0  0  0  0  0  0  0  0  0  0
    9.4997    0.5310   -0.7563 H   0  0  0  0  0  0  0  0  0  0  0  0
    4.1722    2.6758    0.5232 H   0  0  0  0  0  0  0  0  0  0  0  0
    2.0890    1.8106    1.4637 H   0  0  0  0  0  0  0  0  0  0  0  0
    1.2040   -0.0925    3.2331 H   0  0  0  0  0  0  0  0  0  0  0  0
    1.8472   -1.6851    2.8734 H   0  0  0  0  0  0  0  0  0  0  0  0
    0.1903   -4.1627    0.8315 H   0  0  0  0  0  0  0  0  0  0  0  0
    1.5817   -3.3253    1.4923 H   0  0  0  0  0  0  0  0  0  0  0  0
    2.6574   -5.2470   -1.3929 H   0  0  0  0  0  0  0  0  0  0  0  0
    3.3110   -4.5303    0.1217 H   0  0  0  0  0  0  0  0  0  0  0  0
    1.8042   -5.5291    0.2217 H   0  0  0  0  0  0  0  0  0  0  0  0
    3.6279   -2.7044   -0.7225 H   0  0  0  0  0  0  0  0  0  0  0  0
    2.3380   -1.4752   -0.8046 H   0  0  0  0  0  0  0  0  0  0  0  0
    2.6741   -2.6300   -2.1969 H   0  0  0  0  0  0  0  0  0  0  0  0
   -0.6934   -5.4415   -2.2589 H   0  0  0  0  0  0  0  0  0  0  0  0
   -3.5877   -5.4426    1.1274 H   0  0  0  0  0  0  0  0  0  0  0  0
   -2.1922   -4.3482    1.6195 H   0  0  0  0  0  0  0  0  0  0  0  0
   -2.0685   -5.4623    0.2208 H   0  0  0  0  0  0  0  0  0  0  0  0
   -5.0021   -3.5256    1.2301 H   0  0  0  0  0  0  0  0  0  0  0  0
   -3.6561   -2.2798    1.4338 H   0  0  0  0  0  0  0  0  0  0  0  0
   -4.7870   -2.1663    0.0202 H   0  0  0  0  0  0  0  0  0  0  0  0
   -4.7599   -3.6881   -1.7392 H   0  0  0  0  0  0  0  0  0  0  0  0
   -4.8563   -5.1813   -0.7142 H   0  0  0  0  0  0  0  0  0  0  0  0
   -3.4912   -4.9289   -1.8728 H   0  0  0  0  0  0  0  0  0  0  0  0
   -3.3882   -0.0536   -0.4584 H   0  0  0  0  0  0  0  0  0  0  0  0
   -5.4697    1.1592    0.0529 H   0  0  0  0  0  0  0  0  0  0  0  0
   -4.6524    1.7754   -1.4063 H   0  0  0  0  0  0  0  0  0  0  0  0
   -4.7734    4.4185    0.9276 H   0  0  0  0  0  0  0  0  0  0  0  0
   -6.4123    6.3062    0.8548 H   0  0  0  0  0  0  0  0  0  0  0  0
   -8.9451    6.7515    0.3833 H   0  0  0  0  0  0  0  0  0  0  0  0
   -8.2935    7.1069   -1.2545 H   0  0  0  0  0  0  0  0  0  0  0  0
   -9.6587    5.9377   -1.0514 H   0  0  0  0  0  0  0  0  0  0  0  0
   -8.7782    3.9301   -1.8252 H   0  0  0  0  0  0  0  0  0  0  0  0
   -1.9156    3.0312    2.0190 H   0  0  0  0  0  0  0  0  0  0  0  0
    0.0089    1.7003    2.5642 H   0  0  0  0  0  0  0  0  0  0  0  0
    3.8601   -2.0365    1.8558 H   0  0  0  0  0  0  0  0  0  0  0  0
    5.9561   -1.1165    0.8948 H   0  0  0  0  0  0  0  0  0  0  0  0
    7.6087    4.2748   -1.0804 H   0  0  0  0  0  0  0  0  0  0  0  0
  1  2  1  0
  2  3  1  0
  3  4  2  0
  4  5  1  0
  5  6  2  0
  6  7  1  0
  7  8  2  0
  8  9  1  0
  9 10  2  0
 10 11  1  0
 11 12  1  0
 12 13  1  0
 13 14  1  0
 14 15  1  0
 15 16  1  0
 15 17  1  0
 15 18  1  0
 18 19  2  0
 18 20  1  0
 13 21  2  0
 21 22  1  0
 22 23  1  0
 23 24  1  0
 23 25  1  0
 23 26  1  0
 21 27  1  0
 27 28  2  0
 28 29  1  0
 29 30  1  0
 30 31  1  0
 31 32  1  0
 32 33  2  0
 33 34  1  0
 34 35  2  0
 35 36  1  0
 35 37  1  0
 37 38  2  0
 29 39  2  0
 39 40  1  0
 40 41  2  0
 10 42  1  0
 42 43  2  0
  6 44  1  0
 44 45  2  0
 45  3  1  0
 43  7  1  0
 41 12  1  0
 41 27  1  0
 38 32  1  0
  1 46  1  0
  1 47  1  0
  1 48  1  0
  4 49  1  0
  8 50  1  0
  9 51  1  0
 11 52  1  0
 11 53  1  0
 14 54  1  0
 14 55  1  0
 16 56  1  0
 16 57  1  0
 16 58  1  0
 17 59  1  0
 17 60  1  0
 17 61  1  0
 20 62  1  0
 24 63  1  0
 24 64  1  0
 24 65  1  0
 25 66  1  0
 25 67  1  0
 25 68  1  0
 26 69  1  0
 26 70  1  0
 26 71  1  0
 28 72  1  0
 31 73  1  0
 31 74  1  0
 33 75  1  0
 34 76  1  0
 36 77  1  0
 36 78  1  0
 36 79  1  0
 37 80  1  0
 39 81  1  0
 40 82  1  0
 42 83  1  0
 43 84  1  0
 45 85  1  0
M  END
$$$$
