@<TRIPOS>MOLECULE
*****
 85 89 0 0 0
SMALL
GASTEIGER

@<TRIPOS>ATOM
      1 C           9.8577    4.3800   -1.8846 C.3     1  UNL1        0.0789
      2 O           9.8391    3.0243   -1.5237 O.3     1  UNL1       -0.4921
      3 C           8.6925    2.4650   -0.9822 C.ar    1  UNL1        0.1561
      4 C           8.6190    1.1435   -0.6120 C.ar    1  UNL1        0.0731
      5 N           7.4921    0.5911   -0.0791 N.ar    1  UNL1       -0.2320
      6 C           6.4168    1.3658    0.0897 C.ar    1  UNL1        0.1599
      7 C           5.1763    0.8423    0.6537 C.ar    1  UNL1        0.0191
      8 C           4.0641    1.6330    0.8309 C.ar    1  UNL1       -0.0507
      9 C           2.9053    1.1196    1.3632 C.ar    1  UNL1       -0.0562
     10 C           2.7647   -0.1916    1.7526 C.ar    1  UNL1       -0.0277
     11 C           1.5382   -0.7389    2.3569 C.3     1  UNL1        0.0486
     12 N           0.4201   -0.9339    1.4917 N.ar    1  UNL1       -0.3383
     13 C           0.0550   -2.0147    0.7226 C.ar    1  UNL1        0.0346
     14 C           0.8468   -3.2534    0.6214 C.3     1  UNL1        0.0040
     15 C           1.6005   -3.5101   -0.6148 C.3     1  UNL1        0.0673
     16 C           2.3905   -4.8450   -0.4128 C.3     1  UNL1       -0.0493
     17 C           2.5812   -2.5025   -1.0729 C.3     1  UNL1       -0.0493
     18 C           0.6740   -3.9041   -1.7504 C.2     1  UNL1        0.3108
     19 O           0.5391   -3.2218   -2.7743 O.2     1  UNL1       -0.2504
     20 O          -0.0171   -5.0940   -1.5680 O.3     1  UNL1       -0.4802
     21 C          -1.1323   -1.7424    0.1141 C.ar    1  UNL1        0.0370
     22 S          -2.1244   -2.7272   -0.9479 S.3     1  UNL1       -0.1169
     23 C          -3.3333   -3.7332   -0.0874 C.3     1  UNL1        0.0129
     24 C          -2.7355   -4.8033    0.7742 C.3     1  UNL1       -0.0506
     25 C          -4.2780   -2.8716    0.7158 C.3     1  UNL1       -0.0506
     26 C          -4.1879   -4.4352   -1.1479 C.3     1  UNL1       -0.0506
     27 C          -1.5186   -0.4604    0.5088 C.ar    1  UNL1        0.0170
     28 C          -2.6177    0.3154    0.2109 C.ar    1  UNL1       -0.0097
     29 C          -2.8092    1.5731    0.7243 C.ar    1  UNL1        0.1218
     30 O          -3.8958    2.3887    0.4542 O.3     1  UNL1       -0.4858
     31 C          -4.9564    2.0486   -0.3818 C.3     1  UNL1        0.1313
     32 C          -5.9048    3.2063   -0.3921 C.ar    1  UNL1        0.0785
     33 C          -5.6740    4.3568    0.3327 C.ar    1  UNL1       -0.0368
     34 C          -6.5916    5.4000    0.2851 C.ar    1  UNL1       -0.0556
     35 C          -7.7027    5.2483   -0.4868 C.ar    1  UNL1       -0.0323
     36 C          -8.7298    6.3143   -0.5917 C.3     1  UNL1       -0.0383
     37 C          -7.9017    4.0834   -1.1990 C.ar    1  UNL1        0.0309
     38 N          -7.0132    3.0878   -1.1454 N.ar    1  UNL1       -0.2562
     39 C          -1.8199    2.0449    1.5820 C.ar    1  UNL1       -0.0179
     40 C          -0.7151    1.2849    1.8913 C.ar    1  UNL1       -0.0341
     41 C          -0.5465    0.0049    1.3514 C.ar    1  UNL1        0.0509
     42 C           3.9034   -0.9808    1.5659 C.ar    1  UNL1       -0.0562
     43 C           5.0729   -0.4922    1.0363 C.ar    1  UNL1       -0.0507
     44 N           6.4831    2.6520   -0.2688 N.ar    1  UNL1       -0.2320
     45 C           7.5634    3.2410   -0.7951 C.ar    1  UNL1        0.0731
     46 H           9.6242    5.0557   -1.0120 H       1  UNL1        0.0660
     47 H          10.8777    4.6348   -2.2311 H       1  UNL1        0.0660
     48 H           9.1590    4.5940   -2.7240 H       1  UNL1        0.0660
     49 H           9.4997    0.5310   -0.7563 H       1  UNL1        0.0868
     50 H           4.1722    2.6758    0.5232 H       1  UNL1        0.0625
     51 H           2.0890    1.8106    1.4637 H       1  UNL1        0.0621
     52 H           1.2040   -0.0925    3.2331 H       1  UNL1        0.0541
     53 H           1.8472   -1.6851    2.8734 H       1  UNL1        0.0541
     54 H           0.1903   -4.1627    0.8315 H       1  UNL1        0.0338
     55 H           1.5817   -3.3253    1.4923 H       1  UNL1        0.0338
     56 H           2.6574   -5.2470   -1.3929 H       1  UNL1        0.0240
     57 H           3.3110   -4.5303    0.1217 H       1  UNL1        0.0240
     58 H           1.8042   -5.5291    0.2217 H       1  UNL1        0.0240
     59 H           3.6279   -2.7044   -0.7225 H       1  UNL1        0.0240
     60 H           2.3380   -1.4752   -0.8046 H       1  UNL1        0.0240
     61 H           2.6741   -2.6300   -2.1969 H       1  UNL1        0.0240
     62 H          -0.6934   -5.4415   -2.2589 H       1  UNL1        0.2951
     63 H          -3.5877   -5.4426    1.1274 H       1  UNL1        0.0243
     64 H          -2.1922   -4.3482    1.6195 H       1  UNL1        0.0243
     65 H          -2.0685   -5.4623    0.2208 H       1  UNL1        0.0243
     66 H          -5.0021   -3.5256    1.2301 H       1  UNL1        0.0243
     67 H          -3.6561   -2.2798    1.4338 H       1  UNL1        0.0243
     68 H          -4.7870   -2.1663    0.0202 H       1  UNL1        0.0243
     69 H          -4.7599   -3.6881   -1.7392 H       1  UNL1        0.0243
     70 H          -4.8563   -5.1813   -0.7142 H       1  UNL1        0.0243
     71 H          -3.4912   -4.9289   -1.8728 H       1  UNL1        0.0243
     72 H          -3.3882   -0.0536   -0.4584 H       1  UNL1        0.0661
     73 H          -5.4697    1.1592    0.0529 H       1  UNL1        0.0763
     74 H          -4.6524    1.7754   -1.4063 H       1  UNL1        0.0763
     75 H          -4.7734    4.4185    0.9276 H       1  UNL1        0.0637
     76 H          -6.4123    6.3062    0.8548 H       1  UNL1        0.0621
     77 H          -8.9451    6.7515    0.3833 H       1  UNL1        0.0278
     78 H          -8.2935    7.1069   -1.2545 H       1  UNL1        0.0278
     79 H          -9.6587    5.9377   -1.0514 H       1  UNL1        0.0278
     80 H          -8.7782    3.9301   -1.8252 H       1  UNL1        0.0832
     81 H          -1.9156    3.0312    2.0190 H       1  UNL1        0.0655
     82 H           0.0089    1.7003    2.5642 H       1  UNL1        0.0639
     83 H           3.8601   -2.0365    1.8558 H       1  UNL1        0.0621
     84 H           5.9561   -1.1165    0.8948 H       1  UNL1        0.0625
     85 H           7.6087    4.2748   -1.0804 H       1  UNL1        0.0868
@<TRIPOS>BOND
     1     1     2    1
     2     2     3    1
     3     3     4   ar
     4     4     5   ar
     5     5     6   ar
     6     6     7    1
     7     7     8   ar
     8     8     9   ar
     9     9    10   ar
    10    10    11    1
    11    11    12    1
    12    12    13   ar
    13    13    14    1
    14    14    15    1
    15    15    16    1
    16    15    17    1
    17    15    18    1
    18    18    19    2
    19    18    20    1
    20    13    21   ar
    21    21    22    1
    22    22    23    1
    23    23    24    1
    24    23    25    1
    25    23    26    1
    26    21    27   ar
    27    27    28   ar
    28    28    29   ar
    29    29    30    1
    30    30    31    1
    31    31    32    1
    32    32    33   ar
    33    33    34   ar
    34    34    35   ar
    35    35    36    1
    36    35    37   ar
    37    37    38   ar
    38    29    39   ar
    39    39    40   ar
    40    40    41   ar
    41    10    42   ar
    42    42    43   ar
    43     6    44   ar
    44    44    45   ar
    45    45     3   ar
    46    43     7   ar
    47    41    12   ar
    48    41    27   ar
    49    38    32   ar
    50     1    46    1
    51     1    47    1
    52     1    48    1
    53     4    49    1
    54     8    50    1
    55     9    51    1
    56    11    52    1
    57    11    53    1
    58    14    54    1
    59    14    55    1
    60    16    56    1
    61    16    57    1
    62    16    58    1
    63    17    59    1
    64    17    60    1
    65    17    61    1
    66    20    62    1
    67    24    63    1
    68    24    64    1
    69    24    65    1
    70    25    66    1
    71    25    67    1
    72    25    68    1
    73    26    69    1
    74    26    70    1
    75    26    71    1
    76    28    72    1
    77    31    73    1
    78    31    74    1
    79    33    75    1
    80    34    76    1
    81    36    77    1
    82    36    78    1
    83    36    79    1
    84    37    80    1
    85    39    81    1
    86    40    82    1
    87    42    83    1
    88    43    84    1
    89    45    85    1
