
     RDKit          3D

 62 66  0  0  0  0  0  0  0  0999 V2000
   -6.6926   -0.6198    0.1223 C   0  0  0  0  0  0  0  0  0  0  0  0
   -5.3438   -0.0985    0.2722 N   0  0  0  0  0  0  0  0  0  0  0  0
   -4.8733    0.9500   -0.3808 C   0  0  0  0  0  0  0  0  0  0  0  0
   -3.5530    1.2193   -0.0396 C   0  0  0  0  0  0  0  0  0  0  0  0
   -2.7751    2.3115   -0.5755 C   0  0  0  0  0  0  0  0  0  0  0  0
   -1.5687    2.3146   -1.0497 C   0  0  0  0  0  0  0  0  0  0  0  0
   -0.6441    1.2147   -1.1854 C   0  0  0  0  0  0  0  0  0  0  0  0
    0.7004    1.2045   -0.7619 C   0  0  0  0  0  0  0  0  0  0  0  0
    1.2876    0.0646   -1.0422 N   0  0  0  0  0  0  0  0  0  0  0  0
    2.6803   -0.3240   -0.7546 C   0  0  0  0  0  0  0  0  0  0  0  0
    2.7416   -0.9545    0.5920 C   0  0  0  0  0  0  0  0  0  0  0  0
    4.1235   -1.3751    0.9301 C   0  0  0  0  0  0  0  0  0  0  0  0
    5.1242   -0.3601    0.9891 N   0  0  0  0  0  4  0  0  0  0  0  0
    5.7372   -0.0216   -0.2635 C   0  0  0  0  0  0  0  0  0  0  0  0
    4.7078    0.8637    1.6431 C   0  0  0  0  0  0  0  0  0  0  0  0
    6.2088   -0.9051    1.8460 C   0  0  0  0  0  0  0  0  0  0  0  0
    0.3683   -0.7057   -1.6511 C   0  0  0  0  0  0  0  0  0  0  0  0
    0.4538   -1.9902   -2.1597 C   0  0  0  0  0  0  0  0  0  0  0  0
   -0.6512   -2.5596   -2.7562 C   0  0  0  0  0  0  0  0  0  0  0  0
   -1.8368   -1.8595   -2.8491 C   0  0  0  0  0  0  0  0  0  0  0  0
   -1.9528   -0.5773   -2.3509 C   0  0  0  0  0  0  0  0  0  0  0  0
   -0.8450   -0.0124   -1.7539 C   0  0  0  0  0  0  0  0  0  0  0  0
   -1.2269    3.6933   -1.4720 C   0  0  0  0  0  0  0  0  0  0  0  0
   -0.1335    4.0499   -1.9752 O   0  0  0  0  0  0  0  0  0  0  0  0
   -2.3331    4.5510   -1.2175 N   0  0  0  0  0  0  0  0  0  0  0  0
   -3.3214    3.7004   -0.6517 C   0  0  0  0  0  0  0  0  0  0  0  0
   -4.4635    4.0753   -0.2823 O   0  0  0  0  0  0  0  0  0  0  0  0
   -3.2269    0.2565    0.8833 C   0  0  0  0  0  0  0  0  0  0  0  0
   -2.0849   -0.0123    1.5993 C   0  0  0  0  0  0  0  0  0  0  0  0
   -2.0265   -1.0637    2.4885 C   0  0  0  0  0  0  0  0  0  0  0  0
   -3.1504   -1.8640    2.6600 C   0  0  0  0  0  0  0  0  0  0  0  0
   -4.3148   -1.6044    1.9435 C   0  0  0  0  0  0  0  0  0  0  0  0
   -4.3606   -0.5500    1.0574 C   0  0  0  0  0  0  0  0  0  0  0  0
   -7.3636    0.1242    0.6134 H   0  0  0  0  0  0  0  0  0  0  0  0
   -6.9841   -0.6352   -0.9586 H   0  0  0  0  0  0  0  0  0  0  0  0
   -6.7953   -1.6266    0.5419 H   0  0  0  0  0  0  0  0  0  0  0  0
   -5.4261    1.5405   -1.0952 H   0  0  0  0  0  0  0  0  0  0  0  0
    1.1424    2.0600   -0.2711 H   0  0  0  0  0  0  0  0  0  0  0  0
    3.0279   -1.0222   -1.5375 H   0  0  0  0  0  0  0  0  0  0  0  0
    3.3407    0.5552   -0.7942 H   0  0  0  0  0  0  0  0  0  0  0  0
    2.3122   -0.2788    1.3811 H   0  0  0  0  0  0  0  0  0  0  0  0
    2.0637   -1.8455    0.6151 H   0  0  0  0  0  0  0  0  0  0  0  0
    4.1395   -1.9973    1.8736 H   0  0  0  0  0  0  0  0  0  0  0  0
    4.4717   -2.1137    0.1471 H   0  0  0  0  0  0  0  0  0  0  0  0
    5.3535   -0.6839   -1.0611 H   0  0  0  0  0  0  0  0  0  0  0  0
    6.8326   -0.2186   -0.2277 H   0  0  0  0  0  0  0  0  0  0  0  0
    5.6440    1.0616   -0.5014 H   0  0  0  0  0  0  0  0  0  0  0  0
    5.5496    1.2329    2.2958 H   0  0  0  0  0  0  0  0  0  0  0  0
    4.5143    1.6814    0.9196 H   0  0  0  0  0  0  0  0  0  0  0  0
    3.8177    0.7411    2.2770 H   0  0  0  0  0  0  0  0  0  0  0  0
    6.3551   -1.9699    1.6281 H   0  0  0  0  0  0  0  0  0  0  0  0
    7.1464   -0.3519    1.6168 H   0  0  0  0  0  0  0  0  0  0  0  0
    5.8886   -0.7830    2.9001 H   0  0  0  0  0  0  0  0  0  0  0  0
    1.4060   -2.5130   -2.0683 H   0  0  0  0  0  0  0  0  0  0  0  0
   -0.5627   -3.5721   -3.1503 H   0  0  0  0  0  0  0  0  0  0  0  0
   -2.7010   -2.2955   -3.3119 H   0  0  0  0  0  0  0  0  0  0  0  0
   -2.8875   -0.0259   -2.4420 H   0  0  0  0  0  0  0  0  0  0  0  0
   -2.3364    5.5593   -1.4277 H   0  0  0  0  0  0  0  0  0  0  0  0
   -1.2268    0.6036    1.4831 H   0  0  0  0  0  0  0  0  0  0  0  0
   -1.1523   -1.3134    3.0715 H   0  0  0  0  0  0  0  0  0  0  0  0
   -3.1489   -2.6887    3.3386 H   0  0  0  0  0  0  0  0  0  0  0  0
   -5.1761   -2.2362    2.0912 H   0  0  0  0  0  0  0  0  0  0  0  0
  1  2  1  0
  2  3  1  0
  3  4  2  0
  4  5  1  0
  5  6  2  0
  6  7  1  0
  7  8  2  0
  8  9  1  0
  9 10  1  0
 10 11  1  0
 11 12  1  0
 12 13  1  0
 13 14  1  0
 13 15  1  0
 13 16  1  0
  9 17  1  0
 17 18  2  0
 18 19  1  0
 19 20  2  0
 20 21  1  0
 21 22  2  0
  6 23  1  0
 23 24  2  0
 23 25  1  0
 25 26  1  0
 26 27  2  0
  4 28  1  0
 28 29  2  0
 29 30  1  0
 30 31  2  0
 31 32  1  0
 32 33  2  0
 33  2  1  0
 26  5  1  0
 33 28  1  0
 22  7  1  0
 22 17  1  0
  1 34  1  0
  1 35  1  0
  1 36  1  0
  3 37  1  0
  8 38  1  0
 10 39  1  0
 10 40  1  0
 11 41  1  0
 11 42  1  0
 12 43  1  0
 12 44  1  0
 14 45  1  0
 14 46  1  0
 14 47  1  0
 15 48  1  0
 15 49  1  0
 15 50  1  0
 16 51  1  0
 16 52  1  0
 16 53  1  0
 18 54  1  0
 19 55  1  0
 20 56  1  0
 21 57  1  0
 25 58  1  0
 29 59  1  0
 30 60  1  0
 31 61  1  0
 32 62  1  0
M  CHG  1  13   1
M  END
$$$$
