@<TRIPOS>MOLECULE
*****
 62 66 0 0 0
SMALL
GASTEIGER

@<TRIPOS>ATOM
      1 C          -6.6926   -0.6198    0.1223 C.3     1  UNL1        0.0119
      2 N          -5.3438   -0.0985    0.2722 N.ar    1  UNL1       -0.3491
      3 C          -4.8733    0.9500   -0.3808 C.ar    1  UNL1        0.0133
      4 C          -3.5530    1.2193   -0.0396 C.ar    1  UNL1        0.0131
      5 C          -2.7751    2.3115   -0.5755 C.2     1  UNL1        0.0590
      6 C          -1.5687    2.3146   -1.0497 C.2     1  UNL1        0.0590
      7 C          -0.6441    1.2147   -1.1854 C.ar    1  UNL1        0.0131
      8 C           0.7004    1.2045   -0.7619 C.ar    1  UNL1        0.0136
      9 N           1.2876    0.0646   -1.0422 N.ar    1  UNL1       -0.3458
     10 C           2.6803   -0.3240   -0.7546 C.3     1  UNL1        0.0281
     11 C           2.7416   -0.9545    0.5920 C.3     1  UNL1        0.0055
     12 C           4.1235   -1.3751    0.9301 C.3     1  UNL1       -0.0292
     13 N           5.1242   -0.3601    0.9891 N.4     1  UNL1        0.2369
     14 C           5.7372   -0.0216   -0.2635 C.3     1  UNL1       -0.0418
     15 C           4.7078    0.8637    1.6431 C.3     1  UNL1       -0.0418
     16 C           6.2088   -0.9051    1.8460 C.3     1  UNL1       -0.0418
     17 C           0.3683   -0.7057   -1.6511 C.ar    1  UNL1        0.0497
     18 C           0.4538   -1.9902   -2.1597 C.ar    1  UNL1       -0.0376
     19 C          -0.6512   -2.5596   -2.7562 C.ar    1  UNL1       -0.0598
     20 C          -1.8368   -1.8595   -2.8491 C.ar    1  UNL1       -0.0611
     21 C          -1.9528   -0.5773   -2.3509 C.ar    1  UNL1       -0.0520
     22 C          -0.8450   -0.0124   -1.7539 C.ar    1  UNL1        0.0077
     23 C          -1.2269    3.6933   -1.4720 C.2     1  UNL1        0.2519
     24 O          -0.1335    4.0499   -1.9752 O.2     1  UNL1       -0.2697
     25 N          -2.3331    4.5510   -1.2175 N.am    1  UNL1       -0.2483
     26 C          -3.3214    3.7004   -0.6517 C.2     1  UNL1        0.2519
     27 O          -4.4635    4.0753   -0.2823 O.2     1  UNL1       -0.2697
     28 C          -3.2269    0.2565    0.8833 C.ar    1  UNL1        0.0077
     29 C          -2.0849   -0.0123    1.5993 C.ar    1  UNL1       -0.0520
     30 C          -2.0265   -1.0637    2.4885 C.ar    1  UNL1       -0.0611
     31 C          -3.1504   -1.8640    2.6600 C.ar    1  UNL1       -0.0598
     32 C          -4.3148   -1.6044    1.9435 C.ar    1  UNL1       -0.0376
     33 C          -4.3606   -0.5500    1.0574 C.ar    1  UNL1        0.0494
     34 H          -7.3636    0.1242    0.6134 H       1  UNL1        0.0456
     35 H          -6.9841   -0.6352   -0.9586 H       1  UNL1        0.0456
     36 H          -6.7953   -1.6266    0.5419 H       1  UNL1        0.0456
     37 H          -5.4261    1.5405   -1.0952 H       1  UNL1        0.0815
     38 H           1.1424    2.0600   -0.2711 H       1  UNL1        0.0815
     39 H           3.0279   -1.0222   -1.5375 H       1  UNL1        0.0493
     40 H           3.3407    0.5552   -0.7942 H       1  UNL1        0.0493
     41 H           2.3122   -0.2788    1.3811 H       1  UNL1        0.0334
     42 H           2.0637   -1.8455    0.6151 H       1  UNL1        0.0334
     43 H           4.1395   -1.9973    1.8736 H       1  UNL1        0.0815
     44 H           4.4717   -2.1137    0.1471 H       1  UNL1        0.0815
     45 H           5.3535   -0.6839   -1.0611 H       1  UNL1        0.0778
     46 H           6.8326   -0.2186   -0.2277 H       1  UNL1        0.0778
     47 H           5.6440    1.0616   -0.5014 H       1  UNL1        0.0778
     48 H           5.5496    1.2329    2.2958 H       1  UNL1        0.0778
     49 H           4.5143    1.6814    0.9196 H       1  UNL1        0.0778
     50 H           3.8177    0.7411    2.2770 H       1  UNL1        0.0778
     51 H           6.3551   -1.9699    1.6281 H       1  UNL1        0.0778
     52 H           7.1464   -0.3519    1.6168 H       1  UNL1        0.0778
     53 H           5.8886   -0.7830    2.9001 H       1  UNL1        0.0778
     54 H           1.4060   -2.5130   -2.0683 H       1  UNL1        0.0638
     55 H          -0.5627   -3.5721   -3.1503 H       1  UNL1        0.0618
     56 H          -2.7010   -2.2955   -3.3119 H       1  UNL1        0.0618
     57 H          -2.8875   -0.0259   -2.4420 H       1  UNL1        0.0624
     58 H          -2.3364    5.5593   -1.4277 H       1  UNL1        0.1581
     59 H          -1.2268    0.6036    1.4831 H       1  UNL1        0.0624
     60 H          -1.1523   -1.3134    3.0715 H       1  UNL1        0.0618
     61 H          -3.1489   -2.6887    3.3386 H       1  UNL1        0.0618
     62 H          -5.1761   -2.2362    2.0912 H       1  UNL1        0.0638
@<TRIPOS>UNITY_ATOM_ATTR
13 1
charge 1
@<TRIPOS>BOND
     1     1     2    1
     2     2     3   ar
     3     3     4   ar
     4     4     5    1
     5     5     6    2
     6     6     7    1
     7     7     8   ar
     8     8     9   ar
     9     9    10    1
    10    10    11    1
    11    11    12    1
    12    12    13    1
    13    13    14    1
    14    13    15    1
    15    13    16    1
    16     9    17   ar
    17    17    18   ar
    18    18    19   ar
    19    19    20   ar
    20    20    21   ar
    21    21    22   ar
    22     6    23    1
    23    23    24    2
    24    23    25   am
    25    25    26   am
    26    26    27    2
    27     4    28   ar
    28    28    29   ar
    29    29    30   ar
    30    30    31   ar
    31    31    32   ar
    32    32    33   ar
    33    33     2   ar
    34    26     5    1
    35    33    28   ar
    36    22     7   ar
    37    22    17   ar
    38     1    34    1
    39     1    35    1
    40     1    36    1
    41     3    37    1
    42     8    38    1
    43    10    39    1
    44    10    40    1
    45    11    41    1
    46    11    42    1
    47    12    43    1
    48    12    44    1
    49    14    45    1
    50    14    46    1
    51    14    47    1
    52    15    48    1
    53    15    49    1
    54    15    50    1
    55    16    51    1
    56    16    52    1
    57    16    53    1
    58    18    54    1
    59    19    55    1
    60    20    56    1
    61    21    57    1
    62    25    58    1
    63    29    59    1
    64    30    60    1
    65    31    61    1
    66    32    62    1
