@<TRIPOS>MOLECULE
*****
 114 121 0 0 0
SMALL
GASTEIGER

@<TRIPOS>ATOM
      1 C         -10.3586    0.4339    2.4254 C.3     1  UNL1       -0.0437
      2 C          -9.1693   -0.0526    1.6829 C.2     1  UNL1       -0.0739
      3 C          -9.3150   -0.8138    0.6149 C.2     1  UNL1       -0.0812
      4 C          -8.2860   -1.8192    0.1576 C.3     1  UNL1       -0.0122
      5 C          -7.8475   -1.4574   -1.2906 C.3     1  UNL1       -0.0055
      6 C          -7.9361    0.0447   -1.2545 C.ar    1  UNL1        0.0248
      7 N          -8.5025    0.6812   -2.2711 N.ar    1  UNL1       -0.3259
      8 C          -8.6720    2.0359   -2.2261 C.ar    1  UNL1        0.2489
      9 O          -9.2136    2.6600   -3.1921 O.2     1  UNL1       -0.2679
     10 C          -8.2372    2.6832   -1.1049 C.ar    1  UNL1        0.0031
     11 C          -7.6529    2.0241   -0.0603 C.ar    1  UNL1       -0.0498
     12 C          -7.4777    0.6660   -0.0970 C.ar    1  UNL1       -0.0039
     13 C          -6.8700   -0.0172    1.0476 C.3     1  UNL1        0.0711
     14 C          -7.8038    0.3711    2.2211 C.3     1  UNL1       -0.0059
     15 C          -7.0924   -1.5619    0.9930 C.3     1  UNL1       -0.0083
     16 C          -5.8284   -2.2653    0.6585 C.3     1  UNL1       -0.0460
     17 C          -4.9678   -2.1858    1.9481 C.3     1  UNL1       -0.0368
     18 C          -5.0176   -0.7478    2.4450 C.3     1  UNL1        0.0156
     19 N          -5.4942    0.1035    1.2953 N.am    1  UNL1       -0.2900
     20 C          -4.4426    0.7986    0.6579 C.2     1  UNL1        0.2303
     21 O          -3.2418    0.6718    1.1360 O.2     1  UNL1       -0.2742
     22 C          -4.5725    1.6501   -0.5098 C.3     1  UNL1        0.0757
     23 N          -3.3630    2.1702   -1.0996 N.3     1  UNL1       -0.2971
     24 C          -2.6664    3.0924   -0.3198 C.3     1  UNL1       -0.0123
     25 C          -2.7203    1.3743   -2.0552 C.3     1  UNL1       -0.0009
     26 C          -1.9699    0.1713   -1.6154 C.3     1  UNL1       -0.0402
     27 C          -0.7439    0.5165   -0.7947 C.3     1  UNL1       -0.0519
     28 C          -0.0164   -0.6852   -0.2543 C.3     1  UNL1       -0.0519
     29 C           1.1890   -0.1305    0.5112 C.3     1  UNL1       -0.0402
     30 C           2.0821    0.6423   -0.4321 C.3     1  UNL1       -0.0009
     31 N           2.5230   -0.2561   -1.4920 N.3     1  UNL1       -0.2971
     32 C           3.1290    0.5388   -2.5690 C.3     1  UNL1       -0.0123
     33 C           3.5257   -1.1952   -0.9876 C.3     1  UNL1        0.0757
     34 C           4.8284   -0.5250   -0.6955 C.2     1  UNL1        0.2303
     35 O           4.8754    0.6986   -0.9474 O.2     1  UNL1       -0.2742
     36 N           5.8876   -1.2822   -0.1741 N.am    1  UNL1       -0.2900
     37 C           5.6309   -2.6924    0.1547 C.3     1  UNL1        0.0156
     38 C           5.5267   -2.7274    1.6817 C.3     1  UNL1       -0.0368
     39 C           6.2046   -1.4810    2.2974 C.3     1  UNL1       -0.0460
     40 C           7.4710   -1.2952    1.5454 C.3     1  UNL1       -0.0083
     41 C           8.5090   -0.4139    2.1187 C.3     1  UNL1       -0.0122
     42 C           9.6197   -0.3654    1.0893 C.2     1  UNL1       -0.0812
     43 C           9.6156   -1.0982   -0.0184 C.2     1  UNL1       -0.0739
     44 C          10.8528   -1.5566   -0.7075 C.3     1  UNL1       -0.0437
     45 C           8.3073   -1.5315   -0.6904 C.3     1  UNL1       -0.0059
     46 C           7.2064   -0.8178    0.1077 C.3     1  UNL1        0.0711
     47 C           7.4644    0.6065   -0.1084 C.ar    1  UNL1       -0.0039
     48 C           7.3983    1.1017   -1.3924 C.ar    1  UNL1       -0.0498
     49 C           7.6182    2.4260   -1.6931 C.ar    1  UNL1        0.0031
     50 C           7.9178    3.2909   -0.6640 C.ar    1  UNL1        0.2489
     51 O           8.1271    4.5286   -0.8982 O.2     1  UNL1       -0.2679
     52 N           7.9837    2.8022    0.5923 N.ar    1  UNL1       -0.3259
     53 C           7.7724    1.5187    0.8863 C.ar    1  UNL1        0.0248
     54 C           7.9395    1.0029    2.3049 C.3     1  UNL1       -0.0055
     55 H         -10.0893    1.1080    3.2453 H       1  UNL1        0.0274
     56 H         -10.8689   -0.4834    2.8166 H       1  UNL1        0.0274
     57 H         -11.0247    0.9507    1.6828 H       1  UNL1        0.0274
     58 H         -10.2061   -0.7241    0.0242 H       1  UNL1        0.0575
     59 H          -8.6531   -2.8315    0.1763 H       1  UNL1        0.0350
     60 H          -8.5374   -1.9215   -1.9863 H       1  UNL1        0.0333
     61 H          -6.8382   -1.8296   -1.4557 H       1  UNL1        0.0333
     62 H          -8.8414    0.1713   -3.1420 H       1  UNL1        0.1686
     63 H          -8.3712    3.7807   -1.0605 H       1  UNL1        0.0672
     64 H          -7.3367    2.6454    0.7862 H       1  UNL1        0.0623
     65 H          -7.7542    1.4530    2.3568 H       1  UNL1        0.0334
     66 H          -7.6129   -0.1915    3.1258 H       1  UNL1        0.0334
     67 H          -7.3581   -1.8558    2.0490 H       1  UNL1        0.0331
     68 H          -5.2168   -1.7378   -0.1123 H       1  UNL1        0.0269
     69 H          -6.0209   -3.3036    0.3721 H       1  UNL1        0.0269
     70 H          -3.9570   -2.5552    1.7710 H       1  UNL1        0.0280
     71 H          -5.4812   -2.8306    2.6840 H       1  UNL1        0.0280
     72 H          -4.0083   -0.4540    2.7419 H       1  UNL1        0.0465
     73 H          -5.7103   -0.6121    3.2523 H       1  UNL1        0.0465
     74 H          -5.2427    1.2634   -1.2873 H       1  UNL1        0.0522
     75 H          -5.0689    2.6112   -0.1214 H       1  UNL1        0.0522
     76 H          -1.6902    3.3434   -0.8056 H       1  UNL1        0.0391
     77 H          -2.5487    2.8694    0.7554 H       1  UNL1        0.0391
     78 H          -3.2247    4.0753   -0.3354 H       1  UNL1        0.0391
     79 H          -2.0273    1.9776   -2.6997 H       1  UNL1        0.0427
     80 H          -3.5013    1.0081   -2.7915 H       1  UNL1        0.0427
     81 H          -1.5699   -0.3082   -2.5659 H       1  UNL1        0.0278
     82 H          -2.5283   -0.6217   -1.1282 H       1  UNL1        0.0278
     83 H          -0.0340    0.9566   -1.5565 H       1  UNL1        0.0266
     84 H          -0.9173    1.2201    0.0252 H       1  UNL1        0.0266
     85 H          -0.6792   -1.1660    0.4918 H       1  UNL1        0.0266
     86 H           0.3096   -1.3836   -1.0225 H       1  UNL1        0.0266
     87 H           1.7623   -0.8798    1.0328 H       1  UNL1        0.0278
     88 H           0.7879    0.6129    1.2368 H       1  UNL1        0.0278
     89 H           2.9594    0.9506    0.1842 H       1  UNL1        0.0427
     90 H           1.6677    1.5597   -0.8408 H       1  UNL1        0.0427
     91 H           2.3378    0.5105   -3.3802 H       1  UNL1        0.0391
     92 H           3.2797    1.5828   -2.2936 H       1  UNL1        0.0391
     93 H           3.9783    0.0007   -2.9717 H       1  UNL1        0.0391
     94 H           3.6972   -1.9314   -1.8101 H       1  UNL1        0.0522
     95 H           3.1010   -1.7360   -0.1469 H       1  UNL1        0.0522
     96 H           6.4304   -3.3336   -0.2217 H       1  UNL1        0.0465
     97 H           4.6765   -3.0052   -0.2688 H       1  UNL1        0.0465
     98 H           5.9207   -3.6535    2.1019 H       1  UNL1        0.0280
     99 H           4.4578   -2.6358    1.9407 H       1  UNL1        0.0280
    100 H           6.4291   -1.7305    3.3336 H       1  UNL1        0.0269
    101 H           5.5202   -0.6221    2.2678 H       1  UNL1        0.0269
    102 H           7.9280   -2.3287    1.4472 H       1  UNL1        0.0331
    103 H           8.8692   -0.7821    3.0779 H       1  UNL1        0.0350
    104 H          10.4685    0.2888    1.2350 H       1  UNL1        0.0575
    105 H          11.0470   -2.5912   -0.3428 H       1  UNL1        0.0274
    106 H          11.7248   -0.9269   -0.5125 H       1  UNL1        0.0274
    107 H          10.6615   -1.6733   -1.7978 H       1  UNL1        0.0274
    108 H           8.2396   -2.5995   -0.4696 H       1  UNL1        0.0334
    109 H           8.3068   -1.2810   -1.7502 H       1  UNL1        0.0334
    110 H           7.1797    0.4631   -2.2627 H       1  UNL1        0.0623
    111 H           7.5579    2.8042   -2.7235 H       1  UNL1        0.0672
    112 H           8.2155    3.4640    1.3880 H       1  UNL1        0.1686
    113 H           8.6743    1.5759    2.8734 H       1  UNL1        0.0333
    114 H           7.0049    0.9420    2.8393 H       1  UNL1        0.0333
@<TRIPOS>BOND
     1     1     2    1
     2     2     3    2
     3     3     4    1
     4     4     5    1
     5     5     6    1
     6     6     7   ar
     7     7     8   ar
     8     8     9    2
     9     8    10   ar
    10    10    11   ar
    11    11    12   ar
    12    12    13    1
    13    13    14    1
    14    13    15    1
    15    15    16    1
    16    16    17    1
    17    17    18    1
    18    18    19    1
    19    19    20   am
    20    20    21    2
    21    20    22    1
    22    22    23    1
    23    23    24    1
    24    23    25    1
    25    25    26    1
    26    26    27    1
    27    27    28    1
    28    28    29    1
    29    29    30    1
    30    30    31    1
    31    31    32    1
    32    31    33    1
    33    33    34    1
    34    34    35    2
    35    34    36   am
    36    36    37    1
    37    37    38    1
    38    38    39    1
    39    39    40    1
    40    40    41    1
    41    41    42    1
    42    42    43    2
    43    43    44    1
    44    43    45    1
    45    45    46    1
    46    46    47    1
    47    47    48   ar
    48    48    49   ar
    49    49    50   ar
    50    50    51    2
    51    50    52   ar
    52    52    53   ar
    53    53    54    1
    54    14     2    1
    55    46    36    1
    56    53    47   ar
    57    15     4    1
    58    46    40    1
    59    12     6   ar
    60    13    19    1
    61    54    41    1
    62     1    55    1
    63     1    56    1
    64     1    57    1
    65     3    58    1
    66     4    59    1
    67     5    60    1
    68     5    61    1
    69     7    62    1
    70    10    63    1
    71    11    64    1
    72    14    65    1
    73    14    66    1
    74    15    67    1
    75    16    68    1
    76    16    69    1
    77    17    70    1
    78    17    71    1
    79    18    72    1
    80    18    73    1
    81    22    74    1
    82    22    75    1
    83    24    76    1
    84    24    77    1
    85    24    78    1
    86    25    79    1
    87    25    80    1
    88    26    81    1
    89    26    82    1
    90    27    83    1
    91    27    84    1
    92    28    85    1
    93    28    86    1
    94    29    87    1
    95    29    88    1
    96    30    89    1
    97    30    90    1
    98    32    91    1
    99    32    92    1
   100    32    93    1
   101    33    94    1
   102    33    95    1
   103    37    96    1
   104    37    97    1
   105    38    98    1
   106    38    99    1
   107    39   100    1
   108    39   101    1
   109    40   102    1
   110    41   103    1
   111    42   104    1
   112    44   105    1
   113    44   106    1
   114    44   107    1
   115    45   108    1
   116    45   109    1
   117    48   110    1
   118    49   111    1
   119    52   112    1
   120    54   113    1
   121    54   114    1
