
     RDKit          3D

 60 63  0  0  0  0  0  0  0  0999 V2000
    1.5403   -1.3879    3.3451 C   0  0  0  0  0  0  0  0  0  0  0  0
    1.1125   -0.2481    2.4303 C   0  0  1  0  0  0  0  0  0  0  0  0
    2.0818   -0.1260    1.3130 C   0  0  0  0  0  0  0  0  0  0  0  0
    3.0417    0.8635    1.3679 C   0  0  0  0  0  0  0  0  0  0  0  0
    3.9445    0.9820    0.3555 C   0  0  0  0  0  0  0  0  0  0  0  0
    3.9744    0.1659   -0.7526 C   0  0  0  0  0  0  0  0  0  0  0  0
    4.9648    0.3273   -1.8138 C   0  0  0  0  0  0  0  0  0  0  0  0
    5.6136   -0.7497   -2.3775 C   0  0  0  0  0  0  0  0  0  0  0  0
    6.5447   -0.5592   -3.3797 C   0  0  0  0  0  0  0  0  0  0  0  0
    6.8548    0.7217   -3.8494 C   0  0  0  0  0  0  0  0  0  0  0  0
    7.7838    0.8940   -4.8463 F   0  0  0  0  0  0  0  0  0  0  0  0
    6.2073    1.7956   -3.2868 C   0  0  0  0  0  0  0  0  0  0  0  0
    5.2663    1.5815   -2.2715 C   0  0  0  0  0  0  0  0  0  0  0  0
    4.6400    2.6455   -1.7294 F   0  0  0  0  0  0  0  0  0  0  0  0
    3.0182   -0.8222   -0.8102 C   0  0  0  0  0  0  0  0  0  0  0  0
    2.0827   -0.9553    0.2257 C   0  0  0  0  0  0  0  0  0  0  0  0
   -0.2651   -0.3472    2.0398 N   0  0  0  0  0  0  0  0  0  0  0  0
   -0.8340   -1.4442    1.3097 C   0  0  0  0  0  0  0  0  0  0  0  0
   -2.2795   -1.5683    1.7583 C   0  0  0  0  0  0  0  0  0  0  0  0
   -3.0709   -0.3614    1.2574 C   0  0  2  0  0  0  0  0  0  0  0  0
   -4.4737   -0.4264    1.7475 C   0  0  0  0  0  0  0  0  0  0  0  0
   -5.4323    0.6113    1.3381 C   0  0  0  0  0  0  0  0  0  0  0  0
   -5.1251    2.0259    1.6977 C   0  0  0  0  0  0  0  0  0  0  0  0
   -3.9878    2.5036    1.1155 O   0  0  0  0  0  0  0  0  0  0  0  0
   -3.0363   -0.3406   -0.2091 C   0  0  0  0  0  0  0  0  0  0  0  0
   -2.1423    0.4524   -0.9219 C   0  0  0  0  0  0  0  0  0  0  0  0
   -2.1596    0.4219   -2.2942 C   0  0  0  0  0  0  0  0  0  0  0  0
   -3.0270   -0.3624   -3.0246 C   0  0  0  0  0  0  0  0  0  0  0  0
   -3.0138   -0.3656   -4.3901 F   0  0  0  0  0  0  0  0  0  0  0  0
   -3.9082   -1.1436   -2.3184 C   0  0  0  0  0  0  0  0  0  0  0  0
   -3.8997   -1.1211   -0.9241 C   0  0  0  0  0  0  0  0  0  0  0  0
   -2.3843    0.7870    1.7979 O   0  0  0  0  0  0  0  0  0  0  0  0
   -1.1580    0.6880    2.4276 C   0  0  0  0  0  0  0  0  0  0  0  0
   -0.7710    1.4742    3.3442 O   0  0  0  0  0  0  0  0  0  0  0  0
    1.4683   -2.3639    2.8550 H   0  0  0  0  0  0  0  0  0  0  0  0
    2.5987   -1.1375    3.6485 H   0  0  0  0  0  0  0  0  0  0  0  0
    0.9696   -1.3219    4.3102 H   0  0  0  0  0  0  0  0  0  0  0  0
    1.2569    0.6876    3.0816 H   0  0  0  0  0  0  0  0  0  0  0  0
    3.0604    1.5462    2.2387 H   0  0  0  0  0  0  0  0  0  0  0  0
    4.7045    1.7686    0.4039 H   0  0  0  0  0  0  0  0  0  0  0  0
    5.3676   -1.7563   -2.0064 H   0  0  0  0  0  0  0  0  0  0  0  0
    7.0601   -1.3856   -3.8308 H   0  0  0  0  0  0  0  0  0  0  0  0
    6.4465    2.7865   -3.6487 H   0  0  0  0  0  0  0  0  0  0  0  0
    3.0120   -1.4793   -1.6640 H   0  0  0  0  0  0  0  0  0  0  0  0
    1.3894   -1.7639    0.0814 H   0  0  0  0  0  0  0  0  0  0  0  0
   -0.8753   -1.2068    0.2396 H   0  0  0  0  0  0  0  0  0  0  0  0
   -0.2959   -2.4066    1.5109 H   0  0  0  0  0  0  0  0  0  0  0  0
   -2.2883   -1.5029    2.8750 H   0  0  0  0  0  0  0  0  0  0  0  0
   -2.7372   -2.5172    1.4326 H   0  0  0  0  0  0  0  0  0  0  0  0
   -4.5043   -0.4622    2.8812 H   0  0  0  0  0  0  0  0  0  0  0  0
   -4.9023   -1.4199    1.4423 H   0  0  0  0  0  0  0  0  0  0  0  0
   -5.6259    0.6159    0.2253 H   0  0  0  0  0  0  0  0  0  0  0  0
   -6.4683    0.4145    1.7783 H   0  0  0  0  0  0  0  0  0  0  0  0
   -5.9780    2.6672    1.3319 H   0  0  0  0  0  0  0  0  0  0  0  0
   -5.0981    2.1415    2.8232 H   0  0  0  0  0  0  0  0  0  0  0  0
   -4.1015    2.9255    0.2326 H   0  0  0  0  0  0  0  0  0  0  0  0
   -1.4532    1.0762   -0.3591 H   0  0  0  0  0  0  0  0  0  0  0  0
   -1.4658    1.0362   -2.8544 H   0  0  0  0  0  0  0  0  0  0  0  0
   -4.5927   -1.7619   -2.8873 H   0  0  0  0  0  0  0  0  0  0  0  0
   -4.6499   -1.7921   -0.4879 H   0  0  0  0  0  0  0  0  0  0  0  0
  1  2  1  0
  2  3  1  0
  3  4  2  0
  4  5  1  0
  5  6  2  0
  6  7  1  0
  7  8  2  0
  8  9  1  0
  9 10  2  0
 10 11  1  0
 10 12  1  0
 12 13  2  0
 13 14  1  0
  6 15  1  0
 15 16  2  0
  2 17  1  0
 17 18  1  0
 18 19  1  0
 19 20  1  0
 20 21  1  6
 21 22  1  0
 22 23  1  0
 23 24  1  0
 20 25  1  0
 25 26  2  0
 26 27  1  0
 27 28  2  0
 28 29  1  0
 28 30  1  0
 30 31  2  0
 20 32  1  0
 32 33  1  0
 33 34  2  0
 16  3  1  0
 33 17  1  0
 13  7  1  0
 31 25  1  0
  1 35  1  0
  1 36  1  0
  1 37  1  0
  2 38  1  1
  4 39  1  0
  5 40  1  0
  8 41  1  0
  9 42  1  0
 12 43  1  0
 15 44  1  0
 16 45  1  0
 18 46  1  0
 18 47  1  0
 19 48  1  0
 19 49  1  0
 21 50  1  0
 21 51  1  0
 22 52  1  0
 22 53  1  0
 23 54  1  0
 23 55  1  0
 24 56  1  0
 26 57  1  0
 27 58  1  0
 30 59  1  0
 31 60  1  0
M  END
$$$$
