@<TRIPOS>MOLECULE
*****
 60 63 0 0 0
SMALL
GASTEIGER

@<TRIPOS>ATOM
      1 C           1.5403   -1.3879    3.3451 C.3     1  UNL1       -0.0421
      2 C           1.1125   -0.2481    2.4303 C.3     1  UNL1        0.0515
      3 C           2.0818   -0.1260    1.3130 C.ar    1  UNL1       -0.0271
      4 C           3.0417    0.8635    1.3679 C.ar    1  UNL1       -0.0562
      5 C           3.9445    0.9820    0.3555 C.ar    1  UNL1       -0.0536
      6 C           3.9744    0.1659   -0.7526 C.ar    1  UNL1       -0.0151
      7 C           4.9648    0.3273   -1.8138 C.ar    1  UNL1        0.0175
      8 C           5.6136   -0.7497   -2.3775 C.ar    1  UNL1       -0.0486
      9 C           6.5447   -0.5592   -3.3797 C.ar    1  UNL1       -0.0257
     10 C           6.8548    0.7217   -3.8494 C.ar    1  UNL1        0.1262
     11 F           7.7838    0.8940   -4.8463 F       1  UNL1       -0.2054
     12 C           6.2073    1.7956   -3.2868 C.ar    1  UNL1        0.0094
     13 C           5.2663    1.5815   -2.2715 C.ar    1  UNL1        0.1338
     14 F           4.6400    2.6455   -1.7294 F       1  UNL1       -0.2048
     15 C           3.0182   -0.8222   -0.8102 C.ar    1  UNL1       -0.0536
     16 C           2.0827   -0.9553    0.2257 C.ar    1  UNL1       -0.0562
     17 N          -0.2651   -0.3472    2.0398 N.am    1  UNL1       -0.2605
     18 C          -0.8340   -1.4442    1.3097 C.3     1  UNL1        0.0224
     19 C          -2.2795   -1.5683    1.7583 C.3     1  UNL1        0.0075
     20 C          -3.0709   -0.3614    1.2574 C.3     1  UNL1        0.1415
     21 C          -4.4737   -0.4264    1.7475 C.3     1  UNL1       -0.0064
     22 C          -5.4323    0.6113    1.3381 C.3     1  UNL1       -0.0258
     23 C          -5.1251    2.0259    1.6977 C.3     1  UNL1        0.0443
     24 O          -3.9878    2.5036    1.1155 O.3     1  UNL1       -0.3950
     25 C          -3.0363   -0.3406   -0.2091 C.ar    1  UNL1       -0.0040
     26 C          -2.1423    0.4524   -0.9219 C.ar    1  UNL1       -0.0521
     27 C          -2.1596    0.4219   -2.2942 C.ar    1  UNL1       -0.0261
     28 C          -3.0270   -0.3624   -3.0246 C.ar    1  UNL1        0.1234
     29 F          -3.0138   -0.3656   -4.3901 F       1  UNL1       -0.2055
     30 C          -3.9082   -1.1436   -2.3184 C.ar    1  UNL1       -0.0261
     31 C          -3.8997   -1.1211   -0.9241 C.ar    1  UNL1       -0.0521
     32 O          -2.3843    0.7870    1.7979 O.3     1  UNL1       -0.4388
     33 C          -1.1580    0.6880    2.4276 C.2     1  UNL1        0.4042
     34 O          -0.7710    1.4742    3.3442 O.2     1  UNL1       -0.2262
     35 H           1.4683   -2.3639    2.8550 H       1  UNL1        0.0251
     36 H           2.5987   -1.1375    3.6485 H       1  UNL1        0.0251
     37 H           0.9696   -1.3219    4.3102 H       1  UNL1        0.0251
     38 H           1.2569    0.6876    3.0816 H       1  UNL1        0.0549
     39 H           3.0604    1.5462    2.2387 H       1  UNL1        0.0621
     40 H           4.7045    1.7686    0.4039 H       1  UNL1        0.0624
     41 H           5.3676   -1.7563   -2.0064 H       1  UNL1        0.0625
     42 H           7.0601   -1.3856   -3.8308 H       1  UNL1        0.0646
     43 H           6.4465    2.7865   -3.6487 H       1  UNL1        0.0675
     44 H           3.0120   -1.4793   -1.6640 H       1  UNL1        0.0624
     45 H           1.3894   -1.7639    0.0814 H       1  UNL1        0.0621
     46 H          -0.8753   -1.2068    0.2396 H       1  UNL1        0.0467
     47 H          -0.2959   -2.4066    1.5109 H       1  UNL1        0.0467
     48 H          -2.2883   -1.5029    2.8750 H       1  UNL1        0.0322
     49 H          -2.7372   -2.5172    1.4326 H       1  UNL1        0.0322
     50 H          -4.5043   -0.4622    2.8812 H       1  UNL1        0.0308
     51 H          -4.9023   -1.4199    1.4423 H       1  UNL1        0.0308
     52 H          -5.6259    0.6159    0.2253 H       1  UNL1        0.0289
     53 H          -6.4683    0.4145    1.7783 H       1  UNL1        0.0289
     54 H          -5.9780    2.6672    1.3319 H       1  UNL1        0.0557
     55 H          -5.0981    2.1415    2.8232 H       1  UNL1        0.0557
     56 H          -4.1015    2.9255    0.2326 H       1  UNL1        0.2094
     57 H          -1.4532    1.0762   -0.3591 H       1  UNL1        0.0622
     58 H          -1.4658    1.0362   -2.8544 H       1  UNL1        0.0646
     59 H          -4.5927   -1.7619   -2.8873 H       1  UNL1        0.0646
     60 H          -4.6499   -1.7921   -0.4879 H       1  UNL1        0.0622
@<TRIPOS>BOND
     1     1     2    1
     2     2     3    1
     3     3     4   ar
     4     4     5   ar
     5     5     6   ar
     6     6     7    1
     7     7     8   ar
     8     8     9   ar
     9     9    10   ar
    10    10    11    1
    11    10    12   ar
    12    12    13   ar
    13    13    14    1
    14     6    15   ar
    15    15    16   ar
    16     2    17    1
    17    17    18    1
    18    18    19    1
    19    19    20    1
    20    20    21    1
    21    21    22    1
    22    22    23    1
    23    23    24    1
    24    20    25    1
    25    25    26   ar
    26    26    27   ar
    27    27    28   ar
    28    28    29    1
    29    28    30   ar
    30    30    31   ar
    31    20    32    1
    32    32    33    1
    33    33    34    2
    34    16     3   ar
    35    33    17   am
    36    13     7   ar
    37    31    25   ar
    38     1    35    1
    39     1    36    1
    40     1    37    1
    41     2    38    1
    42     4    39    1
    43     5    40    1
    44     8    41    1
    45     9    42    1
    46    12    43    1
    47    15    44    1
    48    16    45    1
    49    18    46    1
    50    18    47    1
    51    19    48    1
    52    19    49    1
    53    21    50    1
    54    21    51    1
    55    22    52    1
    56    22    53    1
    57    23    54    1
    58    23    55    1
    59    24    56    1
    60    26    57    1
    61    27    58    1
    62    30    59    1
    63    31    60    1
