@<TRIPOS>MOLECULE
*****
 31 33 0 0 0
SMALL
GASTEIGER

@<TRIPOS>ATOM
      1 O           2.1543   -2.5845   -0.9351 O.2     1  UNL1       -0.2830
      2 C           1.5495   -1.5617   -0.5659 C.ar    1  UNL1        0.2379
      3 C           0.1438   -1.5100   -0.4762 C.ar    1  UNL1        0.2082
      4 O          -0.4861   -2.6745   -0.8284 O.3     1  UNL1       -0.5007
      5 C          -0.4894   -0.3781   -0.0695 C.ar    1  UNL1        0.1806
      6 C          -1.9344   -0.2874    0.0350 C.ar    1  UNL1        0.0213
      7 C          -2.4641    0.9408    0.4682 C.ar    1  UNL1       -0.0475
      8 C          -3.7969    1.1897    0.6193 C.ar    1  UNL1       -0.0195
      9 C          -4.6927    0.1819    0.3325 C.ar    1  UNL1        0.1169
     10 O          -6.0633    0.4162    0.4807 O.3     1  UNL1       -0.5068
     11 C          -4.2014   -1.0328   -0.0942 C.ar    1  UNL1       -0.0195
     12 C          -2.8267   -1.2648   -0.2419 C.ar    1  UNL1       -0.0475
     13 O           0.2713    0.6615    0.2346 O.2     1  UNL1       -0.4507
     14 C           1.5721    0.6588    0.1666 C.ar    1  UNL1        0.1465
     15 C           2.2977    1.7832    0.5006 C.ar    1  UNL1        0.0231
     16 C           3.6721    1.8154    0.4403 C.ar    1  UNL1        0.1239
     17 O           4.3250    2.9815    0.7918 O.3     1  UNL1       -0.5065
     18 C           4.3775    0.6895    0.0319 C.ar    1  UNL1        0.0223
     19 C           3.6692   -0.4421   -0.3054 C.ar    1  UNL1        0.1348
     20 O           4.3012   -1.5966   -0.7195 O.3     1  UNL1       -0.5058
     21 C           2.2775   -0.4508   -0.2364 C.ar    1  UNL1        0.1092
     22 H          -0.3851   -3.4900   -0.2378 H       1  UNL1        0.2924
     23 H          -1.7815    1.7424    0.6978 H       1  UNL1        0.0626
     24 H          -4.1361    2.1606    0.9576 H       1  UNL1        0.0654
     25 H          -6.5825    0.9987   -0.1748 H       1  UNL1        0.2921
     26 H          -4.9041   -1.8276   -0.3206 H       1  UNL1        0.0654
     27 H          -2.5210   -2.2338   -0.5778 H       1  UNL1        0.0626
     28 H           1.7994    2.6839    0.8239 H       1  UNL1        0.0691
     29 H           4.9010    3.5261    0.1879 H       1  UNL1        0.2921
     30 H           5.4544    0.6991   -0.0206 H       1  UNL1        0.0691
     31 H           4.4993   -1.7946   -1.6920 H       1  UNL1        0.2922
@<TRIPOS>BOND
     1     1     2    2
     2     2     3   ar
     3     3     4    1
     4     3     5   ar
     5     5     6    1
     6     6     7   ar
     7     7     8   ar
     8     8     9   ar
     9     9    10    1
    10     9    11   ar
    11    11    12   ar
    12     5    13   ar
    13    13    14   ar
    14    14    15   ar
    15    15    16   ar
    16    16    17    1
    17    16    18   ar
    18    18    19   ar
    19    19    20    1
    20    19    21   ar
    21    21     2   ar
    22    12     6   ar
    23    21    14   ar
    24     4    22    1
    25     7    23    1
    26     8    24    1
    27    10    25    1
    28    11    26    1
    29    12    27    1
    30    15    28    1
    31    17    29    1
    32    18    30    1
    33    20    31    1
