@<TRIPOS>MOLECULE
*****
 49 53 0 0 0
SMALL
GASTEIGER

@<TRIPOS>ATOM
      1 C          -2.7429   -1.3609   -0.1260 C.3     1  UNL1       -0.0406
      2 N          -1.7717   -0.3552    0.3104 N.4     1  UNL1        0.2484
      3 C          -2.5677    0.7631    0.7845 C.3     1  UNL1       -0.0113
      4 C          -3.9630    0.3500    1.1513 C.2     1  UNL1       -0.0465
      5 C          -5.0601    0.8361    0.5825 C.2     1  UNL1       -0.0977
      6 C          -1.0616   -0.9464    1.3919 C.3     1  UNL1       -0.0286
      7 C           0.1880   -0.2815    1.8303 C.3     1  UNL1        0.0040
      8 C           0.9421    0.3517    0.7205 C.3     1  UNL1        0.0820
      9 C           2.1431    1.1050    1.2341 C.3     1  UNL1        0.1704
     10 O           3.0048   -0.0203    1.5070 O.3     1  UNL1       -0.4764
     11 C           2.9116   -0.9086    0.4394 C.ar    1  UNL1        0.1669
     12 C           3.6519   -1.8692   -0.2168 C.ar    1  UNL1        0.1588
     13 O           4.9345   -2.0842    0.3010 O.3     1  UNL1       -0.5033
     14 C           3.1214   -2.5479   -1.3074 C.ar    1  UNL1       -0.0162
     15 C           1.8245   -2.2497   -1.7387 C.ar    1  UNL1       -0.0544
     16 C           1.0653   -1.3107   -1.1184 C.ar    1  UNL1       -0.0343
     17 C          -0.3133   -0.9783   -1.5736 C.3     1  UNL1        0.0187
     18 C          -0.9379    0.1079   -0.7684 C.3     1  UNL1        0.0154
     19 C           0.0710    1.0702   -0.2374 C.3     1  UNL1        0.1226
     20 O          -0.4984    2.1509    0.4112 O.3     1  UNL1       -0.3819
     21 C           0.9160    1.6874   -1.3548 C.3     1  UNL1       -0.0109
     22 C           1.8103    2.7080   -0.6384 C.3     1  UNL1        0.0124
     23 C           2.7940    1.8846    0.1523 C.2     1  UNL1        0.1745
     24 O           4.0042    1.8146   -0.0177 O.2     1  UNL1       -0.2934
     25 C           1.6469   -0.6919   -0.0650 C.ar    1  UNL1        0.0146
     26 H          -3.4077   -0.9802   -0.9014 H       1  UNL1        0.0778
     27 H          -3.3836   -1.5505    0.7869 H       1  UNL1        0.0778
     28 H          -2.2826   -2.3476   -0.3223 H       1  UNL1        0.0778
     29 H          -2.7070    1.5323   -0.0086 H       1  UNL1        0.0862
     30 H          -2.1636    1.2000    1.7408 H       1  UNL1        0.0862
     31 H          -4.8167   -0.1177    1.6030 H       1  UNL1        0.0619
     32 H          -5.8295    1.3602   -0.0101 H       1  UNL1        0.0534
     33 H          -5.1688    1.5681   -0.1969 H       1  UNL1        0.0534
     34 H          -1.7690   -0.9271    2.2728 H       1  UNL1        0.0815
     35 H          -0.9164   -2.0455    1.2133 H       1  UNL1        0.0815
     36 H           0.0398    0.4335    2.6637 H       1  UNL1        0.0328
     37 H           0.8634   -1.0718    2.2652 H       1  UNL1        0.0328
     38 H           1.9530    1.6800    2.1579 H       1  UNL1        0.0824
     39 H           5.6369   -2.4160   -0.3583 H       1  UNL1        0.2923
     40 H           3.7655   -3.2986   -1.7811 H       1  UNL1        0.0655
     41 H           1.4566   -2.8107   -2.5984 H       1  UNL1        0.0622
     42 H          -0.9156   -1.8658   -1.7435 H       1  UNL1        0.0369
     43 H          -0.1638   -0.5433   -2.6082 H       1  UNL1        0.0369
     44 H          -1.6237    0.7038   -1.4329 H       1  UNL1        0.0884
     45 H          -0.1050    2.3631    1.2807 H       1  UNL1        0.2105
     46 H           0.2717    2.2628   -2.0332 H       1  UNL1        0.0299
     47 H           1.5983    0.9847   -1.8281 H       1  UNL1        0.0299
     48 H           1.1970    3.3267    0.0384 H       1  UNL1        0.0344
     49 H           2.3578    3.3352   -1.3737 H       1  UNL1        0.0344
@<TRIPOS>UNITY_ATOM_ATTR
2 1
charge 1
@<TRIPOS>BOND
     1     2     1    1
     2     2     3    1
     3     3     4    1
     4     4     5    2
     5     2     6    1
     6     6     7    1
     7     8     7    1
     8     8     9    1
     9     9    10    1
    10    10    11    1
    11    11    12   ar
    12    12    13    1
    13    12    14   ar
    14    14    15   ar
    15    15    16   ar
    16    16    17    1
    17    17    18    1
    18    18    19    1
    19    19    20    1
    20    19    21    1
    21    21    22    1
    22    22    23    1
    23    23    24    2
    24    16    25   ar
    25    18     2    1
    26    19     8    1
    27    25     8    1
    28    23     9    1
    29    25    11   ar
    30     1    26    1
    31     1    27    1
    32     1    28    1
    33     3    29    1
    34     3    30    1
    35     4    31    1
    36     5    32    1
    37     5    33    1
    38     6    34    1
    39     6    35    1
    40     7    36    1
    41     7    37    1
    42     9    38    1
    43    13    39    1
    44    14    40    1
    45    15    41    1
    46    17    42    1
    47    17    43    1
    48    18    44    1
    49    20    45    1
    50    21    46    1
    51    21    47    1
    52    22    48    1
    53    22    49    1
