
     RDKit          3D

 45 47  0  0  0  0  0  0  0  0999 V2000
   -3.6446   -2.5238   -0.6055 C   0  0  0  0  0  0  0  0  0  0  0  0
   -2.8697   -1.2482   -0.4135 C   0  0  1  0  0  0  0  0  0  0  0  0
   -1.7839   -1.4394    0.5450 C   0  0  0  0  0  0  0  0  0  0  0  0
   -0.4548   -1.2553    0.2686 C   0  0  0  0  0  0  0  0  0  0  0  0
    0.5860   -1.4115    1.1529 C   0  0  0  0  0  0  0  0  0  0  0  0
    1.9542   -1.1199    0.8508 N   0  0  0  0  0  0  0  0  0  0  0  0
    2.4721    0.1817    1.1587 C   0  0  0  0  0  0  0  0  0  0  0  0
    1.6447    0.9805    1.6962 O   0  0  0  0  0  0  0  0  0  0  0  0
    3.8198    0.6353    0.9050 C   0  0  0  0  0  0  0  0  0  0  0  0
    4.1591    1.9193    1.2349 C   0  0  0  0  0  0  0  0  0  0  0  0
    5.3823    2.4932    1.0431 C   0  0  0  0  0  0  0  0  0  0  0  0
    6.3430    1.6797    0.4597 C   0  0  0  0  0  0  0  0  0  0  0  0
    7.6596    2.2798    0.2164 C   0  0  0  0  0  0  0  0  0  0  0  0
    8.6823    2.7631    0.0368 N   0  0  0  0  0  0  0  0  0  0  0  0
    6.0271    0.3998    0.1239 C   0  0  0  0  0  0  0  0  0  0  0  0
    4.7950   -0.1335    0.3338 N   0  0  0  0  0  0  0  0  0  0  0  0
    0.2092   -1.7946    2.4387 C   0  0  0  0  0  0  0  0  0  0  0  0
   -1.1116   -1.9854    2.7455 C   0  0  0  0  0  0  0  0  0  0  0  0
   -1.4691   -2.3520    4.0283 F   0  0  0  0  0  0  0  0  0  0  0  0
   -2.1333   -1.8276    1.8707 C   0  0  0  0  0  0  0  0  0  0  0  0
   -3.8054   -2.0649    2.3278 Cl  0  0  0  0  0  0  0  0  0  0  0  0
   -2.3662   -0.8376   -1.7833 C   0  0  0  0  0  0  0  0  0  0  0  0
   -1.9844    0.6042   -1.8944 C   0  0  1  0  0  0  0  0  0  0  0  0
   -2.8065    1.3709   -2.9169 C   0  0  0  0  0  0  0  0  0  0  0  0
   -2.3394    2.6887   -2.8761 F   0  0  0  0  0  0  0  0  0  0  0  0
   -2.5125    0.8986   -4.1904 F   0  0  0  0  0  0  0  0  0  0  0  0
   -4.1553    1.2746   -2.6480 F   0  0  0  0  0  0  0  0  0  0  0  0
   -2.1791    1.2573   -0.6228 O   0  0  0  0  0  0  0  0  0  0  0  0
   -3.3390    1.0122    0.0612 C   0  0  0  0  0  0  0  0  0  0  0  0
   -4.1478    2.0708    0.6466 N   0  0  0  0  0  0  0  0  0  0  0  0
   -3.7318   -0.2081    0.1936 N   0  0  0  0  0  0  0  0  0  0  0  0
   -4.0968   -2.5366   -1.6624 H   0  0  0  0  0  0  0  0  0  0  0  0
   -3.0214   -3.4458   -0.6073 H   0  0  0  0  0  0  0  0  0  0  0  0
   -4.5465   -2.6192    0.0293 H   0  0  0  0  0  0  0  0  0  0  0  0
   -0.1329   -0.9641   -0.7515 H   0  0  0  0  0  0  0  0  0  0  0  0
    2.5717   -1.8161    0.4269 H   0  0  0  0  0  0  0  0  0  0  0  0
    3.4024    2.5943    1.7028 H   0  0  0  0  0  0  0  0  0  0  0  0
    5.6281    3.5071    1.3149 H   0  0  0  0  0  0  0  0  0  0  0  0
    6.8218   -0.1987   -0.3343 H   0  0  0  0  0  0  0  0  0  0  0  0
    0.9982   -1.9343    3.1602 H   0  0  0  0  0  0  0  0  0  0  0  0
   -3.2002   -0.9923   -2.5178 H   0  0  0  0  0  0  0  0  0  0  0  0
   -1.5688   -1.5466   -2.0677 H   0  0  0  0  0  0  0  0  0  0  0  0
   -0.9354    0.7304   -2.1632 H   0  0  0  0  0  0  0  0  0  0  0  0
   -5.1710    2.0128    0.7112 H   0  0  0  0  0  0  0  0  0  0  0  0
   -3.6494    2.9007    0.9925 H   0  0  0  0  0  0  0  0  0  0  0  0
  2  1  1  6
  2  3  1  0
  3  4  2  0
  4  5  1  0
  5  6  1  0
  6  7  1  0
  7  8  2  0
  7  9  1  0
  9 10  2  0
 10 11  1  0
 11 12  2  0
 12 13  1  0
 13 14  3  0
 12 15  1  0
 15 16  2  0
  5 17  2  0
 17 18  1  0
 18 19  1  0
 18 20  2  0
 20 21  1  0
  2 22  1  0
 22 23  1  0
 23 24  1  0
 24 25  1  0
 24 26  1  0
 24 27  1  0
 23 28  1  0
 28 29  1  0
 29 30  1  0
 29 31  2  0
 31  2  1  0
 20  3  1  0
 16  9  1  0
  1 32  1  0
  1 33  1  0
  1 34  1  0
  4 35  1  0
  6 36  1  0
 10 37  1  0
 11 38  1  0
 15 39  1  0
 17 40  1  0
 22 41  1  0
 22 42  1  0
 23 43  1  6
 30 44  1  0
 30 45  1  0
M  END
$$$$
