@<TRIPOS>MOLECULE
*****
 45 47 0 0 0
SMALL
GASTEIGER

@<TRIPOS>ATOM
      1 C          -3.6446   -2.5238   -0.6055 C.3     1  UNL1       -0.0353
      2 C          -2.8697   -1.2482   -0.4135 C.3     1  UNL1        0.0939
      3 C          -1.7839   -1.4394    0.5450 C.ar    1  UNL1        0.0028
      4 C          -0.4548   -1.2553    0.2686 C.ar    1  UNL1       -0.0334
      5 C           0.5860   -1.4115    1.1529 C.ar    1  UNL1        0.0369
      6 N           1.9542   -1.1199    0.8508 N.am    1  UNL1       -0.2802
      7 C           2.4721    0.1817    1.1587 C.2     1  UNL1        0.2666
      8 O           1.6447    0.9805    1.6962 O.2     1  UNL1       -0.2682
      9 C           3.8198    0.6353    0.9050 C.ar    1  UNL1        0.1257
     10 C           4.1591    1.9193    1.2349 C.ar    1  UNL1       -0.0300
     11 C           5.3823    2.4932    1.0431 C.ar    1  UNL1       -0.0407
     12 C           6.3430    1.6797    0.4597 C.ar    1  UNL1        0.0699
     13 C           7.6596    2.2798    0.2164 C.1     1  UNL1        0.1007
     14 N           8.6823    2.7631    0.0368 N.1     1  UNL1       -0.1908
     15 C           6.0271    0.3998    0.1239 C.ar    1  UNL1        0.0458
     16 N           4.7950   -0.1335    0.3338 N.ar    1  UNL1       -0.2491
     17 C           0.2092   -1.7946    2.4387 C.ar    1  UNL1       -0.0037
     18 C          -1.1116   -1.9854    2.7455 C.ar    1  UNL1        0.1437
     19 F          -1.4691   -2.3520    4.0283 F       1  UNL1       -0.2039
     20 C          -2.1333   -1.8276    1.8707 C.ar    1  UNL1        0.0816
     21 CL         -3.8054   -2.0649    2.3278 Cl      1  UNL1       -0.0802
     22 C          -2.3662   -0.8376   -1.7833 C.3     1  UNL1        0.0223
     23 C          -1.9844    0.6042   -1.8944 C.3     1  UNL1        0.1997
     24 C          -2.8065    1.3709   -2.9169 C.3     1  UNL1        0.4266
     25 F          -2.3394    2.6887   -2.8761 F       1  UNL1       -0.1669
     26 F          -2.5125    0.8986   -4.1904 F       1  UNL1       -0.1669
     27 F          -4.1553    1.2746   -2.6480 F       1  UNL1       -0.1669
     28 O          -2.1791    1.2573   -0.6228 O.2     1  UNL1       -0.4534
     29 C          -3.3390    1.0122    0.0612 C.2     1  UNL1        0.2765
     30 N          -4.1478    2.0708    0.6466 N.pl3   1  UNL1       -0.3134
     31 N          -3.7318   -0.2081    0.1936 N.2     1  UNL1       -0.2257
     32 H          -4.0968   -2.5366   -1.6624 H       1  UNL1        0.0256
     33 H          -3.0214   -3.4458   -0.6073 H       1  UNL1        0.0256
     34 H          -4.5465   -2.6192    0.0293 H       1  UNL1        0.0256
     35 H          -0.1329   -0.9641   -0.7515 H       1  UNL1        0.0640
     36 H           2.5717   -1.8161    0.4269 H       1  UNL1        0.1552
     37 H           3.4024    2.5943    1.7028 H       1  UNL1        0.0641
     38 H           5.6281    3.5071    1.3149 H       1  UNL1        0.0631
     39 H           6.8218   -0.1987   -0.3343 H       1  UNL1        0.0843
     40 H           0.9982   -1.9343    3.1602 H       1  UNL1        0.0665
     41 H          -3.2002   -0.9923   -2.5178 H       1  UNL1        0.0330
     42 H          -1.5688   -1.5466   -2.0677 H       1  UNL1        0.0330
     43 H          -0.9354    0.7304   -2.1632 H       1  UNL1        0.0826
     44 H          -5.1710    2.0128    0.7112 H       1  UNL1        0.1466
     45 H          -3.6494    2.9007    0.9925 H       1  UNL1        0.1466
@<TRIPOS>BOND
     1     2     1    1
     2     2     3    1
     3     3     4   ar
     4     4     5   ar
     5     5     6    1
     6     6     7   am
     7     7     8    2
     8     7     9    1
     9     9    10   ar
    10    10    11   ar
    11    11    12   ar
    12    12    13    1
    13    13    14    3
    14    12    15   ar
    15    15    16   ar
    16     5    17   ar
    17    17    18   ar
    18    18    19    1
    19    18    20   ar
    20    20    21    1
    21     2    22    1
    22    22    23    1
    23    23    24    1
    24    24    25    1
    25    24    26    1
    26    24    27    1
    27    23    28    1
    28    28    29    1
    29    29    30    1
    30    29    31    2
    31    31     2    1
    32    20     3   ar
    33    16     9   ar
    34     1    32    1
    35     1    33    1
    36     1    34    1
    37     4    35    1
    38     6    36    1
    39    10    37    1
    40    11    38    1
    41    15    39    1
    42    17    40    1
    43    22    41    1
    44    22    42    1
    45    23    43    1
    46    30    44    1
    47    30    45    1
