@<TRIPOS>MOLECULE
*****
 62 65 0 0 0
SMALL
GASTEIGER

@<TRIPOS>ATOM
      1 C           8.6226    0.2154    1.0120 C.3     1  UNL1        0.0386
      2 C           7.6090    0.9699    0.2262 C.2     1  UNL1        0.2771
      3 N           7.9549    2.1033   -0.2727 N.2     1  UNL1       -0.1041
      4 N           6.3104    0.4481    0.0403 N.pl3   1  UNL1       -0.2225
      5 C           5.6963    0.4899   -1.2501 C.3     1  UNL1        0.0930
      6 C           4.2525    0.8344   -1.1210 C.3     1  UNL1        0.0355
      7 N           3.9193    1.3331    0.1589 N.3     1  UNL1       -0.2911
      8 C           2.7095    2.0689    0.2785 C.3     1  UNL1        0.0243
      9 C           1.5690    1.1984   -0.0958 C.ar    1  UNL1       -0.0333
     10 C           0.9379    0.4405    0.8777 C.ar    1  UNL1       -0.0566
     11 C          -0.1232   -0.3818    0.5844 C.ar    1  UNL1       -0.0493
     12 C          -0.5694   -0.4526   -0.7113 C.ar    1  UNL1        0.0370
     13 C          -1.6794   -1.2826   -1.1474 C.2     1  UNL1        0.2483
     14 O          -2.0252   -1.2886   -2.3548 O.2     1  UNL1       -0.2699
     15 N          -2.4403   -2.1262   -0.2823 N.am    1  UNL1       -0.2808
     16 C          -3.5168   -2.9201   -0.7521 C.ar    1  UNL1        0.0459
     17 C          -3.2940   -4.2059   -1.1988 C.ar    1  UNL1       -0.0384
     18 C          -4.3942   -4.9437   -1.6513 C.ar    1  UNL1       -0.0416
     19 C          -5.6564   -4.3944   -1.6468 C.ar    1  UNL1        0.0418
     20 CL         -7.0294   -5.3108   -2.2099 Cl      1  UNL1       -0.0835
     21 C          -5.8773   -3.0858   -1.1912 C.ar    1  UNL1       -0.0295
     22 C          -4.7833   -2.3664   -0.7467 C.ar    1  UNL1        0.0596
     23 C          -4.9194   -1.0054   -0.2565 C.2     1  UNL1        0.2511
     24 O          -3.9216   -0.3404    0.1549 O.2     1  UNL1       -0.2697
     25 N          -6.1607   -0.3394   -0.2065 N.am    1  UNL1       -0.2663
     26 C          -6.2484    1.0158    0.2893 C.ar    1  UNL1        0.1252
     27 C          -6.1227    2.1179   -0.5136 C.ar    1  UNL1       -0.0201
     28 C          -6.2107    3.3980   -0.0123 C.ar    1  UNL1       -0.0387
     29 C          -6.4339    3.5467    1.3505 C.ar    1  UNL1        0.0592
     30 CL         -6.5613    5.1452    2.0834 Cl      1  UNL1       -0.0820
     31 C          -6.5583    2.4414    2.1457 C.ar    1  UNL1        0.0480
     32 N          -6.4618    1.1988    1.5917 N.ar    1  UNL1       -0.2387
     33 C           0.0715    0.3131   -1.6821 C.ar    1  UNL1       -0.0493
     34 C           1.1348    1.1392   -1.3976 C.ar    1  UNL1       -0.0566
     35 C           4.1894    0.4256    1.2439 C.3     1  UNL1        0.0355
     36 C           5.6023   -0.1284    1.1556 C.3     1  UNL1        0.0930
     37 H           8.9589    0.8769    1.8495 H       1  UNL1        0.0351
     38 H           8.2508   -0.7470    1.3782 H       1  UNL1        0.0351
     39 H           9.5182    0.1135    0.3487 H       1  UNL1        0.0351
     40 H           8.9075    2.4670   -0.1258 H       1  UNL1        0.3629
     41 H           5.8094   -0.5229   -1.7250 H       1  UNL1        0.0739
     42 H           6.2396    1.2194   -1.9175 H       1  UNL1        0.0739
     43 H           3.6480   -0.1085   -1.2709 H       1  UNL1        0.0464
     44 H           3.9500    1.4952   -1.9611 H       1  UNL1        0.0464
     45 H           2.5233    2.4944    1.2670 H       1  UNL1        0.0476
     46 H           2.7533    2.8884   -0.4980 H       1  UNL1        0.0476
     47 H           1.2818    0.4920    1.9023 H       1  UNL1        0.0621
     48 H          -0.6113   -0.9664    1.3300 H       1  UNL1        0.0625
     49 H          -2.1535   -2.1241    0.7310 H       1  UNL1        0.1552
     50 H          -2.2960   -4.6270   -1.1974 H       1  UNL1        0.0637
     51 H          -4.1954   -5.9505   -1.9972 H       1  UNL1        0.0633
     52 H          -6.8766   -2.6771   -1.1975 H       1  UNL1        0.0640
     53 H          -7.0147   -0.8329   -0.5301 H       1  UNL1        0.1566
     54 H          -5.9496    1.9956   -1.5706 H       1  UNL1        0.0652
     55 H          -6.1158    4.2826   -0.6202 H       1  UNL1        0.0634
     56 H          -6.7321    2.5820    3.2063 H       1  UNL1        0.0845
     57 H          -0.2638    0.2767   -2.7275 H       1  UNL1        0.0625
     58 H           1.5874    1.7111   -2.2045 H       1  UNL1        0.0621
     59 H           4.1237    0.9949    2.1886 H       1  UNL1        0.0464
     60 H           3.4201   -0.3678    1.2779 H       1  UNL1        0.0464
     61 H           5.5023   -1.2156    0.9541 H       1  UNL1        0.0739
     62 H           6.1425   -0.0210    2.1122 H       1  UNL1        0.0739
@<TRIPOS>BOND
     1     1     2    1
     2     2     3    2
     3     2     4    1
     4     4     5    1
     5     5     6    1
     6     6     7    1
     7     7     8    1
     8     8     9    1
     9     9    10   ar
    10    10    11   ar
    11    11    12   ar
    12    12    13    1
    13    13    14    2
    14    13    15   am
    15    15    16    1
    16    16    17   ar
    17    17    18   ar
    18    18    19   ar
    19    19    20    1
    20    19    21   ar
    21    21    22   ar
    22    22    23    1
    23    23    24    2
    24    23    25   am
    25    25    26    1
    26    26    27   ar
    27    27    28   ar
    28    28    29   ar
    29    29    30    1
    30    29    31   ar
    31    31    32   ar
    32    12    33   ar
    33    33    34   ar
    34     7    35    1
    35    35    36    1
    36    36     4    1
    37    34     9   ar
    38    22    16   ar
    39    32    26   ar
    40     1    37    1
    41     1    38    1
    42     1    39    1
    43     3    40    1
    44     5    41    1
    45     5    42    1
    46     6    43    1
    47     6    44    1
    48     8    45    1
    49     8    46    1
    50    10    47    1
    51    11    48    1
    52    15    49    1
    53    17    50    1
    54    18    51    1
    55    21    52    1
    56    25    53    1
    57    27    54    1
    58    28    55    1
    59    31    56    1
    60    33    57    1
    61    34    58    1
    62    35    59    1
    63    35    60    1
    64    36    61    1
    65    36    62    1
