
     RDKit          3D

 62 65  0  0  0  0  0  0  0  0999 V2000
    8.6226    0.2154    1.0120 C   0  0  0  0  0  0  0  0  0  0  0  0
    7.6090    0.9699    0.2262 C   0  0  0  0  0  0  0  0  0  0  0  0
    7.9549    2.1033   -0.2727 N   0  0  0  0  0  0  0  0  0  0  0  0
    6.3104    0.4481    0.0403 N   0  0  0  0  0  0  0  0  0  0  0  0
    5.6963    0.4899   -1.2501 C   0  0  0  0  0  0  0  0  0  0  0  0
    4.2525    0.8344   -1.1210 C   0  0  0  0  0  0  0  0  0  0  0  0
    3.9193    1.3331    0.1589 N   0  0  0  0  0  0  0  0  0  0  0  0
    2.7095    2.0689    0.2785 C   0  0  0  0  0  0  0  0  0  0  0  0
    1.5690    1.1984   -0.0958 C   0  0  0  0  0  0  0  0  0  0  0  0
    0.9379    0.4405    0.8777 C   0  0  0  0  0  0  0  0  0  0  0  0
   -0.1232   -0.3818    0.5844 C   0  0  0  0  0  0  0  0  0  0  0  0
   -0.5694   -0.4526   -0.7113 C   0  0  0  0  0  0  0  0  0  0  0  0
   -1.6794   -1.2826   -1.1474 C   0  0  0  0  0  0  0  0  0  0  0  0
   -2.0252   -1.2886   -2.3548 O   0  0  0  0  0  0  0  0  0  0  0  0
   -2.4403   -2.1262   -0.2823 N   0  0  0  0  0  0  0  0  0  0  0  0
   -3.5168   -2.9201   -0.7521 C   0  0  0  0  0  0  0  0  0  0  0  0
   -3.2940   -4.2059   -1.1988 C   0  0  0  0  0  0  0  0  0  0  0  0
   -4.3942   -4.9437   -1.6513 C   0  0  0  0  0  0  0  0  0  0  0  0
   -5.6564   -4.3944   -1.6468 C   0  0  0  0  0  0  0  0  0  0  0  0
   -7.0294   -5.3108   -2.2099 Cl  0  0  0  0  0  0  0  0  0  0  0  0
   -5.8773   -3.0858   -1.1912 C   0  0  0  0  0  0  0  0  0  0  0  0
   -4.7833   -2.3664   -0.7467 C   0  0  0  0  0  0  0  0  0  0  0  0
   -4.9194   -1.0054   -0.2565 C   0  0  0  0  0  0  0  0  0  0  0  0
   -3.9216   -0.3404    0.1549 O   0  0  0  0  0  0  0  0  0  0  0  0
   -6.1607   -0.3394   -0.2065 N   0  0  0  0  0  0  0  0  0  0  0  0
   -6.2484    1.0158    0.2893 C   0  0  0  0  0  0  0  0  0  0  0  0
   -6.1227    2.1179   -0.5136 C   0  0  0  0  0  0  0  0  0  0  0  0
   -6.2107    3.3980   -0.0123 C   0  0  0  0  0  0  0  0  0  0  0  0
   -6.4339    3.5467    1.3505 C   0  0  0  0  0  0  0  0  0  0  0  0
   -6.5613    5.1452    2.0834 Cl  0  0  0  0  0  0  0  0  0  0  0  0
   -6.5583    2.4414    2.1457 C   0  0  0  0  0  0  0  0  0  0  0  0
   -6.4618    1.1988    1.5917 N   0  0  0  0  0  0  0  0  0  0  0  0
    0.0715    0.3131   -1.6821 C   0  0  0  0  0  0  0  0  0  0  0  0
    1.1348    1.1392   -1.3976 C   0  0  0  0  0  0  0  0  0  0  0  0
    4.1894    0.4256    1.2439 C   0  0  0  0  0  0  0  0  0  0  0  0
    5.6023   -0.1284    1.1556 C   0  0  0  0  0  0  0  0  0  0  0  0
    8.9589    0.8769    1.8495 H   0  0  0  0  0  0  0  0  0  0  0  0
    8.2508   -0.7470    1.3782 H   0  0  0  0  0  0  0  0  0  0  0  0
    9.5182    0.1135    0.3487 H   0  0  0  0  0  0  0  0  0  0  0  0
    8.9075    2.4670   -0.1258 H   0  0  0  0  0  0  0  0  0  0  0  0
    5.8094   -0.5229   -1.7250 H   0  0  0  0  0  0  0  0  0  0  0  0
    6.2396    1.2194   -1.9175 H   0  0  0  0  0  0  0  0  0  0  0  0
    3.6480   -0.1085   -1.2709 H   0  0  0  0  0  0  0  0  0  0  0  0
    3.9500    1.4952   -1.9611 H   0  0  0  0  0  0  0  0  0  0  0  0
    2.5233    2.4944    1.2670 H   0  0  0  0  0  0  0  0  0  0  0  0
    2.7533    2.8884   -0.4980 H   0  0  0  0  0  0  0  0  0  0  0  0
    1.2818    0.4920    1.9023 H   0  0  0  0  0  0  0  0  0  0  0  0
   -0.6113   -0.9664    1.3300 H   0  0  0  0  0  0  0  0  0  0  0  0
   -2.1535   -2.1241    0.7310 H   0  0  0  0  0  0  0  0  0  0  0  0
   -2.2960   -4.6270   -1.1974 H   0  0  0  0  0  0  0  0  0  0  0  0
   -4.1954   -5.9505   -1.9972 H   0  0  0  0  0  0  0  0  0  0  0  0
   -6.8766   -2.6771   -1.1975 H   0  0  0  0  0  0  0  0  0  0  0  0
   -7.0147   -0.8329   -0.5301 H   0  0  0  0  0  0  0  0  0  0  0  0
   -5.9496    1.9956   -1.5706 H   0  0  0  0  0  0  0  0  0  0  0  0
   -6.1158    4.2826   -0.6202 H   0  0  0  0  0  0  0  0  0  0  0  0
   -6.7321    2.5820    3.2063 H   0  0  0  0  0  0  0  0  0  0  0  0
   -0.2638    0.2767   -2.7275 H   0  0  0  0  0  0  0  0  0  0  0  0
    1.5874    1.7111   -2.2045 H   0  0  0  0  0  0  0  0  0  0  0  0
    4.1237    0.9949    2.1886 H   0  0  0  0  0  0  0  0  0  0  0  0
    3.4201   -0.3678    1.2779 H   0  0  0  0  0  0  0  0  0  0  0  0
    5.5023   -1.2156    0.9541 H   0  0  0  0  0  0  0  0  0  0  0  0
    6.1425   -0.0210    2.1122 H   0  0  0  0  0  0  0  0  0  0  0  0
  1  2  1  0
  2  3  2  3
  2  4  1  0
  4  5  1  0
  5  6  1  0
  6  7  1  0
  7  8  1  0
  8  9  1  0
  9 10  2  0
 10 11  1  0
 11 12  2  0
 12 13  1  0
 13 14  2  0
 13 15  1  0
 15 16  1  0
 16 17  2  0
 17 18  1  0
 18 19  2  0
 19 20  1  0
 19 21  1  0
 21 22  2  0
 22 23  1  0
 23 24  2  0
 23 25  1  0
 25 26  1  0
 26 27  2  0
 27 28  1  0
 28 29  2  0
 29 30  1  0
 29 31  1  0
 31 32  2  0
 12 33  1  0
 33 34  2  0
  7 35  1  0
 35 36  1  0
 36  4  1  0
 34  9  1  0
 22 16  1  0
 32 26  1  0
  1 37  1  0
  1 38  1  0
  1 39  1  0
  3 40  1  0
  5 41  1  0
  5 42  1  0
  6 43  1  0
  6 44  1  0
  8 45  1  0
  8 46  1  0
 10 47  1  0
 11 48  1  0
 15 49  1  0
 17 50  1  0
 18 51  1  0
 21 52  1  0
 25 53  1  0
 27 54  1  0
 28 55  1  0
 31 56  1  0
 33 57  1  0
 34 58  1  0
 35 59  1  0
 35 60  1  0
 36 61  1  0
 36 62  1  0
M  END
$$$$
