@<TRIPOS>MOLECULE
*****
 43 45 0 0 0
SMALL
GASTEIGER

@<TRIPOS>ATOM
      1 C           6.7781    1.7928    2.0516 C.3     1  UNL1        0.0004
      2 N           6.1919    0.7812    1.2060 N.am    1  UNL1       -0.3143
      3 C           4.8893    0.9003    0.6605 C.2     1  UNL1        0.2464
      4 O           4.2210    1.9359    0.9273 O.2     1  UNL1       -0.2701
      5 C           4.3305   -0.1515   -0.1903 C.ar    1  UNL1        0.0691
      6 C           5.1570   -1.0399   -0.8505 C.ar    1  UNL1        0.0429
      7 N           4.5343   -1.9664   -1.5881 N.ar    1  UNL1       -0.2393
      8 C           3.2227   -2.0940   -1.7306 C.ar    1  UNL1        0.1245
      9 N           2.7647   -3.1521   -2.5660 N.pl3   1  UNL1       -0.3426
     10 C           2.3315   -1.2124   -1.0782 C.ar    1  UNL1        0.0300
     11 C           0.9876   -1.2283   -1.1337 C.ar    1  UNL1       -0.0359
     12 C           0.2993   -0.2852   -0.4256 C.ar    1  UNL1        0.0206
     13 C          -1.1279    0.0061   -0.2473 C.ar    1  UNL1       -0.0113
     14 C          -1.5393    1.0848    0.4916 C.ar    1  UNL1       -0.0532
     15 C          -2.8673    1.3490    0.6849 C.ar    1  UNL1       -0.0565
     16 C          -3.8406    0.5251    0.1340 C.ar    1  UNL1       -0.0280
     17 C          -5.2807    0.7825    0.3087 C.3     1  UNL1        0.0766
     18 C          -5.7932    0.2763    1.6541 C.3     1  UNL1       -0.0428
     19 C          -6.0564    0.0112   -0.7747 C.3     1  UNL1       -0.0428
     20 C          -5.5415    2.1989    0.1069 C.1     1  UNL1        0.0734
     21 N          -5.7637    3.3228   -0.0508 N.1     1  UNL1       -0.1957
     22 C          -3.4358   -0.5568   -0.6074 C.ar    1  UNL1       -0.0565
     23 C          -2.0954   -0.7979   -0.7855 C.ar    1  UNL1       -0.0532
     24 S           1.6446    0.6677    0.3551 S.2     1  UNL1       -0.0873
     25 C           2.9361   -0.2609   -0.3219 C.ar    1  UNL1        0.0367
     26 H           6.2241    2.7318    2.0590 H       1  UNL1        0.0426
     27 H           7.7918    2.0193    1.6293 H       1  UNL1        0.0426
     28 H           6.9565    1.4269    3.0766 H       1  UNL1        0.0426
     29 H           6.7825   -0.0630    1.0047 H       1  UNL1        0.1487
     30 H           6.2086   -0.9373   -0.7345 H       1  UNL1        0.0838
     31 H           2.2890   -2.9876   -3.4660 H       1  UNL1        0.1437
     32 H           2.9219   -4.1521   -2.2407 H       1  UNL1        0.1437
     33 H           0.3748   -1.9681   -1.7241 H       1  UNL1        0.0636
     34 H          -0.7681    1.7122    0.9152 H       1  UNL1        0.0624
     35 H          -3.2140    2.2101    1.2792 H       1  UNL1        0.0621
     36 H          -5.8783    1.1583    2.3382 H       1  UNL1        0.0248
     37 H          -6.7820   -0.2178    1.5185 H       1  UNL1        0.0248
     38 H          -5.0980   -0.4968    2.0339 H       1  UNL1        0.0248
     39 H          -7.1122    0.4123   -0.7050 H       1  UNL1        0.0248
     40 H          -6.1021   -1.0613   -0.5030 H       1  UNL1        0.0248
     41 H          -5.6462    0.2170   -1.7604 H       1  UNL1        0.0248
     42 H          -4.1628   -1.2368   -1.0654 H       1  UNL1        0.0621
     43 H          -1.7322   -1.6560   -1.3739 H       1  UNL1        0.0624
@<TRIPOS>BOND
     1     1     2    1
     2     2     3   am
     3     3     4    2
     4     3     5    1
     5     5     6   ar
     6     6     7   ar
     7     7     8   ar
     8     8     9    1
     9     8    10   ar
    10    10    11   ar
    11    11    12   ar
    12    12    13    1
    13    13    14   ar
    14    14    15   ar
    15    15    16   ar
    16    16    17    1
    17    17    18    1
    18    17    19    1
    19    17    20    1
    20    20    21    3
    21    16    22   ar
    22    22    23   ar
    23    12    24   ar
    24    24    25   ar
    25    25     5   ar
    26    25    10   ar
    27    23    13   ar
    28     1    26    1
    29     1    27    1
    30     1    28    1
    31     2    29    1
    32     6    30    1
    33     9    31    1
    34     9    32    1
    35    11    33    1
    36    14    34    1
    37    15    35    1
    38    18    36    1
    39    18    37    1
    40    18    38    1
    41    19    39    1
    42    19    40    1
    43    19    41    1
    44    22    42    1
    45    23    43    1
