@<TRIPOS>MOLECULE
*****
 62 66 0 0 0
SMALL
GASTEIGER

@<TRIPOS>ATOM
      1 C          -2.0120    4.4971    1.4858 C.3     1  UNL1       -0.0653
      2 C          -0.7548    3.6728    1.2298 C.3     1  UNL1       -0.0556
      3 C          -1.1890    2.2398    0.9925 C.3     1  UNL1       -0.0478
      4 C          -2.0888    2.2228   -0.1917 C.3     1  UNL1       -0.0084
      5 C          -2.4918    0.7933   -0.4581 C.ar    1  UNL1        0.0677
      6 N          -3.5960    0.2331    0.1095 N.ar    1  UNL1       -0.1703
      7 N          -3.6925   -1.0229   -0.2366 N.ar    1  UNL1       -0.2238
      8 C          -4.7245   -1.9459    0.1658 C.ar    1  UNL1        0.0845
      9 C          -4.5195   -2.6687    1.3220 C.ar    1  UNL1       -0.0348
     10 C          -5.4937   -3.5538    1.7158 C.ar    1  UNL1       -0.0597
     11 C          -6.6493   -3.7288    0.9908 C.ar    1  UNL1       -0.0603
     12 C          -6.8349   -3.0065   -0.1485 C.ar    1  UNL1       -0.0413
     13 C          -5.8774   -2.1139   -0.5669 C.ar    1  UNL1        0.0663
     14 CL         -6.1372   -1.1930   -2.0383 Cl      1  UNL1       -0.0813
     15 C          -2.6543   -1.3483   -1.0509 C.ar    1  UNL1        0.1548
     16 C          -2.4404   -2.6661   -1.6372 C.2     1  UNL1        0.3557
     17 O          -1.4871   -2.9299   -2.3813 O.2     1  UNL1       -0.2434
     18 O          -3.3498   -3.6887   -1.3517 O.3     1  UNL1       -0.4761
     19 C          -1.8905   -0.1834   -1.1902 C.ar    1  UNL1        0.0123
     20 C          -0.6935   -0.0586   -2.0359 C.3     1  UNL1        0.0016
     21 C           0.5946   -0.0058   -1.3365 C.ar    1  UNL1       -0.0429
     22 C           1.3271    1.1787   -1.2294 C.ar    1  UNL1       -0.0577
     23 C           2.5269    1.1901   -0.5668 C.ar    1  UNL1       -0.0537
     24 C           3.0565    0.0532    0.0135 C.ar    1  UNL1       -0.0172
     25 C           4.3107    0.0252    0.7452 C.ar    1  UNL1       -0.0072
     26 C           4.2896   -0.2644    2.1191 C.ar    1  UNL1       -0.0534
     27 C           5.4384   -0.2943    2.8805 C.ar    1  UNL1       -0.0611
     28 C           6.6621   -0.0337    2.2936 C.ar    1  UNL1       -0.0611
     29 C           6.7027    0.2508    0.9533 C.ar    1  UNL1       -0.0504
     30 C           5.5187    0.2796    0.1747 C.ar    1  UNL1        0.0282
     31 C           5.6145    0.5542   -1.2398 C.ar    1  UNL1        0.1799
     32 N           4.6591    0.5093   -2.1480 N.ar    1  UNL1       -0.1084
     33 N           5.1585    0.8087   -3.3592 N.ar    1  UNL1       -0.0229
     34 N           6.4339    1.0357   -3.1662 N.ar    1  UNL1       -0.0464
     35 N           6.7341    0.8877   -1.8906 N.ar    1  UNL1       -0.2388
     36 C           2.2933   -1.1018   -0.1195 C.ar    1  UNL1       -0.0537
     37 C           1.0915   -1.1676   -0.7689 C.ar    1  UNL1       -0.0577
     38 H          -1.7008    5.4258    1.9987 H       1  UNL1        0.0230
     39 H          -2.7179    3.8912    2.0638 H       1  UNL1        0.0230
     40 H          -2.4465    4.7836    0.4900 H       1  UNL1        0.0230
     41 H          -0.1000    3.6839    2.1000 H       1  UNL1        0.0263
     42 H          -0.2831    4.0331    0.3020 H       1  UNL1        0.0263
     43 H          -0.3638    1.5609    0.8837 H       1  UNL1        0.0269
     44 H          -1.8399    1.9373    1.8722 H       1  UNL1        0.0269
     45 H          -1.5080    2.5523   -1.0810 H       1  UNL1        0.0329
     46 H          -2.9898    2.8530   -0.0816 H       1  UNL1        0.0329
     47 H          -3.6043   -2.5192    1.8826 H       1  UNL1        0.0639
     48 H          -5.3295   -4.1190    2.6213 H       1  UNL1        0.0618
     49 H          -7.4069   -4.4248    1.3081 H       1  UNL1        0.0618
     50 H          -7.7390   -3.1076   -0.7641 H       1  UNL1        0.0633
     51 H          -3.3655   -4.5143   -1.9304 H       1  UNL1        0.2955
     52 H          -0.7798    0.8817   -2.6535 H       1  UNL1        0.0363
     53 H          -0.6486   -0.8634   -2.8047 H       1  UNL1        0.0363
     54 H           0.9453    2.0823   -1.6685 H       1  UNL1        0.0621
     55 H           3.1140    2.1175   -0.4739 H       1  UNL1        0.0624
     56 H           3.3197   -0.4692    2.5750 H       1  UNL1        0.0624
     57 H           5.4311   -0.5170    3.9400 H       1  UNL1        0.0618
     58 H           7.5939   -0.0500    2.8733 H       1  UNL1        0.0618
     59 H           7.6526    0.4587    0.4647 H       1  UNL1        0.0625
     60 H           7.7046    1.0212   -1.4983 H       1  UNL1        0.1923
     61 H           2.6621   -2.0312    0.3186 H       1  UNL1        0.0624
     62 H           0.5651   -2.1225   -0.8177 H       1  UNL1        0.0621
@<TRIPOS>BOND
     1     1     2    1
     2     2     3    1
     3     3     4    1
     4     4     5    1
     5     5     6   ar
     6     6     7   ar
     7     7     8    1
     8     8     9   ar
     9     9    10   ar
    10    10    11   ar
    11    11    12   ar
    12    12    13   ar
    13    13    14    1
    14     7    15   ar
    15    15    16    1
    16    16    17    2
    17    16    18    1
    18    15    19   ar
    19    19    20    1
    20    20    21    1
    21    21    22   ar
    22    22    23   ar
    23    23    24   ar
    24    24    25    1
    25    25    26   ar
    26    26    27   ar
    27    27    28   ar
    28    28    29   ar
    29    29    30   ar
    30    30    31    1
    31    31    32   ar
    32    32    33   ar
    33    33    34   ar
    34    34    35   ar
    35    24    36   ar
    36    36    37   ar
    37    19     5   ar
    38    37    21   ar
    39    13     8   ar
    40    30    25   ar
    41    35    31   ar
    42     1    38    1
    43     1    39    1
    44     1    40    1
    45     2    41    1
    46     2    42    1
    47     3    43    1
    48     3    44    1
    49     4    45    1
    50     4    46    1
    51     9    47    1
    52    10    48    1
    53    11    49    1
    54    12    50    1
    55    18    51    1
    56    20    52    1
    57    20    53    1
    58    22    54    1
    59    23    55    1
    60    26    56    1
    61    27    57    1
    62    28    58    1
    63    29    59    1
    64    35    60    1
    65    36    61    1
    66    37    62    1
