@<TRIPOS>MOLECULE
*****
 68 71 0 0 0
SMALL
GASTEIGER

@<TRIPOS>ATOM
      1 C           0.3395    0.3469   -3.2748 C.3     1  UNL1       -0.0421
      2 C           0.2842   -0.5825   -2.0890 C.3     1  UNL1        0.0515
      3 C           1.5624   -0.6410   -1.3545 C.ar    1  UNL1       -0.0271
      4 C           1.6805   -1.3551   -0.1828 C.ar    1  UNL1       -0.0562
      5 C           2.8906   -1.4154    0.5203 C.ar    1  UNL1       -0.0522
      6 C           3.9982   -0.7720    0.0756 C.ar    1  UNL1        0.0021
      7 C           5.2976   -0.7666    0.7212 C.ar    1  UNL1        0.0916
      8 C           5.4865   -1.4559    1.8897 C.ar    1  UNL1       -0.0289
      9 C           6.7348   -1.4660    2.5336 C.ar    1  UNL1        0.0064
     10 C           7.7640   -0.7736    1.9732 C.ar    1  UNL1        0.2675
     11 O           8.9168   -0.7542    2.5231 O.2     1  UNL1       -0.2662
     12 N           7.5381   -0.1113    0.8280 N.ar    1  UNL1       -0.2202
     13 C           8.6376    0.6206    0.2416 C.3     1  UNL1        0.1402
     14 C           8.5784    2.0341    0.8348 C.3     1  UNL1        0.4090
     15 F           7.3829    2.6397    0.5319 F       1  UNL1       -0.1687
     16 F           8.6317    1.9357    2.2218 F       1  UNL1       -0.1687
     17 F           9.5923    2.8269    0.3382 F       1  UNL1       -0.1687
     18 N           6.3602   -0.1061    0.2272 N.ar    1  UNL1       -0.1679
     19 C           3.8902   -0.0400   -1.1189 C.ar    1  UNL1       -0.0522
     20 C           2.7015    0.0045   -1.7865 C.ar    1  UNL1       -0.0562
     21 N          -0.8450   -0.3482   -1.2398 N.am    1  UNL1       -0.2605
     22 C          -1.9097   -1.3438   -1.0651 C.3     1  UNL1        0.0224
     23 C          -3.2224   -0.5421   -1.0420 C.3     1  UNL1        0.0076
     24 C          -3.3406    0.2752    0.2014 C.3     1  UNL1        0.1440
     25 C          -3.5868   -0.5110    1.4525 C.3     1  UNL1        0.0199
     26 C          -4.7991   -1.3300    1.5460 C.3     1  UNL1        0.0645
     27 C          -6.1079   -0.5767    1.4188 C.3     1  UNL1       -0.0362
     28 C          -4.8902   -2.5417    0.6792 C.3     1  UNL1       -0.0362
     29 O          -4.8315   -1.8209    2.8869 O.3     1  UNL1       -0.3890
     30 C          -4.2565    1.4194    0.0581 C.ar    1  UNL1       -0.0040
     31 C          -4.9798    1.6329   -1.0765 C.ar    1  UNL1       -0.0548
     32 C          -5.8301    2.7255   -1.1953 C.ar    1  UNL1       -0.0614
     33 C          -5.9474    3.6142   -0.1455 C.ar    1  UNL1       -0.0617
     34 C          -5.2236    3.4069    0.9996 C.ar    1  UNL1       -0.0614
     35 C          -4.3928    2.3208    1.0884 C.ar    1  UNL1       -0.0548
     36 O          -2.0428    0.8750    0.4154 O.3     1  UNL1       -0.4387
     37 C          -1.0327    0.8568   -0.5001 C.2     1  UNL1        0.4042
     38 O          -0.2838    1.8396   -0.7064 O.2     1  UNL1       -0.2262
     39 H          -0.6415    0.3227   -3.7648 H       1  UNL1        0.0251
     40 H           1.0560   -0.1294   -4.0066 H       1  UNL1        0.0251
     41 H           0.7383    1.3326   -3.0550 H       1  UNL1        0.0251
     42 H           0.1457   -1.6154   -2.5299 H       1  UNL1        0.0549
     43 H           0.8599   -1.9029    0.2575 H       1  UNL1        0.0621
     44 H           2.9400   -1.9858    1.4335 H       1  UNL1        0.0624
     45 H           4.7023   -2.0107    2.3591 H       1  UNL1        0.0641
     46 H           6.8996   -2.0047    3.4555 H       1  UNL1        0.0673
     47 H           9.6235    0.1581    0.4426 H       1  UNL1        0.0599
     48 H           8.4620    0.7357   -0.8543 H       1  UNL1        0.0599
     49 H           4.7478    0.4895   -1.5121 H       1  UNL1        0.0624
     50 H           2.6193    0.5687   -2.7068 H       1  UNL1        0.0621
     51 H          -1.8043   -1.8786   -0.1200 H       1  UNL1        0.0467
     52 H          -1.9771   -1.9906   -1.9600 H       1  UNL1        0.0467
     53 H          -4.0887   -1.1254   -1.3301 H       1  UNL1        0.0322
     54 H          -3.0623    0.2040   -1.8812 H       1  UNL1        0.0322
     55 H          -3.5150    0.1905    2.3061 H       1  UNL1        0.0335
     56 H          -2.7017   -1.1947    1.5765 H       1  UNL1        0.0335
     57 H          -6.8836   -1.2995    1.8204 H       1  UNL1        0.0257
     58 H          -6.4183   -0.3970    0.3868 H       1  UNL1        0.0257
     59 H          -6.1717    0.2839    2.0998 H       1  UNL1        0.0257
     60 H          -3.9216   -2.8962    0.2805 H       1  UNL1        0.0257
     61 H          -5.2830   -3.4408    1.2507 H       1  UNL1        0.0257
     62 H          -5.6734   -2.4277   -0.1295 H       1  UNL1        0.0257
     63 H          -4.3338   -2.6631    2.9457 H       1  UNL1        0.2101
     64 H          -4.9024    0.9467   -1.8984 H       1  UNL1        0.0622
     65 H          -6.3889    2.8668   -2.1064 H       1  UNL1        0.0618
     66 H          -6.6264    4.4714   -0.2624 H       1  UNL1        0.0618
     67 H          -5.3126    4.0905    1.8095 H       1  UNL1        0.0618
     68 H          -3.8336    2.1805    2.0012 H       1  UNL1        0.0622
@<TRIPOS>BOND
     1     1     2    1
     2     2     3    1
     3     3     4   ar
     4     4     5   ar
     5     5     6   ar
     6     6     7    1
     7     7     8   ar
     8     8     9   ar
     9     9    10   ar
    10    10    11    2
    11    10    12   ar
    12    12    13    1
    13    13    14    1
    14    14    15    1
    15    14    16    1
    16    14    17    1
    17    12    18   ar
    18     6    19   ar
    19    19    20   ar
    20     2    21    1
    21    21    22    1
    22    22    23    1
    23    23    24    1
    24    24    25    1
    25    25    26    1
    26    26    27    1
    27    26    28    1
    28    26    29    1
    29    24    30    1
    30    30    31   ar
    31    31    32   ar
    32    32    33   ar
    33    33    34   ar
    34    34    35   ar
    35    24    36    1
    36    36    37    1
    37    37    38    2
    38    20     3   ar
    39    37    21   am
    40    18     7   ar
    41    35    30   ar
    42     1    39    1
    43     1    40    1
    44     1    41    1
    45     2    42    1
    46     4    43    1
    47     5    44    1
    48     8    45    1
    49     9    46    1
    50    13    47    1
    51    13    48    1
    52    19    49    1
    53    20    50    1
    54    22    51    1
    55    22    52    1
    56    23    53    1
    57    23    54    1
    58    25    55    1
    59    25    56    1
    60    27    57    1
    61    27    58    1
    62    27    59    1
    63    28    60    1
    64    28    61    1
    65    28    62    1
    66    29    63    1
    67    31    64    1
    68    32    65    1
    69    33    66    1
    70    34    67    1
    71    35    68    1
