
     RDKit          3D

 61 65  0  0  0  0  0  0  0  0999 V2000
   -8.2795    0.6035    0.5504 C   0  0  0  0  0  0  0  0  0  0  0  0
   -7.7075    0.9385    1.8177 N   0  0  0  0  0  0  0  0  0  0  0  0
   -7.0211   -0.2211    2.4069 C   0  0  0  0  0  0  0  0  0  0  0  0
   -6.2040   -0.8339    1.3023 C   0  0  0  0  0  0  0  0  0  0  0  0
   -5.1444    0.2207    0.9585 C   0  0  0  0  0  0  0  0  0  0  0  0
   -3.9524    0.0009    0.4821 N   0  0  0  0  0  0  0  0  0  0  0  0
   -3.1207    0.8791    0.2154 C   0  0  0  0  0  0  0  0  0  0  0  0
   -1.7292    0.8724   -0.3240 C   0  0  0  0  0  0  0  0  0  0  0  0
   -1.1044    1.9383   -0.4976 O   0  0  0  0  0  0  0  0  0  0  0  0
   -1.0955   -0.3507   -0.6476 N   0  0  0  0  0  0  0  0  0  0  0  0
    0.2576   -0.4175   -1.1755 C   0  0  2  0  0  0  0  0  0  0  0  0
    0.3165   -0.9665   -2.5702 C   0  0  0  0  0  0  0  0  0  0  0  0
   -0.2648   -2.3254   -2.7275 C   0  0  0  0  0  0  0  0  0  0  0  0
    0.8554   -3.3659   -2.7521 C   0  0  0  0  0  0  0  0  0  0  0  0
    1.9177   -3.0126   -1.7114 C   0  0  0  0  0  0  0  0  0  0  0  0
    1.2406   -2.6088   -0.4450 C   0  0  0  0  0  0  0  0  0  0  0  0
    1.2047   -1.1159   -0.2252 C   0  0  1  0  0  0  0  0  0  0  0  0
    2.4956   -0.5039   -0.2740 N   0  0  0  0  0  0  0  0  0  0  0  0
    3.0842    0.1612    0.8286 C   0  0  0  0  0  0  0  0  0  0  0  0
    2.4140    0.2000    1.8922 O   0  0  0  0  0  0  0  0  0  0  0  0
    4.4171    0.7798    0.7404 C   0  0  0  0  0  0  0  0  0  0  0  0
    5.0671    1.4431    1.7567 C   0  0  0  0  0  0  0  0  0  0  0  0
    6.2983    1.8794    1.2794 C   0  0  0  0  0  0  0  0  0  0  0  0
    7.3546    2.5815    1.8300 C   0  0  0  0  0  0  0  0  0  0  0  0
    8.4903    2.8878    1.1079 C   0  0  0  0  0  0  0  0  0  0  0  0
    9.8304    3.7792    1.8082 Cl  0  0  0  0  0  0  0  0  0  0  0  0
    8.5707    2.4771   -0.2095 C   0  0  0  0  0  0  0  0  0  0  0  0
    7.5084    1.7719   -0.7606 C   0  0  0  0  0  0  0  0  0  0  0  0
    6.3718    1.4626   -0.0460 C   0  0  0  0  0  0  0  0  0  0  0  0
    5.2395    0.8182   -0.3191 N   0  0  0  0  0  0  0  0  0  0  0  0
   -3.9887    2.3705    0.6470 S   0  0  0  0  0  0  0  0  0  0  0  0
   -5.5090    1.5309    1.1834 C   0  0  0  0  0  0  0  0  0  0  0  0
   -6.7685    2.0205    1.7033 C   0  0  0  0  0  0  0  0  0  0  0  0
   -9.1295    1.3148    0.3655 H   0  0  0  0  0  0  0  0  0  0  0  0
   -7.5856    0.7502   -0.2942 H   0  0  0  0  0  0  0  0  0  0  0  0
   -8.7339   -0.4064    0.5445 H   0  0  0  0  0  0  0  0  0  0  0  0
   -7.7202   -0.9540    2.8130 H   0  0  0  0  0  0  0  0  0  0  0  0
   -6.3034    0.1233    3.1849 H   0  0  0  0  0  0  0  0  0  0  0  0
   -6.7750   -1.0252    0.3894 H   0  0  0  0  0  0  0  0  0  0  0  0
   -5.7323   -1.7530    1.6461 H   0  0  0  0  0  0  0  0  0  0  0  0
   -1.6583   -1.2229   -0.4858 H   0  0  0  0  0  0  0  0  0  0  0  0
    0.6259    0.6481   -1.2469 H   0  0  0  0  0  0  0  0  0  0  0  0
    1.3567   -0.9045   -2.9116 H   0  0  0  0  0  0  0  0  0  0  0  0
   -0.2565   -0.2417   -3.2167 H   0  0  0  0  0  0  0  0  0  0  0  0
   -1.0653   -2.5845   -2.0354 H   0  0  0  0  0  0  0  0  0  0  0  0
   -0.7198   -2.3805   -3.7607 H   0  0  0  0  0  0  0  0  0  0  0  0
    0.3853   -4.3253   -2.4177 H   0  0  0  0  0  0  0  0  0  0  0  0
    1.2699   -3.5110   -3.7494 H   0  0  0  0  0  0  0  0  0  0  0  0
    2.6251   -2.2913   -2.1179 H   0  0  0  0  0  0  0  0  0  0  0  0
    2.4946   -3.9521   -1.5162 H   0  0  0  0  0  0  0  0  0  0  0  0
    1.6827   -3.0867    0.4613 H   0  0  0  0  0  0  0  0  0  0  0  0
    0.1750   -2.9525   -0.4589 H   0  0  0  0  0  0  0  0  0  0  0  0
    0.7650   -0.9731    0.8058 H   0  0  0  0  0  0  0  0  0  0  0  0
    3.0436   -0.5417   -1.1617 H   0  0  0  0  0  0  0  0  0  0  0  0
    4.7301    1.6263    2.7740 H   0  0  0  0  0  0  0  0  0  0  0  0
    7.3164    2.9141    2.8584 H   0  0  0  0  0  0  0  0  0  0  0  0
    9.4387    2.6974   -0.8015 H   0  0  0  0  0  0  0  0  0  0  0  0
    7.6007    1.4634   -1.7959 H   0  0  0  0  0  0  0  0  0  0  0  0
    5.0100    0.3895   -1.2474 H   0  0  0  0  0  0  0  0  0  0  0  0
   -6.6386    2.4669    2.7098 H   0  0  0  0  0  0  0  0  0  0  0  0
   -7.2456    2.8174    1.0733 H   0  0  0  0  0  0  0  0  0  0  0  0
  1  2  1  0
  2  3  1  0
  3  4  1  0
  4  5  1  0
  5  6  1  0
  6  7  2  0
  7  8  1  0
  8  9  2  0
  8 10  1  0
 10 11  1  0
 11 12  1  0
 12 13  1  0
 13 14  1  0
 14 15  1  0
 15 16  1  0
 16 17  1  0
 17 18  1  0
 18 19  1  0
 19 20  2  0
 19 21  1  0
 21 22  2  0
 22 23  1  0
 23 24  2  0
 24 25  1  0
 25 26  1  0
 25 27  2  0
 27 28  1  0
 28 29  2  0
 29 30  1  0
  7 31  1  0
 31 32  1  0
 32 33  1  0
 33  2  1  0
 32  5  2  0
 17 11  1  0
 30 21  1  0
 29 23  1  0
  1 34  1  0
  1 35  1  0
  1 36  1  0
  3 37  1  0
  3 38  1  0
  4 39  1  0
  4 40  1  0
 10 41  1  0
 11 42  1  6
 12 43  1  0
 12 44  1  0
 13 45  1  0
 13 46  1  0
 14 47  1  0
 14 48  1  0
 15 49  1  0
 15 50  1  0
 16 51  1  0
 16 52  1  0
 17 53  1  1
 18 54  1  0
 22 55  1  0
 24 56  1  0
 27 57  1  0
 28 58  1  0
 30 59  1  0
 33 60  1  0
 33 61  1  0
M  END
$$$$
