@<TRIPOS>MOLECULE
*****
 61 65 0 0 0
SMALL
GASTEIGER

@<TRIPOS>ATOM
      1 C          -8.2795    0.6035    0.5504 C.3     1  UNL1       -0.0124
      2 N          -7.7075    0.9385    1.8177 N.3     1  UNL1       -0.3002
      3 C          -7.0211   -0.2211    2.4069 C.3     1  UNL1        0.0044
      4 C          -6.2040   -0.8339    1.3023 C.3     1  UNL1        0.0032
      5 C          -5.1444    0.2207    0.9585 C.ar    1  UNL1        0.0549
      6 N          -3.9524    0.0009    0.4821 N.ar    1  UNL1       -0.2390
      7 C          -3.1207    0.8791    0.2154 C.ar    1  UNL1        0.1633
      8 C          -1.7292    0.8724   -0.3240 C.2     1  UNL1        0.2695
      9 O          -1.1044    1.9383   -0.4976 O.2     1  UNL1       -0.2679
     10 N          -1.0955   -0.3507   -0.6476 N.am    1  UNL1       -0.3050
     11 C           0.2576   -0.4175   -1.1755 C.3     1  UNL1        0.0418
     12 C           0.3165   -0.9665   -2.5702 C.3     1  UNL1       -0.0328
     13 C          -0.2648   -2.3254   -2.7275 C.3     1  UNL1       -0.0513
     14 C           0.8554   -3.3659   -2.7521 C.3     1  UNL1       -0.0529
     15 C           1.9177   -3.0126   -1.7114 C.3     1  UNL1       -0.0513
     16 C           1.2406   -2.6088   -0.4450 C.3     1  UNL1       -0.0328
     17 C           1.2047   -1.1159   -0.2252 C.3     1  UNL1        0.0418
     18 N           2.4956   -0.5039   -0.2740 N.am    1  UNL1       -0.3055
     19 C           3.0842    0.1612    0.8286 C.2     1  UNL1        0.2606
     20 O           2.4140    0.2000    1.8922 O.2     1  UNL1       -0.2686
     21 C           4.4171    0.7798    0.7404 C.ar    1  UNL1        0.1028
     22 C           5.0671    1.4431    1.7567 C.ar    1  UNL1       -0.0241
     23 C           6.2983    1.8794    1.2794 C.ar    1  UNL1        0.0018
     24 C           7.3546    2.5815    1.8300 C.ar    1  UNL1       -0.0342
     25 C           8.4903    2.8878    1.1079 C.ar    1  UNL1        0.0417
     26 CL          9.8304    3.7792    1.8082 Cl      1  UNL1       -0.0835
     27 C           8.5707    2.4771   -0.2095 C.ar    1  UNL1       -0.0414
     28 C           7.5084    1.7719   -0.7606 C.ar    1  UNL1       -0.0364
     29 C           6.3718    1.4626   -0.0460 C.ar    1  UNL1        0.0471
     30 N           5.2395    0.8182   -0.3191 N.ar    1  UNL1       -0.3506
     31 S          -3.9887    2.3705    0.6470 S.2     1  UNL1       -0.0661
     32 C          -5.5090    1.5309    1.1834 C.ar    1  UNL1        0.0271
     33 C          -6.7685    2.0205    1.7033 C.3     1  UNL1        0.0318
     34 H          -9.1295    1.3148    0.3655 H       1  UNL1        0.0391
     35 H          -7.5856    0.7502   -0.2942 H       1  UNL1        0.0391
     36 H          -8.7339   -0.4064    0.5445 H       1  UNL1        0.0391
     37 H          -7.7202   -0.9540    2.8130 H       1  UNL1        0.0430
     38 H          -6.3034    0.1233    3.1849 H       1  UNL1        0.0430
     39 H          -6.7750   -1.0252    0.3894 H       1  UNL1        0.0341
     40 H          -5.7323   -1.7530    1.6461 H       1  UNL1        0.0341
     41 H          -1.6583   -1.2229   -0.4858 H       1  UNL1        0.1494
     42 H           0.6259    0.6481   -1.2469 H       1  UNL1        0.0516
     43 H           1.3567   -0.9045   -2.9116 H       1  UNL1        0.0284
     44 H          -0.2565   -0.2417   -3.2167 H       1  UNL1        0.0284
     45 H          -1.0653   -2.5845   -2.0354 H       1  UNL1        0.0266
     46 H          -0.7198   -2.3805   -3.7607 H       1  UNL1        0.0266
     47 H           0.3853   -4.3253   -2.4177 H       1  UNL1        0.0265
     48 H           1.2699   -3.5110   -3.7494 H       1  UNL1        0.0265
     49 H           2.6251   -2.2913   -2.1179 H       1  UNL1        0.0266
     50 H           2.4946   -3.9521   -1.5162 H       1  UNL1        0.0266
     51 H           1.6827   -3.0867    0.4613 H       1  UNL1        0.0284
     52 H           0.1750   -2.9525   -0.4589 H       1  UNL1        0.0284
     53 H           0.7650   -0.9731    0.8058 H       1  UNL1        0.0516
     54 H           3.0436   -0.5417   -1.1617 H       1  UNL1        0.1494
     55 H           4.7301    1.6263    2.7740 H       1  UNL1        0.0646
     56 H           7.3164    2.9141    2.8584 H       1  UNL1        0.0639
     57 H           9.4387    2.6974   -0.8015 H       1  UNL1        0.0633
     58 H           7.6007    1.4634   -1.7959 H       1  UNL1        0.0639
     59 H           5.0100    0.3895   -1.2474 H       1  UNL1        0.1660
     60 H          -6.6386    2.4669    2.7098 H       1  UNL1        0.0481
     61 H          -7.2456    2.8174    1.0733 H       1  UNL1        0.0481
@<TRIPOS>BOND
     1     1     2    1
     2     2     3    1
     3     3     4    1
     4     4     5    1
     5     5     6   ar
     6     6     7   ar
     7     7     8    1
     8     8     9    2
     9     8    10   am
    10    10    11    1
    11    11    12    1
    12    12    13    1
    13    13    14    1
    14    14    15    1
    15    15    16    1
    16    16    17    1
    17    17    18    1
    18    18    19   am
    19    19    20    2
    20    19    21    1
    21    21    22   ar
    22    22    23   ar
    23    23    24   ar
    24    24    25   ar
    25    25    26    1
    26    25    27   ar
    27    27    28   ar
    28    28    29   ar
    29    29    30   ar
    30     7    31   ar
    31    31    32   ar
    32    32    33    1
    33    33     2    1
    34    32     5   ar
    35    17    11    1
    36    30    21   ar
    37    29    23   ar
    38     1    34    1
    39     1    35    1
    40     1    36    1
    41     3    37    1
    42     3    38    1
    43     4    39    1
    44     4    40    1
    45    10    41    1
    46    11    42    1
    47    12    43    1
    48    12    44    1
    49    13    45    1
    50    13    46    1
    51    14    47    1
    52    14    48    1
    53    15    49    1
    54    15    50    1
    55    16    51    1
    56    16    52    1
    57    17    53    1
    58    18    54    1
    59    22    55    1
    60    24    56    1
    61    27    57    1
    62    28    58    1
    63    30    59    1
    64    33    60    1
    65    33    61    1
