
     RDKit          3D

124126  0  0  0  0  0  0  0  0999 V2000
    5.1449   -1.6571   -1.9881 C   0  0  0  0  0  0  0  0  0  0  0  0
    5.4333   -1.9519   -0.5062 C   0  0  0  0  0  0  0  0  0  0  0  0
    4.0800   -1.7688    0.2206 C   0  0  1  0  0  0  0  0  0  0  0  0
    3.1511   -2.6854   -0.3621 O   0  0  0  0  0  0  0  0  0  0  0  0
    2.0616   -2.2919   -1.0832 C   0  0  0  0  0  0  0  0  0  0  0  0
    2.0812   -1.0458   -1.1170 O   0  0  0  0  0  0  0  0  0  0  0  0
    0.8360   -2.4141   -1.8709 C   0  0  2  0  0  0  0  0  0  0  0  0
    1.1793   -2.9466   -3.2353 C   0  0  0  0  0  0  0  0  0  0  0  0
   -0.2864   -1.4856   -1.7092 C   0  0  1  0  0  0  0  0  0  0  0  0
   -0.6503   -1.5953   -0.3555 O   0  0  0  0  0  0  0  0  0  0  0  0
   -1.7554   -2.3992   -0.1362 C   0  0  1  0  0  0  0  0  0  0  0  0
   -1.3656   -3.5389    0.7665 C   0  0  0  0  0  0  0  0  0  0  0  0
   -2.4180   -4.0131    1.7069 C   0  0  1  0  0  0  0  0  0  0  0  0
   -2.4543   -5.5607    1.6982 C   0  0  0  0  0  0  0  0  0  0  0  0
   -2.0575   -3.6831    3.0031 O   0  0  0  0  0  0  0  0  0  0  0  0
   -1.8827   -2.3619    3.2769 C   0  0  0  0  0  0  0  0  0  0  0  0
   -3.8092   -3.5722    1.4470 C   0  0  1  0  0  0  0  0  0  0  0  0
   -4.4613   -3.1147    2.5888 O   0  0  0  0  0  0  0  0  0  0  0  0
   -3.9369   -2.5244    0.3774 C   0  0  2  0  0  0  0  0  0  0  0  0
   -4.2188   -3.0991   -0.9755 C   0  0  0  0  0  0  0  0  0  0  0  0
   -2.8172   -1.7015    0.4323 O   0  0  0  0  0  0  0  0  0  0  0  0
   -0.4100   -0.1168   -2.1374 C   0  0  2  0  0  0  0  0  0  0  0  0
   -0.1057    0.1741   -3.5983 C   0  0  0  0  0  0  0  0  0  0  0  0
   -0.3557    1.1000   -1.2837 C   0  0  1  0  0  0  0  0  0  0  0  0
   -1.2825    1.0999   -0.2552 O   0  0  0  0  0  0  0  0  0  0  0  0
   -2.2880    2.0096   -0.3139 C   0  0  2  0  0  0  0  0  0  0  0  0
   -2.2612    2.7364    0.9128 O   0  0  0  0  0  0  0  0  0  0  0  0
   -2.8535    3.9630    0.6359 C   0  0  2  0  0  0  0  0  0  0  0  0
   -2.4620    5.0627    1.5631 C   0  0  0  0  0  0  0  0  0  0  0  0
   -4.3518    3.6910    0.6252 C   0  0  0  0  0  0  0  0  0  0  0  0
   -4.5579    2.7702   -0.5838 C   0  0  1  0  0  0  0  0  0  0  0  0
   -3.7101    1.4979   -0.3698 C   0  0  1  0  0  0  0  0  0  0  0  0
   -4.0049    0.6911   -1.4288 O   0  0  0  0  0  0  0  0  0  0  0  0
   -5.9257    2.5219   -0.8333 N   0  0  0  0  0  0  0  0  0  0  0  0
   -6.2339    1.8354   -2.0582 C   0  0  0  0  0  0  0  0  0  0  0  0
   -6.7339    3.7195   -0.7687 C   0  0  0  0  0  0  0  0  0  0  0  0
    0.8585    1.9436   -1.1185 C   0  0  2  0  0  0  0  0  0  0  0  0
    0.4570    3.4515   -1.2955 C   0  0  0  0  0  0  0  0  0  0  0  0
    1.8101    1.8122   -2.1326 O   0  0  0  0  0  0  0  0  0  0  0  0
    1.5457    1.8772    0.1972 C   0  0  0  0  0  0  0  0  0  0  0  0
    2.7493    2.7551    0.4167 C   0  0  1  0  0  0  0  0  0  0  0  0
    2.5219    4.2298    0.5441 C   0  0  0  0  0  0  0  0  0  0  0  0
    3.4615    2.2806    1.6764 C   0  0  0  0  0  0  0  0  0  0  0  0
    4.1597    1.0401    1.3568 N   0  0  0  0  0  0  0  0  0  0  0  0
    5.2601    1.4617    0.4918 C   0  0  0  0  0  0  0  0  0  0  0  0
    4.5781    0.3381    2.5073 C   0  0  2  0  0  0  0  0  0  0  0  0
    5.6166    1.1639    3.2775 C   0  0  0  0  0  0  0  0  0  0  0  0
    5.1973   -1.0340    2.2982 C   0  0  1  0  0  0  0  0  0  0  0  0
    5.5389   -1.5121    3.6285 O   0  0  0  0  0  0  0  0  0  0  0  0
    4.3073   -2.0291    1.6584 C   0  0  1  0  0  0  0  0  0  0  0  0
    3.0207   -2.2505    2.4361 C   0  0  0  0  0  0  0  0  0  0  0  0
    4.9483   -3.2995    1.7041 O   0  0  0  0  0  0  0  0  0  0  0  0
    4.8069   -0.6139   -2.0389 H   0  0  0  0  0  0  0  0  0  0  0  0
    4.2462   -2.2784   -2.2784 H   0  0  0  0  0  0  0  0  0  0  0  0
    5.9855   -1.9303   -2.6250 H   0  0  0  0  0  0  0  0  0  0  0  0
    5.7872   -2.9851   -0.4699 H   0  0  0  0  0  0  0  0  0  0  0  0
    6.1573   -1.2579   -0.1015 H   0  0  0  0  0  0  0  0  0  0  0  0
    3.7500   -0.7706    0.0018 H   0  0  0  0  0  0  0  0  0  0  0  0
    0.4172   -3.3977   -1.3977 H   0  0  0  0  0  0  0  0  0  0  0  0
    0.3162   -3.3427   -3.7990 H   0  0  0  0  0  0  0  0  0  0  0  0
    1.8266   -2.2467   -3.8068 H   0  0  0  0  0  0  0  0  0  0  0  0
    1.8361   -3.8360   -3.0907 H   0  0  0  0  0  0  0  0  0  0  0  0
   -1.1498   -2.0930   -2.1877 H   0  0  0  0  0  0  0  0  0  0  0  0
   -2.1047   -2.8037   -1.0826 H   0  0  0  0  0  0  0  0  0  0  0  0
   -0.3927   -3.2840    1.2829 H   0  0  0  0  0  0  0  0  0  0  0  0
   -1.0957   -4.3984    0.1192 H   0  0  0  0  0  0  0  0  0  0  0  0
   -2.8566   -5.9006    0.6984 H   0  0  0  0  0  0  0  0  0  0  0  0
   -3.1481   -5.9589    2.4478 H   0  0  0  0  0  0  0  0  0  0  0  0
   -1.4690   -5.9999    1.8491 H   0  0  0  0  0  0  0  0  0  0  0  0
   -2.7238   -1.6895    3.1450 H   0  0  0  0  0  0  0  0  0  0  0  0
   -0.9386   -1.9674    2.7968 H   0  0  0  0  0  0  0  0  0  0  0  0
   -1.6325   -2.3010    4.3787 H   0  0  0  0  0  0  0  0  0  0  0  0
   -4.4623   -4.4268    1.0876 H   0  0  0  0  0  0  0  0  0  0  0  0
   -5.4158   -2.9336    2.3275 H   0  0  0  0  0  0  0  0  0  0  0  0
   -4.7958   -1.8735    0.6386 H   0  0  0  0  0  0  0  0  0  0  0  0
   -3.9707   -2.3801   -1.7609 H   0  0  0  0  0  0  0  0  0  0  0  0
   -3.8019   -4.1093   -1.1472 H   0  0  0  0  0  0  0  0  0  0  0  0
   -5.3361   -3.2442   -1.0610 H   0  0  0  0  0  0  0  0  0  0  0  0
   -1.5964   -0.0626   -2.3194 H   0  0  0  0  0  0  0  0  0  0  0  0
    0.9618    0.2614   -3.8178 H   0  0  0  0  0  0  0  0  0  0  0  0
   -0.6437   -0.5490   -4.2342 H   0  0  0  0  0  0  0  0  0  0  0  0
   -0.5502    1.1611   -3.8273 H   0  0  0  0  0  0  0  0  0  0  0  0
   -0.9642    1.9290   -1.9572 H   0  0  0  0  0  0  0  0  0  0  0  0
   -2.2310    2.6988   -1.1959 H   0  0  0  0  0  0  0  0  0  0  0  0
   -2.5280    4.2386   -0.3865 H   0  0  0  0  0  0  0  0  0  0  0  0
   -2.7494    6.0157    1.0985 H   0  0  0  0  0  0  0  0  0  0  0  0
   -1.3543    5.0635    1.6203 H   0  0  0  0  0  0  0  0  0  0  0  0
   -2.9392    5.0046    2.5619 H   0  0  0  0  0  0  0  0  0  0  0  0
   -4.8455    4.6485    0.3650 H   0  0  0  0  0  0  0  0  0  0  0  0
   -4.6554    3.2397    1.5686 H   0  0  0  0  0  0  0  0  0  0  0  0
   -4.0959    3.2890   -1.4435 H   0  0  0  0  0  0  0  0  0  0  0  0
   -4.0181    1.0522    0.6008 H   0  0  0  0  0  0  0  0  0  0  0  0
   -4.4206   -0.1316   -1.1239 H   0  0  0  0  0  0  0  0  0  0  0  0
   -7.0848    2.3407   -2.6047 H   0  0  0  0  0  0  0  0  0  0  0  0
   -5.3812    1.9460   -2.7591 H   0  0  0  0  0  0  0  0  0  0  0  0
   -6.4391    0.7564   -1.9376 H   0  0  0  0  0  0  0  0  0  0  0  0
   -6.4138    4.5214   -1.4589 H   0  0  0  0  0  0  0  0  0  0  0  0
   -6.8633    4.0545    0.2814 H   0  0  0  0  0  0  0  0  0  0  0  0
   -7.7554    3.4224   -1.1491 H   0  0  0  0  0  0  0  0  0  0  0  0
    1.3228    4.0228   -1.5522 H   0  0  0  0  0  0  0  0  0  0  0  0
   -0.2146    3.5046   -2.2018 H   0  0  0  0  0  0  0  0  0  0  0  0
   -0.1837    3.7214   -0.4702 H   0  0  0  0  0  0  0  0  0  0  0  0
    1.6213    2.3817   -2.9174 H   0  0  0  0  0  0  0  0  0  0  0  0
    1.7571    0.8458    0.5790 H   0  0  0  0  0  0  0  0  0  0  0  0
    0.8449    2.2653    1.0243 H   0  0  0  0  0  0  0  0  0  0  0  0
    3.4586    2.5609   -0.4663 H   0  0  0  0  0  0  0  0  0  0  0  0
    3.0998    4.6124    1.4731 H   0  0  0  0  0  0  0  0  0  0  0  0
    3.0132    4.8442   -0.2482 H   0  0  0  0  0  0  0  0  0  0  0  0
    1.4957    4.5398    0.7975 H   0  0  0  0  0  0  0  0  0  0  0  0
    2.7912    2.1852    2.5263 H   0  0  0  0  0  0  0  0  0  0  0  0
    4.2625    2.9827    1.9821 H   0  0  0  0  0  0  0  0  0  0  0  0
    6.2144    0.9539    0.7430 H   0  0  0  0  0  0  0  0  0  0  0  0
    5.3395    2.5570    0.5408 H   0  0  0  0  0  0  0  0  0  0  0  0
    4.9813    1.2232   -0.5506 H   0  0  0  0  0  0  0  0  0  0  0  0
    3.7115    0.2711    3.2163 H   0  0  0  0  0  0  0  0  0  0  0  0
    6.5768    1.2372    2.7211 H   0  0  0  0  0  0  0  0  0  0  0  0
    5.8470    0.5864    4.1935 H   0  0  0  0  0  0  0  0  0  0  0  0
    5.2130    2.1334    3.5745 H   0  0  0  0  0  0  0  0  0  0  0  0
    6.1571   -0.9035    1.8112 H   0  0  0  0  0  0  0  0  0  0  0  0
    6.1048   -2.3342    3.4694 H   0  0  0  0  0  0  0  0  0  0  0  0
    2.5576   -3.2361    2.2289 H   0  0  0  0  0  0  0  0  0  0  0  0
    3.3083   -2.2849    3.5162 H   0  0  0  0  0  0  0  0  0  0  0  0
    2.3132   -1.4306    2.3100 H   0  0  0  0  0  0  0  0  0  0  0  0
    4.7911   -3.6895    2.5843 H   0  0  0  0  0  0  0  0  0  0  0  0
  1  2  1  0
  2  3  1  0
  3  4  1  0
  4  5  1  0
  5  6  2  0
  5  7  1  0
  7  8  1  0
  7  9  1  0
  9 10  1  0
 10 11  1  0
 11 12  1  0
 12 13  1  0
 13 14  1  0
 13 15  1  1
 15 16  1  0
 13 17  1  0
 17 18  1  0
 17 19  1  0
 19 20  1  0
 19 21  1  0
  9 22  1  0
 22 23  1  0
 22 24  1  0
 24 25  1  0
 25 26  1  0
 26 27  1  0
 27 28  1  0
 28 29  1  0
 28 30  1  0
 30 31  1  0
 31 32  1  0
 32 33  1  0
 31 34  1  0
 34 35  1  0
 34 36  1  0
 24 37  1  0
 37 38  1  0
 37 39  1  6
 37 40  1  0
 40 41  1  0
 41 42  1  0
 41 43  1  0
 43 44  1  0
 44 45  1  0
 44 46  1  0
 46 47  1  0
 46 48  1  0
 48 49  1  0
 48 50  1  0
 50 51  1  0
 50 52  1  6
 50  3  1  0
 21 11  1  0
 32 26  1  0
  1 53  1  0
  1 54  1  0
  1 55  1  0
  2 56  1  0
  2 57  1  0
  3 58  1  1
  7 59  1  1
  8 60  1  0
  8 61  1  0
  8 62  1  0
  9 63  1  6
 11 64  1  6
 12 65  1  0
 12 66  1  0
 14 67  1  0
 14 68  1  0
 14 69  1  0
 16 70  1  0
 16 71  1  0
 16 72  1  0
 17 73  1  6
 18 74  1  0
 19 75  1  1
 20 76  1  0
 20 77  1  0
 20 78  1  0
 22 79  1  6
 23 80  1  0
 23 81  1  0
 23 82  1  0
 24 83  1  6
 26 84  1  6
 28 85  1  6
 29 86  1  0
 29 87  1  0
 29 88  1  0
 30 89  1  0
 30 90  1  0
 31 91  1  6
 32 92  1  1
 33 93  1  0
 35 94  1  0
 35 95  1  0
 35 96  1  0
 36 97  1  0
 36 98  1  0
 36 99  1  0
 38100  1  0
 38101  1  0
 38102  1  0
 39103  1  0
 40104  1  0
 40105  1  0
 41106  1  6
 42107  1  0
 42108  1  0
 42109  1  0
 43110  1  0
 43111  1  0
 45112  1  0
 45113  1  0
 45114  1  0
 46115  1  1
 47116  1  0
 47117  1  0
 47118  1  0
 48119  1  6
 49120  1  0
 51121  1  0
 51122  1  0
 51123  1  0
 52124  1  0
M  END
$$$$
