
     RDKit          3D

 32 33  0  0  0  0  0  0  0  0999 V2000
   -4.1048   -1.2610    0.6527 C   0  0  0  0  0  0  0  0  0  0  0  0
   -3.1559   -0.2685    0.0209 C   0  0  0  0  0  0  0  0  0  0  0  0
   -3.6595    0.3085   -1.2720 C   0  0  0  0  0  0  0  0  0  0  0  0
   -2.7729    0.7677    0.9440 N   0  0  0  0  0  0  0  0  0  0  0  0
   -1.3784    1.1008    0.8116 C   0  0  0  0  0  0  0  0  0  0  0  0
   -1.0100    2.1679    1.3771 O   0  0  0  0  0  0  0  0  0  0  0  0
   -0.8035    0.0507    0.0293 N   0  0  0  0  0  0  0  0  0  0  0  0
   -1.8266   -0.8897   -0.2996 C   0  0  0  0  0  0  0  0  0  0  0  0
   -1.3805   -1.9791   -0.7645 O   0  0  0  0  0  0  0  0  0  0  0  0
    0.5901    0.1517   -0.2445 C   0  0  0  0  0  0  0  0  0  0  0  0
    1.5494   -0.3828    0.5742 C   0  0  0  0  0  0  0  0  0  0  0  0
    2.8920   -0.2438    0.2420 C   0  0  0  0  0  0  0  0  0  0  0  0
    3.1803    0.4450   -0.9270 C   0  0  0  0  0  0  0  0  0  0  0  0
    2.2592    1.0047   -1.7903 C   0  0  0  0  0  0  0  0  0  0  0  0
    0.9520    0.8258   -1.3943 C   0  0  0  0  0  0  0  0  0  0  0  0
    4.5418    0.5681   -1.2338 N   0  0  0  0  0  4  0  0  0  0  0  0
    5.8037    0.0584   -1.1275 O   0  0  0  0  0  1  0  0  0  0  0  0
    5.2857    1.3538   -1.8521 O   0  0  0  0  0  0  0  0  0  0  0  0
    3.9641   -0.8060    1.0977 C   0  0  0  0  0  0  0  0  0  0  0  0
    4.8297    0.1651    1.5624 F   0  0  0  0  0  0  0  0  0  0  0  0
    4.6813   -1.7919    0.4245 F   0  0  0  0  0  0  0  0  0  0  0  0
    3.3734   -1.4210    2.1805 F   0  0  0  0  0  0  0  0  0  0  0  0
   -5.1303   -0.8861    0.4265 H   0  0  0  0  0  0  0  0  0  0  0  0
   -3.9387   -1.2534    1.7351 H   0  0  0  0  0  0  0  0  0  0  0  0
   -3.9254   -2.2700    0.2645 H   0  0  0  0  0  0  0  0  0  0  0  0
   -4.7518    0.3860   -1.3534 H   0  0  0  0  0  0  0  0  0  0  0  0
   -3.2610   -0.2645   -2.1528 H   0  0  0  0  0  0  0  0  0  0  0  0
   -3.2474    1.3502   -1.3974 H   0  0  0  0  0  0  0  0  0  0  0  0
   -3.5330    1.1440    1.5826 H   0  0  0  0  0  0  0  0  0  0  0  0
    1.2517   -0.9069    1.4702 H   0  0  0  0  0  0  0  0  0  0  0  0
    2.5506    1.5246   -2.6785 H   0  0  0  0  0  0  0  0  0  0  0  0
    0.1749    1.2517   -2.0434 H   0  0  0  0  0  0  0  0  0  0  0  0
  1  2  1  0
  2  3  1  0
  2  4  1  0
  4  5  1  0
  5  6  2  0
  5  7  1  0
  7  8  1  0
  8  9  2  0
  7 10  1  0
 10 11  2  0
 11 12  1  0
 12 13  2  0
 13 14  1  0
 14 15  2  0
 13 16  1  0
 16 17  1  0
 16 18  2  0
 12 19  1  0
 19 20  1  0
 19 21  1  0
 19 22  1  0
  8  2  1  0
 15 10  1  0
  1 23  1  0
  1 24  1  0
  1 25  1  0
  3 26  1  0
  3 27  1  0
  3 28  1  0
  4 29  1  0
 11 30  1  0
 14 31  1  0
 15 32  1  0
M  CHG  2  16   1  17  -1
M  END
$$$$
