@<TRIPOS>MOLECULE
*****
 55 58 0 0 0
SMALL
GASTEIGER

@<TRIPOS>ATOM
      1 O           2.6246    0.4562   -2.3709 O.2     1  UNL1       -0.2960
      2 C           3.1441    0.0312   -1.3705 C.2     1  UNL1        0.1561
      3 C           4.2243    0.7932   -0.7169 C.3     1  UNL1        0.0297
      4 C           5.1855   -0.2381   -0.1117 C.3     1  UNL1        0.0550
      5 C           6.4238    0.3885    0.3595 C.ar    1  UNL1       -0.0268
      6 C           6.4557    1.1238    1.5122 C.ar    1  UNL1       -0.0568
      7 C           7.6519    1.7090    1.9355 C.ar    1  UNL1       -0.0614
      8 C           8.8221    1.5700    1.2213 C.ar    1  UNL1       -0.0617
      9 C           8.7850    0.8288    0.0614 C.ar    1  UNL1       -0.0614
     10 C           7.5905    0.2452   -0.3600 C.ar    1  UNL1       -0.0568
     11 N           4.4484   -0.9092    0.9303 N.am    1  UNL1       -0.3071
     12 C           3.1518   -1.3901    0.6345 C.2     1  UNL1        0.2327
     13 O           2.4062   -1.9048    1.5053 O.2     1  UNL1       -0.2745
     14 C           2.7000   -1.2536   -0.7970 C.3     1  UNL1        0.1695
     15 C           1.2102   -1.3877   -0.8652 C.2     1  UNL1        0.2364
     16 O           0.7778   -2.3543   -1.5223 O.2     1  UNL1       -0.2742
     17 N           0.3576   -0.4823   -0.2295 N.am    1  UNL1       -0.2845
     18 C          -1.0402   -0.5295   -0.2396 C.ar    1  UNL1        0.0334
     19 C          -1.7593   -1.4731   -0.8763 C.ar    1  UNL1       -0.0402
     20 C          -3.1709   -1.4437   -0.8335 C.ar    1  UNL1       -0.0566
     21 C          -3.8704   -0.4829   -0.1622 C.ar    1  UNL1       -0.0442
     22 C          -5.3428   -0.4688   -0.1289 C.3     1  UNL1       -0.0158
     23 C          -5.8847   -0.5668    1.2817 C.3     1  UNL1       -0.0462
     24 C          -7.1649    0.2112    1.3566 C.3     1  UNL1       -0.0525
     25 C          -7.9895    0.0910    0.0910 C.3     1  UNL1       -0.0530
     26 C          -7.2739    0.6633   -1.1008 C.3     1  UNL1       -0.0525
     27 C          -5.8065    0.8198   -0.7988 C.3     1  UNL1       -0.0462
     28 C          -3.1289    0.4854    0.4912 C.ar    1  UNL1       -0.0566
     29 C          -1.7585    0.4613    0.4526 C.ar    1  UNL1       -0.0402
     30 H           3.7643    1.3661    0.1340 H       1  UNL1        0.0363
     31 H           4.7589    1.4804   -1.4001 H       1  UNL1        0.0363
     32 H           5.3672   -1.0033   -0.9082 H       1  UNL1        0.0552
     33 H           5.5360    1.2345    2.0759 H       1  UNL1        0.0621
     34 H           7.6678    2.2928    2.8546 H       1  UNL1        0.0618
     35 H           9.7312    2.0436    1.5887 H       1  UNL1        0.0618
     36 H           9.7090    0.7262   -0.4912 H       1  UNL1        0.0618
     37 H           7.5862   -0.3313   -1.2725 H       1  UNL1        0.0621
     38 H           4.8658   -1.0316    1.8686 H       1  UNL1        0.1493
     39 H           3.1466   -2.1135   -1.3225 H       1  UNL1        0.0569
     40 H           0.8669    0.3030    0.3018 H       1  UNL1        0.1548
     41 H          -1.3255   -2.2822   -1.4392 H       1  UNL1        0.0636
     42 H          -3.7256   -2.2248   -1.3613 H       1  UNL1        0.0621
     43 H          -5.7202   -1.3288   -0.7139 H       1  UNL1        0.0349
     44 H          -6.0822   -1.6162    1.5438 H       1  UNL1        0.0271
     45 H          -5.1476   -0.1379    1.9942 H       1  UNL1        0.0271
     46 H          -7.7920   -0.2026    2.1772 H       1  UNL1        0.0265
     47 H          -6.9454    1.2728    1.5766 H       1  UNL1        0.0265
     48 H          -8.3110   -0.9480   -0.0407 H       1  UNL1        0.0265
     49 H          -8.8989    0.7298    0.2545 H       1  UNL1        0.0265
     50 H          -7.4398   -0.0289   -1.9522 H       1  UNL1        0.0265
     51 H          -7.6784    1.6687   -1.4011 H       1  UNL1        0.0265
     52 H          -5.7151    1.6633   -0.0702 H       1  UNL1        0.0271
     53 H          -5.1953    0.9864   -1.7022 H       1  UNL1        0.0271
     54 H          -3.6230    1.2800    1.0450 H       1  UNL1        0.0621
     55 H          -1.1691    1.2083    0.9564 H       1  UNL1        0.0636
@<TRIPOS>BOND
     1     1     2    2
     2     2     3    1
     3     3     4    1
     4     4     5    1
     5     5     6   ar
     6     6     7   ar
     7     7     8   ar
     8     8     9   ar
     9     9    10   ar
    10     4    11    1
    11    11    12   am
    12    12    13    2
    13    12    14    1
    14    14    15    1
    15    15    16    2
    16    15    17   am
    17    17    18    1
    18    18    19   ar
    19    19    20   ar
    20    20    21   ar
    21    21    22    1
    22    22    23    1
    23    23    24    1
    24    24    25    1
    25    25    26    1
    26    26    27    1
    27    21    28   ar
    28    28    29   ar
    29    14     2    1
    30    29    18   ar
    31    10     5   ar
    32    27    22    1
    33     3    30    1
    34     3    31    1
    35     4    32    1
    36     6    33    1
    37     7    34    1
    38     8    35    1
    39     9    36    1
    40    10    37    1
    41    11    38    1
    42    14    39    1
    43    17    40    1
    44    19    41    1
    45    20    42    1
    46    22    43    1
    47    23    44    1
    48    23    45    1
    49    24    46    1
    50    24    47    1
    51    25    48    1
    52    25    49    1
    53    26    50    1
    54    26    51    1
    55    27    52    1
    56    27    53    1
    57    28    54    1
    58    29    55    1
