
     RDKit          3D

 98101  0  0  0  0  0  0  0  0999 V2000
   -2.5416    2.7427    1.8958 C   0  0  0  0  0  0  0  0  0  0  0  0
   -3.2656    1.7423    2.2708 C   0  0  0  0  0  0  0  0  0  0  0  0
   -3.8172    0.8169    1.1942 C   0  0  2  0  0  0  0  0  0  0  0  0
   -5.2490    0.5734    1.6561 C   0  0  0  0  0  0  0  0  0  0  0  0
   -6.0384   -0.3125    0.7966 C   0  0  0  0  0  0  0  0  0  0  0  0
   -6.1235   -1.6884    1.0496 C   0  0  0  0  0  0  0  0  0  0  0  0
   -6.8839   -2.4876    0.2154 C   0  0  0  0  0  0  0  0  0  0  0  0
   -7.5240   -1.8694   -0.8357 C   0  0  0  0  0  0  0  0  0  0  0  0
   -8.2920   -2.6765   -1.6814 O   0  0  0  0  0  0  0  0  0  0  0  0
   -7.4544   -0.5200   -1.1027 C   0  0  0  0  0  0  0  0  0  0  0  0
   -6.6859    0.2908   -0.2586 C   0  0  0  0  0  0  0  0  0  0  0  0
   -3.0152   -0.2677    1.0069 N   0  0  0  0  0  0  0  0  0  0  0  0
   -2.5823   -1.2238    0.4204 C   0  0  0  0  0  0  0  0  0  0  0  0
   -3.5329   -0.7987   -0.4888 O   0  0  0  0  0  0  0  0  0  0  0  0
   -1.4693   -2.0026    1.1154 C   0  0  1  0  0  0  0  0  0  0  0  0
   -1.8818   -3.3892    1.4033 C   0  0  0  0  0  0  0  0  0  0  0  0
   -2.2431   -4.1891    0.2056 C   0  0  0  0  0  0  0  0  0  0  0  0
   -1.2071   -4.9156   -0.3878 C   0  0  0  0  0  0  0  0  0  0  0  0
   -1.4029   -5.7006   -1.5107 C   0  0  0  0  0  0  0  0  0  0  0  0
   -2.6602   -5.7858   -2.0844 C   0  0  0  0  0  0  0  0  0  0  0  0
   -3.7033   -5.0678   -1.5049 C   0  0  0  0  0  0  0  0  0  0  0  0
   -3.4906   -4.2838   -0.3782 C   0  0  0  0  0  0  0  0  0  0  0  0
   -0.2498   -1.8179    0.3714 N   0  0  0  0  0  0  0  0  0  0  0  0
    1.0094   -1.3402    0.0040 C   0  0  0  0  0  0  0  0  0  0  0  0
    0.8321   -0.6334    1.0618 O   0  0  0  0  0  0  0  0  0  0  0  0
    1.8150   -1.7060   -1.1189 C   0  0  0  0  0  0  0  0  0  0  0  0
    1.3349   -2.7101   -1.7660 O   0  0  0  0  0  0  0  0  0  0  0  0
    3.0111   -1.3129   -1.7818 C   0  0  2  0  0  0  0  0  0  0  0  0
    4.1805   -2.2014   -1.2952 C   0  0  0  0  0  0  0  0  0  0  0  0
    4.3640   -2.0390    0.1826 C   0  0  0  0  0  0  0  0  0  0  0  0
    5.4995   -2.8747    0.7498 C   0  0  0  0  0  0  0  0  0  0  0  0
    6.7114   -2.5019    0.0996 N   0  0  0  0  0  0  0  0  0  0  0  0
    7.2454   -1.2256    0.3283 C   0  0  0  0  0  0  0  0  0  0  0  0
    8.1923   -0.5701   -0.5397 N   0  0  0  0  0  0  0  0  0  0  0  0
    6.9687   -0.4767    1.3196 N   0  0  0  0  0  0  0  0  0  0  0  0
    3.4752    0.0512   -1.5392 N   0  0  0  0  0  0  0  0  0  0  0  0
    2.6878    1.0769   -1.4547 C   0  0  0  0  0  0  0  0  0  0  0  0
    1.3301    0.8512   -1.5994 O   0  0  0  0  0  0  0  0  0  0  0  0
    3.4017    2.3391   -1.2200 C   0  0  2  0  0  0  0  0  0  0  0  0
    4.6924    2.2236   -0.4764 C   0  0  0  0  0  0  0  0  0  0  0  0
    4.5123    2.9916    0.7898 C   0  0  0  0  0  0  0  0  0  0  0  0
    3.0362    3.3494    0.8274 C   0  0  0  0  0  0  0  0  0  0  0  0
    2.5736    3.2917   -0.5276 N   0  0  0  0  0  0  0  0  0  0  0  0
    1.4718    4.1162   -0.8519 C   0  0  0  0  0  0  0  0  0  0  0  0
    1.3156    3.6605   -1.9979 O   0  0  0  0  0  0  0  0  0  0  0  0
    0.6983    5.1626   -0.1821 C   0  0  2  0  0  0  0  0  0  0  0  0
   -0.7731    5.0876   -0.4512 C   0  0  0  0  0  0  0  0  0  0  0  0
   -1.4698    4.1191    0.1729 N   0  0  0  0  0  0  0  0  0  0  0  0
   -2.0997    3.2241    0.6079 C   0  0  0  0  0  0  0  0  0  0  0  0
   -2.2722    2.7676   -0.6520 O   0  0  0  0  0  0  0  0  0  0  0  0
    1.2395    6.4923   -0.4212 N   0  0  0  0  0  0  0  0  0  0  0  0
    2.1043    7.0684    0.3232 C   0  0  0  0  0  0  0  0  0  0  0  0
    1.8853    8.0276   -0.6706 O   0  0  0  0  0  0  0  0  0  0  0  0
   -2.0529    3.5090    2.3936 H   0  0  0  0  0  0  0  0  0  0  0  0
   -3.4108    1.6636    3.3356 H   0  0  0  0  0  0  0  0  0  0  0  0
   -3.9083    1.4183    0.2432 H   0  0  0  0  0  0  0  0  0  0  0  0
   -5.2751    0.2419    2.7155 H   0  0  0  0  0  0  0  0  0  0  0  0
   -5.7241    1.5836    1.6699 H   0  0  0  0  0  0  0  0  0  0  0  0
   -5.6073   -2.1433    1.8818 H   0  0  0  0  0  0  0  0  0  0  0  0
   -7.0047   -3.5750    0.3410 H   0  0  0  0  0  0  0  0  0  0  0  0
   -9.3073   -2.5434   -1.7070 H   0  0  0  0  0  0  0  0  0  0  0  0
   -7.9611   -0.0370   -1.9287 H   0  0  0  0  0  0  0  0  0  0  0  0
   -6.6182    1.3444   -0.4440 H   0  0  0  0  0  0  0  0  0  0  0  0
   -4.0590   -1.4484   -1.0507 H   0  0  0  0  0  0  0  0  0  0  0  0
   -1.3750   -1.4854    2.1180 H   0  0  0  0  0  0  0  0  0  0  0  0
   -2.7659   -3.3531    2.0625 H   0  0  0  0  0  0  0  0  0  0  0  0
   -1.0957   -3.9195    1.9769 H   0  0  0  0  0  0  0  0  0  0  0  0
   -0.2033   -4.8746    0.0335 H   0  0  0  0  0  0  0  0  0  0  0  0
   -0.5362   -6.2458   -1.9239 H   0  0  0  0  0  0  0  0  0  0  0  0
   -2.8323   -6.3992   -2.9666 H   0  0  0  0  0  0  0  0  0  0  0  0
   -4.6986   -5.1209   -1.9435 H   0  0  0  0  0  0  0  0  0  0  0  0
   -4.2799   -3.7049    0.0999 H   0  0  0  0  0  0  0  0  0  0  0  0
   -0.5147   -2.4936   -0.3786 H   0  0  0  0  0  0  0  0  0  0  0  0
    2.9586   -1.3752   -2.9042 H   0  0  0  0  0  0  0  0  0  0  0  0
    4.0072   -3.2435   -1.5993 H   0  0  0  0  0  0  0  0  0  0  0  0
    5.1003   -1.8243   -1.7837 H   0  0  0  0  0  0  0  0  0  0  0  0
    3.4584   -2.3701    0.7637 H   0  0  0  0  0  0  0  0  0  0  0  0
    4.5030   -0.9849    0.4771 H   0  0  0  0  0  0  0  0  0  0  0  0
    5.3052   -3.9526    0.7227 H   0  0  0  0  0  0  0  0  0  0  0  0
    5.5742   -2.6328    1.8529 H   0  0  0  0  0  0  0  0  0  0  0  0
    7.2361   -3.1464   -0.5573 H   0  0  0  0  0  0  0  0  0  0  0  0
    7.5651    0.0415   -1.1410 H   0  0  0  0  0  0  0  0  0  0  0  0
    9.2100   -0.8302   -0.3884 H   0  0  0  0  0  0  0  0  0  0  0  0
    6.3290   -0.6592    2.1046 H   0  0  0  0  0  0  0  0  0  0  0  0
    0.9872    0.2876   -2.3884 H   0  0  0  0  0  0  0  0  0  0  0  0
    3.6369    2.7438   -2.2678 H   0  0  0  0  0  0  0  0  0  0  0  0
    5.5236    2.7609   -1.0388 H   0  0  0  0  0  0  0  0  0  0  0  0
    5.0038    1.1762   -0.3108 H   0  0  0  0  0  0  0  0  0  0  0  0
    5.0870    3.9416    0.8396 H   0  0  0  0  0  0  0  0  0  0  0  0
    4.7312    2.3991    1.6787 H   0  0  0  0  0  0  0  0  0  0  0  0
    2.8795    4.2905    1.3440 H   0  0  0  0  0  0  0  0  0  0  0  0
    2.4876    2.5162    1.3626 H   0  0  0  0  0  0  0  0  0  0  0  0
    0.8463    5.0003    0.9351 H   0  0  0  0  0  0  0  0  0  0  0  0
   -0.9070    5.0996   -1.6045 H   0  0  0  0  0  0  0  0  0  0  0  0
   -1.1777    6.1477   -0.2219 H   0  0  0  0  0  0  0  0  0  0  0  0
   -3.0362    3.0410   -1.2483 H   0  0  0  0  0  0  0  0  0  0  0  0
    2.5896    6.7014    1.2442 H   0  0  0  0  0  0  0  0  0  0  0  0
    1.6720    8.9774   -0.4020 H   0  0  0  0  0  0  0  0  0  0  0  0
  1  2  2  0
  2  3  1  0
  3  4  1  0
  4  5  1  0
  5  6  2  0
  6  7  1  0
  7  8  2  0
  8  9  1  0
  8 10  1  0
 10 11  2  0
  3 12  1  0
 12 13  2  3
 13 14  1  0
 13 15  1  0
 15 16  1  0
 16 17  1  0
 17 18  2  0
 18 19  1  0
 19 20  2  0
 20 21  1  0
 21 22  2  0
 15 23  1  0
 23 24  1  0
 24 25  2  0
 24 26  1  0
 26 27  2  0
 26 28  1  0
 28 29  1  0
 29 30  1  0
 30 31  1  0
 31 32  1  0
 32 33  1  0
 33 34  1  0
 33 35  2  3
 28 36  1  0
 36 37  2  3
 37 38  1  0
 37 39  1  0
 39 40  1  0
 40 41  1  0
 41 42  1  0
 42 43  1  0
 43 44  1  0
 44 45  2  0
 44 46  1  0
 46 47  1  0
 47 48  1  0
 48 49  2  0
 49 50  1  0
 46 51  1  0
 51 52  2  3
 52 53  1  0
 49  1  1  0
 11  5  1  0
 22 17  1  0
 43 39  1  0
  1 54  1  0
  2 55  1  0
  3 56  1  6
  4 57  1  0
  4 58  1  0
  6 59  1  0
  7 60  1  0
  9 61  1  0
 10 62  1  0
 11 63  1  0
 14 64  1  0
 15 65  1  1
 16 66  1  0
 16 67  1  0
 18 68  1  0
 19 69  1  0
 20 70  1  0
 21 71  1  0
 22 72  1  0
 23 73  1  0
 28 74  1  6
 29 75  1  0
 29 76  1  0
 30 77  1  0
 30 78  1  0
 31 79  1  0
 31 80  1  0
 32 81  1  0
 34 82  1  0
 34 83  1  0
 35 84  1  0
 38 85  1  0
 39 86  1  6
 40 87  1  0
 40 88  1  0
 41 89  1  0
 41 90  1  0
 42 91  1  0
 42 92  1  0
 46 93  1  1
 47 94  1  0
 47 95  1  0
 50 96  1  0
 52 97  1  0
 53 98  1  0
M  END
$$$$
