@<TRIPOS>MOLECULE
*****
 48 51 0 0 0
SMALL
GASTEIGER

@<TRIPOS>ATOM
      1 C           4.8006   -2.3373    0.0152 C.3     1  UNL1       -0.0375
      2 C           4.6776   -0.8826    0.1872 C.ar    1  UNL1       -0.0194
      3 C           5.7937   -0.0772    0.4225 C.ar    1  UNL1       -0.0436
      4 C           5.6715    1.2806    0.5822 C.ar    1  UNL1        0.0731
      5 C           6.8624    2.1664    0.8366 C.3     1  UNL1        0.4188
      6 F           7.4480    2.5227   -0.3395 F       1  UNL1       -0.1658
      7 F           7.7085    1.5538    1.7205 F       1  UNL1       -0.1658
      8 F           6.3912    3.3271    1.4573 F       1  UNL1       -0.1658
      9 C           4.4199    1.8466    0.5068 C.ar    1  UNL1        0.0401
     10 N           3.3492    1.0669    0.2802 N.ar    1  UNL1       -0.2495
     11 C           3.4631   -0.2726    0.1218 C.ar    1  UNL1        0.1286
     12 C           2.2339   -1.0692   -0.1257 C.2     1  UNL1        0.2668
     13 O           2.3162   -2.3000   -0.2736 O.2     1  UNL1       -0.2682
     14 N           0.9724   -0.4386   -0.1941 N.am    1  UNL1       -0.2802
     15 C          -0.2815   -1.0453   -0.4201 C.ar    1  UNL1        0.0341
     16 C          -0.4539   -2.3962   -0.6131 C.ar    1  UNL1       -0.0391
     17 C          -1.7300   -2.8780   -0.8253 C.ar    1  UNL1       -0.0413
     18 C          -2.8218   -2.0186   -0.8443 C.ar    1  UNL1        0.0466
     19 CL         -4.3927   -2.7622   -1.0810 Cl      1  UNL1       -0.0832
     20 C          -2.6205   -0.6801   -0.6507 C.ar    1  UNL1        0.0030
     21 C          -3.8248    0.2326   -0.7159 C.3     1  UNL1        0.1271
     22 C          -4.3436    0.1874   -2.1201 C.3     1  UNL1        0.1199
     23 F          -3.2855    0.6420   -2.9260 F       1  UNL1       -0.2462
     24 N          -4.7341   -0.2430    0.2815 N.2     1  UNL1       -0.2225
     25 C          -4.5668    0.0310    1.5176 C.2     1  UNL1        0.2763
     26 N          -5.4794   -0.4481    2.5364 N.pl3   1  UNL1       -0.3134
     27 O          -3.4606    0.8150    1.8222 O.2     1  UNL1       -0.4622
     28 C          -3.1445    1.8911    0.9678 C.3     1  UNL1        0.1090
     29 C          -4.2836    2.6251    0.2456 C.3     1  UNL1       -0.0065
     30 C          -3.3726    1.6572   -0.4524 C.3     1  UNL1        0.0314
     31 C          -1.3721   -0.1855   -0.4396 C.ar    1  UNL1       -0.0335
     32 H           5.8964   -2.5879    0.0901 H       1  UNL1        0.0278
     33 H           4.4863   -2.6583   -0.9964 H       1  UNL1        0.0278
     34 H           4.2618   -2.9189    0.8187 H       1  UNL1        0.0278
     35 H           6.7530   -0.5499    0.4753 H       1  UNL1        0.0627
     36 H           4.3282    2.9266    0.6345 H       1  UNL1        0.0835
     37 H           0.9957    0.6184   -0.0559 H       1  UNL1        0.1552
     38 H           0.3882   -3.0989   -0.6035 H       1  UNL1        0.0636
     39 H          -1.8627   -3.9451   -0.9773 H       1  UNL1        0.0633
     40 H          -5.1695    0.9103   -2.2961 H       1  UNL1        0.0643
     41 H          -4.5775   -0.8080   -2.5066 H       1  UNL1        0.0643
     42 H          -5.3648   -1.3436    3.0219 H       1  UNL1        0.1466
     43 H          -6.2771    0.1875    2.7500 H       1  UNL1        0.1466
     44 H          -2.2623    2.5085    1.2391 H       1  UNL1        0.0737
     45 H          -5.3012    2.2461    0.5533 H       1  UNL1        0.0306
     46 H          -4.1782    3.6943    0.0719 H       1  UNL1        0.0306
     47 H          -2.7592    2.1205   -1.2502 H       1  UNL1        0.0365
     48 H          -1.2974    0.8874   -0.2951 H       1  UNL1        0.0640
@<TRIPOS>BOND
     1     1     2    1
     2     2     3   ar
     3     3     4   ar
     4     4     5    1
     5     5     6    1
     6     5     7    1
     7     5     8    1
     8     4     9   ar
     9     9    10   ar
    10    10    11   ar
    11    11    12    1
    12    12    13    2
    13    12    14   am
    14    14    15    1
    15    15    16   ar
    16    16    17   ar
    17    17    18   ar
    18    18    19    1
    19    18    20   ar
    20    20    21    1
    21    21    22    1
    22    22    23    1
    23    21    24    1
    24    24    25    2
    25    25    26    1
    26    25    27    1
    27    27    28    1
    28    28    29    1
    29    29    30    1
    30    20    31   ar
    31    11     2   ar
    32    31    15   ar
    33    30    21    1
    34    30    28    1
    35     1    32    1
    36     1    33    1
    37     1    34    1
    38     3    35    1
    39     9    36    1
    40    14    37    1
    41    16    38    1
    42    17    39    1
    43    22    40    1
    44    22    41    1
    45    26    42    1
    46    26    43    1
    47    28    44    1
    48    29    45    1
    49    29    46    1
    50    30    47    1
    51    31    48    1
