
     RDKit          3D

 45 48  0  0  0  0  0  0  0  0999 V2000
    7.4552    1.9544    4.0778 C   0  0  0  0  0  0  0  0  0  0  0  0
    6.1536    1.6956    4.5421 O   0  0  0  0  0  0  0  0  0  0  0  0
    5.1921    1.1830    3.6718 C   0  0  0  0  0  0  0  0  0  0  0  0
    3.9177    0.9223    4.0984 C   0  0  0  0  0  0  0  0  0  0  0  0
    3.0169    0.4239    3.2147 N   0  0  0  0  0  0  0  0  0  0  0  0
    3.3364    0.1783    1.9337 C   0  0  0  0  0  0  0  0  0  0  0  0
    2.3444   -0.3579    1.0080 C   0  0  0  0  0  0  0  0  0  0  0  0
    2.6351   -0.5885   -0.1824 O   0  0  0  0  0  0  0  0  0  0  0  0
    1.0286   -0.6199    1.4741 N   0  0  0  0  0  0  0  0  0  0  0  0
    0.0048   -1.1402    0.6436 C   0  0  0  0  0  0  0  0  0  0  0  0
   -0.1593   -2.4927    0.5415 C   0  0  0  0  0  0  0  0  0  0  0  0
   -1.1432   -2.9767   -0.2573 C   0  0  0  0  0  0  0  0  0  0  0  0
   -1.9727   -2.1150   -0.9618 C   0  0  0  0  0  0  0  0  0  0  0  0
   -2.9203   -2.6861   -1.7283 F   0  0  0  0  0  0  0  0  0  0  0  0
   -1.8334   -0.7304   -0.8810 C   0  0  0  0  0  0  0  0  0  0  0  0
   -2.7464    0.1581   -1.6461 C   0  0  1  0  0  0  0  0  0  0  0  0
   -2.2786    1.6081   -1.4525 C   0  0  0  0  0  0  0  0  0  0  0  0
   -0.9857    1.7895   -1.9159 F   0  0  0  0  0  0  0  0  0  0  0  0
   -3.0746    2.4716   -2.1808 F   0  0  0  0  0  0  0  0  0  0  0  0
   -2.6093   -0.1440   -3.0556 N   0  0  0  0  0  0  0  0  0  0  0  0
   -3.5249   -0.5964   -3.8041 C   0  0  0  0  0  0  0  0  0  0  0  0
   -3.2651   -0.8517   -5.1701 N   0  0  0  0  0  0  0  0  0  0  0  0
   -4.7739   -0.8409   -3.2917 O   0  0  0  0  0  0  0  0  0  0  0  0
   -5.1412   -0.5271   -1.9843 C   0  0  2  0  0  0  0  0  0  0  0  0
   -5.2199    0.9612   -1.5811 C   0  0  0  0  0  0  0  0  0  0  0  0
   -4.1375    0.0810   -1.1275 C   0  0  2  0  0  0  0  0  0  0  0  0
   -0.8232   -0.2818   -0.0595 C   0  0  0  0  0  0  0  0  0  0  0  0
    4.6244    0.4449    1.5144 C   0  0  0  0  0  0  0  0  0  0  0  0
    5.5240    0.9367    2.3748 N   0  0  0  0  0  0  0  0  0  0  0  0
    7.9155    2.8544    4.5720 H   0  0  0  0  0  0  0  0  0  0  0  0
    8.0966    1.0784    4.3061 H   0  0  0  0  0  0  0  0  0  0  0  0
    7.4482    2.1521    2.9817 H   0  0  0  0  0  0  0  0  0  0  0  0
    3.6719    1.1241    5.1321 H   0  0  0  0  0  0  0  0  0  0  0  0
    0.8281   -0.4090    2.4903 H   0  0  0  0  0  0  0  0  0  0  0  0
    0.5080   -3.1437    1.1071 H   0  0  0  0  0  0  0  0  0  0  0  0
   -1.2680   -4.0649   -0.3334 H   0  0  0  0  0  0  0  0  0  0  0  0
   -2.3850    1.9104   -0.3892 H   0  0  0  0  0  0  0  0  0  0  0  0
   -3.0980   -1.8148   -5.5650 H   0  0  0  0  0  0  0  0  0  0  0  0
   -3.2312   -0.0655   -5.8449 H   0  0  0  0  0  0  0  0  0  0  0  0
   -5.9226   -1.1655   -1.4859 H   0  0  0  0  0  0  0  0  0  0  0  0
   -6.0411    1.2376   -0.8637 H   0  0  0  0  0  0  0  0  0  0  0  0
   -5.1848    1.6176   -2.4455 H   0  0  0  0  0  0  0  0  0  0  0  0
   -4.1752   -0.1737   -0.0250 H   0  0  0  0  0  0  0  0  0  0  0  0
   -0.6407    0.7676    0.0707 H   0  0  0  0  0  0  0  0  0  0  0  0
    4.8544    0.2358    0.4708 H   0  0  0  0  0  0  0  0  0  0  0  0
  1  2  1  0
  2  3  1  0
  3  4  2  0
  4  5  1  0
  5  6  2  0
  6  7  1  0
  7  8  2  0
  7  9  1  0
  9 10  1  0
 10 11  2  0
 11 12  1  0
 12 13  2  0
 13 14  1  0
 13 15  1  0
 15 16  1  0
 16 17  1  6
 17 18  1  0
 17 19  1  0
 16 20  1  0
 20 21  2  0
 21 22  1  0
 21 23  1  0
 23 24  1  0
 24 25  1  0
 25 26  1  0
 15 27  2  0
  6 28  1  0
 28 29  2  0
 29  3  1  0
 27 10  1  0
 26 16  1  0
 26 24  1  0
  1 30  1  0
  1 31  1  0
  1 32  1  0
  4 33  1  0
  9 34  1  0
 11 35  1  0
 12 36  1  0
 17 37  1  0
 22 38  1  0
 22 39  1  0
 24 40  1  1
 25 41  1  0
 25 42  1  0
 26 43  1  1
 27 44  1  0
 28 45  1  0
M  END
$$$$
