@<TRIPOS>MOLECULE
*****
 45 48 0 0 0
SMALL
GASTEIGER

@<TRIPOS>ATOM
      1 C           7.4552    1.9544    4.0778 C.3     1  UNL1        0.0805
      2 O           6.1536    1.6956    4.5421 O.3     1  UNL1       -0.4786
      3 C           5.1921    1.1830    3.6718 C.ar    1  UNL1        0.2332
      4 C           3.9177    0.9223    4.0984 C.ar    1  UNL1        0.0899
      5 N           3.0169    0.4239    3.2147 N.ar    1  UNL1       -0.2435
      6 C           3.3364    0.1783    1.9337 C.ar    1  UNL1        0.1439
      7 C           2.3444   -0.3579    1.0080 C.2     1  UNL1        0.2681
      8 O           2.6351   -0.5885   -0.1824 O.2     1  UNL1       -0.2681
      9 N           1.0286   -0.6199    1.4741 N.am    1  UNL1       -0.2802
     10 C           0.0048   -1.1402    0.6436 C.ar    1  UNL1        0.0342
     11 C          -0.1593   -2.4927    0.5415 C.ar    1  UNL1       -0.0377
     12 C          -1.1432   -2.9767   -0.2573 C.ar    1  UNL1       -0.0243
     13 C          -1.9727   -2.1150   -0.9618 C.ar    1  UNL1        0.1292
     14 F          -2.9203   -2.6861   -1.7283 F       1  UNL1       -0.2051
     15 C          -1.8334   -0.7304   -0.8810 C.ar    1  UNL1        0.0228
     16 C          -2.7464    0.1581   -1.6461 C.3     1  UNL1        0.1603
     17 C          -2.2786    1.6081   -1.4525 C.3     1  UNL1        0.2686
     18 F          -0.9857    1.7895   -1.9159 F       1  UNL1       -0.2062
     19 F          -3.0746    2.4716   -2.1808 F       1  UNL1       -0.2062
     20 N          -2.6093   -0.1440   -3.0556 N.2     1  UNL1       -0.2194
     21 C          -3.5249   -0.5964   -3.8041 C.2     1  UNL1        0.2764
     22 N          -3.2651   -0.8517   -5.1701 N.pl3   1  UNL1       -0.3134
     23 O          -4.7739   -0.8409   -3.2917 O.2     1  UNL1       -0.4622
     24 C          -5.1412   -0.5271   -1.9843 C.3     1  UNL1        0.1091
     25 C          -5.2199    0.9612   -1.5811 C.3     1  UNL1       -0.0064
     26 C          -4.1375    0.0810   -1.1275 C.3     1  UNL1        0.0344
     27 C          -0.8232   -0.2818   -0.0595 C.ar    1  UNL1       -0.0321
     28 C           4.6244    0.4449    1.5144 C.ar    1  UNL1        0.0619
     29 N           5.5240    0.9367    2.3748 N.ar    1  UNL1       -0.2178
     30 H           7.9155    2.8544    4.5720 H       1  UNL1        0.0660
     31 H           8.0966    1.0784    4.3061 H       1  UNL1        0.0660
     32 H           7.4482    2.1521    2.9817 H       1  UNL1        0.0660
     33 H           3.6719    1.1241    5.1321 H       1  UNL1        0.0884
     34 H           0.8281   -0.4090    2.4903 H       1  UNL1        0.1552
     35 H           0.5080   -3.1437    1.1071 H       1  UNL1        0.0637
     36 H          -1.2680   -4.0649   -0.3334 H       1  UNL1        0.0647
     37 H          -2.3850    1.9104   -0.3892 H       1  UNL1        0.1047
     38 H          -3.0980   -1.8148   -5.5650 H       1  UNL1        0.1466
     39 H          -3.2312   -0.0655   -5.8449 H       1  UNL1        0.1466
     40 H          -5.9226   -1.1655   -1.4859 H       1  UNL1        0.0737
     41 H          -6.0411    1.2376   -0.8637 H       1  UNL1        0.0306
     42 H          -5.1848    1.6176   -2.4455 H       1  UNL1        0.0306
     43 H          -4.1752   -0.1737   -0.0250 H       1  UNL1        0.0366
     44 H          -0.6407    0.7676    0.0707 H       1  UNL1        0.0640
     45 H           4.8544    0.2358    0.4708 H       1  UNL1        0.0854
@<TRIPOS>BOND
     1     1     2    1
     2     2     3    1
     3     3     4   ar
     4     4     5   ar
     5     5     6   ar
     6     6     7    1
     7     7     8    2
     8     7     9   am
     9     9    10    1
    10    10    11   ar
    11    11    12   ar
    12    12    13   ar
    13    13    14    1
    14    13    15   ar
    15    15    16    1
    16    16    17    1
    17    17    18    1
    18    17    19    1
    19    16    20    1
    20    20    21    2
    21    21    22    1
    22    21    23    1
    23    23    24    1
    24    24    25    1
    25    25    26    1
    26    15    27   ar
    27     6    28   ar
    28    28    29   ar
    29    29     3   ar
    30    27    10   ar
    31    26    16    1
    32    26    24    1
    33     1    30    1
    34     1    31    1
    35     1    32    1
    36     4    33    1
    37     9    34    1
    38    11    35    1
    39    12    36    1
    40    17    37    1
    41    22    38    1
    42    22    39    1
    43    24    40    1
    44    25    41    1
    45    25    42    1
    46    26    43    1
    47    27    44    1
    48    28    45    1
