@<TRIPOS>MOLECULE
*****
 53 56 0 0 0
SMALL
GASTEIGER

@<TRIPOS>ATOM
      1 O          -3.4744    1.3835    1.4537 O.2     1  UNL1       -0.2677
      2 C          -2.6680    0.9745    0.5627 C.ar    1  UNL1        0.2525
      3 C          -1.3112    0.8417    0.8893 C.ar    1  UNL1        0.0122
      4 C          -0.4081    0.4042   -0.0409 C.ar    1  UNL1        0.0070
      5 C           1.0292    0.2351    0.2097 C.ar    1  UNL1        0.0762
      6 C           1.5770    0.5160    1.4346 C.ar    1  UNL1       -0.0174
      7 C           2.9386    0.3608    1.6859 C.ar    1  UNL1        0.0332
      8 N           3.6979   -0.0781    0.6730 N.ar    1  UNL1       -0.2229
      9 C           3.1678   -0.3585   -0.5404 C.ar    1  UNL1        0.2159
     10 N           4.0122   -0.8214   -1.5833 N.pl3   1  UNL1       -0.3105
     11 C           5.4288   -0.9951   -1.3956 C.3     1  UNL1        0.0275
     12 C           6.1023    0.3040   -1.0790 C.3     1  UNL1       -0.0109
     13 C           7.6071    0.1105   -1.0370 C.3     1  UNL1        0.0493
     14 O           7.9530   -0.9962   -0.2647 O.3     1  UNL1       -0.3796
     15 C           6.8941   -1.4467    0.5069 C.3     1  UNL1        0.0493
     16 C           5.7496   -1.9979   -0.3022 C.3     1  UNL1       -0.0109
     17 N           1.8522   -0.2018   -0.7613 N.ar    1  UNL1       -0.2145
     18 C          -0.9327    0.1108   -1.3006 C.ar    1  UNL1       -0.0361
     19 C          -2.2704    0.2556   -1.5773 C.ar    1  UNL1        0.0093
     20 N          -3.1623    0.6902   -0.6502 N.ar    1  UNL1       -0.3056
     21 C          -4.5668    0.8328   -0.9733 C.3     1  UNL1        0.0853
     22 C          -4.9394    2.2873   -1.2051 C.3     1  UNL1        0.0691
     23 O          -4.7155    3.1063   -0.1310 O.3     1  UNL1       -0.3926
     24 C          -5.4802    0.1268   -0.0680 C.ar    1  UNL1       -0.0197
     25 C          -6.2040    0.7103    0.9283 C.ar    1  UNL1       -0.0550
     26 C          -7.0286   -0.0507    1.7261 C.ar    1  UNL1       -0.0403
     27 C          -7.1496   -1.4162    1.5464 C.ar    1  UNL1        0.0761
     28 CL         -8.1839   -2.4129    2.5373 Cl      1  UNL1       -0.0806
     29 C          -6.4275   -2.0309    0.5443 C.ar    1  UNL1        0.1419
     30 F          -6.5077   -3.3781    0.3216 F       1  UNL1       -0.2040
     31 C          -5.6114   -1.2550   -0.2397 C.ar    1  UNL1       -0.0198
     32 H          -0.9898    1.0888    1.8830 H       1  UNL1        0.0678
     33 H           0.9327    0.8711    2.2374 H       1  UNL1        0.0654
     34 H           3.3406    0.5940    2.6733 H       1  UNL1        0.0831
     35 H           3.5949   -1.0419   -2.5119 H       1  UNL1        0.1492
     36 H           5.8957   -1.3545   -2.3573 H       1  UNL1        0.0500
     37 H           5.7711    0.6969   -0.1192 H       1  UNL1        0.0305
     38 H           5.9122    1.0252   -1.9152 H       1  UNL1        0.0305
     39 H           8.0162   -0.0417   -2.0445 H       1  UNL1        0.0560
     40 H           8.0278    1.0109   -0.5649 H       1  UNL1        0.0560
     41 H           7.2922   -2.2656    1.1519 H       1  UNL1        0.0560
     42 H           6.5329   -0.6588    1.1975 H       1  UNL1        0.0560
     43 H           4.8829   -2.1149    0.3512 H       1  UNL1        0.0305
     44 H           6.0240   -2.9630   -0.7751 H       1  UNL1        0.0305
     45 H          -0.2229   -0.2386   -2.0497 H       1  UNL1        0.0639
     46 H          -2.6750    0.0221   -2.5725 H       1  UNL1        0.0810
     47 H          -4.7177    0.3571   -1.9909 H       1  UNL1        0.0601
     48 H          -4.3746    2.5975   -2.1203 H       1  UNL1        0.0581
     49 H          -6.0099    2.3741   -1.4814 H       1  UNL1        0.0581
     50 H          -5.3996    3.8092   -0.0014 H       1  UNL1        0.2095
     51 H          -6.1483    1.7641    1.1044 H       1  UNL1        0.0621
     52 H          -7.6254    0.3825    2.5367 H       1  UNL1        0.0633
     53 H          -5.0281   -1.7256   -1.0434 H       1  UNL1        0.0650
@<TRIPOS>BOND
     1     1     2    2
     2     2     3   ar
     3     3     4   ar
     4     4     5    1
     5     5     6   ar
     6     6     7   ar
     7     7     8   ar
     8     8     9   ar
     9     9    10    1
    10    10    11    1
    11    11    12    1
    12    12    13    1
    13    13    14    1
    14    14    15    1
    15    15    16    1
    16     9    17   ar
    17     4    18   ar
    18    18    19   ar
    19    19    20   ar
    20    20    21    1
    21    21    22    1
    22    22    23    1
    23    21    24    1
    24    24    25   ar
    25    25    26   ar
    26    26    27   ar
    27    27    28    1
    28    27    29   ar
    29    29    30    1
    30    29    31   ar
    31    20     2   ar
    32    31    24   ar
    33    17     5   ar
    34    16    11    1
    35     3    32    1
    36     6    33    1
    37     7    34    1
    38    10    35    1
    39    11    36    1
    40    12    37    1
    41    12    38    1
    42    13    39    1
    43    13    40    1
    44    15    41    1
    45    15    42    1
    46    16    43    1
    47    16    44    1
    48    18    45    1
    49    19    46    1
    50    21    47    1
    51    22    48    1
    52    22    49    1
    53    23    50    1
    54    25    51    1
    55    26    52    1
    56    31    53    1
