
     RDKit          3D

 38 41  0  0  0  0  0  0  0  0999 V2000
   -3.5440    1.6908   -1.6692 O   0  0  0  0  0  0  0  0  0  0  0  0
   -2.9704    1.0013   -0.7417 C   0  0  0  0  0  0  0  0  0  0  0  0
   -3.8944    0.2248    0.0718 C   0  0  0  0  0  0  0  0  0  0  0  0
   -4.5187   -0.9089   -0.4476 C   0  0  0  0  0  0  0  0  0  0  0  0
   -5.4183   -1.6632    0.2686 C   0  0  0  0  0  0  0  0  0  0  0  0
   -5.7225   -1.2962    1.5515 C   0  0  0  0  0  0  0  0  0  0  0  0
   -5.1345   -0.1815    2.1202 C   0  0  0  0  0  0  0  0  0  0  0  0
   -4.2295    0.5607    1.3693 C   0  0  0  0  0  0  0  0  0  0  0  0
   -1.5667    1.0334   -0.5731 N   0  0  0  0  0  0  0  0  0  0  0  0
   -0.7905    1.8687   -1.4623 C   0  0  0  0  0  0  0  0  0  0  0  0
    0.1678    0.9205   -2.1881 C   0  0  0  0  0  0  0  0  0  0  0  0
    1.1294    0.4869   -1.1122 C   0  0  0  0  0  0  0  0  0  0  0  0
    2.4196    0.3170   -1.0456 O   0  0  0  0  0  0  0  0  0  0  0  0
    2.8043   -0.0833    0.1431 C   0  0  0  0  0  0  0  0  0  0  0  0
    4.1647   -0.3703    0.5887 C   0  0  0  0  0  0  0  0  0  0  0  0
    5.2518   -0.2075   -0.2455 C   0  0  0  0  0  0  0  0  0  0  0  0
    6.5439   -0.4831    0.1834 C   0  0  0  0  0  0  0  0  0  0  0  0
    6.7475   -0.9285    1.4652 C   0  0  0  0  0  0  0  0  0  0  0  0
    7.9848   -1.2193    1.9540 F   0  0  0  0  0  0  0  0  0  0  0  0
    5.6558   -1.0899    2.2929 C   0  0  0  0  0  0  0  0  0  0  0  0
    4.3919   -0.8073    1.8382 N   0  0  0  0  0  0  0  0  0  0  0  0
    1.6562   -0.1679    0.8714 N   0  0  0  0  0  0  0  0  0  0  0  0
    0.5994    0.1803    0.1242 C   0  0  0  0  0  0  0  0  0  0  0  0
   -0.8652    0.2707    0.4347 C   0  0  0  0  0  0  0  0  0  0  0  0
   -4.2541   -1.1657   -1.4673 H   0  0  0  0  0  0  0  0  0  0  0  0
   -5.8554   -2.5139   -0.1752 H   0  0  0  0  0  0  0  0  0  0  0  0
   -6.4421   -1.8870    2.1345 H   0  0  0  0  0  0  0  0  0  0  0  0
   -5.3721    0.1129    3.1331 H   0  0  0  0  0  0  0  0  0  0  0  0
   -3.7403    1.4504    1.7864 H   0  0  0  0  0  0  0  0  0  0  0  0
   -0.1512    2.5067   -0.8352 H   0  0  0  0  0  0  0  0  0  0  0  0
   -1.4036    2.4363   -2.1774 H   0  0  0  0  0  0  0  0  0  0  0  0
   -0.3577   -0.0027   -2.5222 H   0  0  0  0  0  0  0  0  0  0  0  0
    0.6908    1.4504   -3.0069 H   0  0  0  0  0  0  0  0  0  0  0  0
    5.0537    0.1379   -1.2312 H   0  0  0  0  0  0  0  0  0  0  0  0
    7.3962   -0.3515   -0.4752 H   0  0  0  0  0  0  0  0  0  0  0  0
    5.8209   -1.4442    3.3039 H   0  0  0  0  0  0  0  0  0  0  0  0
   -0.9427    0.8504    1.3917 H   0  0  0  0  0  0  0  0  0  0  0  0
   -1.3046   -0.7283    0.5481 H   0  0  0  0  0  0  0  0  0  0  0  0
  1  2  2  0
  2  3  1  0
  3  4  2  0
  4  5  1  0
  5  6  2  0
  6  7  1  0
  7  8  2  0
  2  9  1  0
  9 10  1  0
 10 11  1  0
 11 12  1  0
 12 13  1  0
 13 14  1  0
 14 15  1  0
 15 16  2  0
 16 17  1  0
 17 18  2  0
 18 19  1  0
 18 20  1  0
 20 21  2  0
 14 22  2  0
 22 23  1  0
 23 24  1  0
  8  3  1  0
 24  9  1  0
 23 12  2  0
 21 15  1  0
  4 25  1  0
  5 26  1  0
  6 27  1  0
  7 28  1  0
  8 29  1  0
 10 30  1  0
 10 31  1  0
 11 32  1  0
 11 33  1  0
 16 34  1  0
 17 35  1  0
 20 36  1  0
 24 37  1  0
 24 38  1  0
M  END
$$$$
