@<TRIPOS>MOLECULE
*****
 38 41 0 0 0
SMALL
GASTEIGER

@<TRIPOS>ATOM
      1 O          -3.5440    1.6908   -1.6692 O.2     1  UNL1       -0.2700
      2 C          -2.9704    1.0013   -0.7417 C.2     1  UNL1        0.2470
      3 C          -3.8944    0.2248    0.0718 C.ar    1  UNL1        0.0369
      4 C          -4.5187   -0.9089   -0.4476 C.ar    1  UNL1       -0.0496
      5 C          -5.4183   -1.6632    0.2686 C.ar    1  UNL1       -0.0610
      6 C          -5.7225   -1.2962    1.5515 C.ar    1  UNL1       -0.0617
      7 C          -5.1345   -0.1815    2.1202 C.ar    1  UNL1       -0.0610
      8 C          -4.2295    0.5607    1.3693 C.ar    1  UNL1       -0.0496
      9 N          -1.5667    1.0334   -0.5731 N.am    1  UNL1       -0.2912
     10 C          -0.7905    1.8687   -1.4623 C.3     1  UNL1        0.0223
     11 C           0.1678    0.9205   -2.1881 C.3     1  UNL1        0.0233
     12 C           1.1294    0.4869   -1.1122 C.ar    1  UNL1        0.1319
     13 O           2.4196    0.3170   -1.0456 O.2     1  UNL1       -0.4387
     14 C           2.8043   -0.0833    0.1431 C.ar    1  UNL1        0.2465
     15 C           4.1647   -0.3703    0.5887 C.ar    1  UNL1        0.1257
     16 C           5.2518   -0.2075   -0.2455 C.ar    1  UNL1       -0.0283
     17 C           6.5439   -0.4831    0.1834 C.ar    1  UNL1       -0.0228
     18 C           6.7475   -0.9285    1.4652 C.ar    1  UNL1        0.1414
     19 F           7.9848   -1.2193    1.9540 F       1  UNL1       -0.2039
     20 C           5.6558   -1.0899    2.2929 C.ar    1  UNL1        0.0636
     21 N           4.3919   -0.8073    1.8382 N.ar    1  UNL1       -0.2474
     22 N           1.6562   -0.1679    0.8714 N.ar    1  UNL1       -0.2108
     23 C           0.5994    0.1803    0.1242 C.ar    1  UNL1        0.1003
     24 C          -0.8652    0.2707    0.4347 C.3     1  UNL1        0.0605
     25 H          -4.2541   -1.1657   -1.4673 H       1  UNL1        0.0625
     26 H          -5.8554   -2.5139   -0.1752 H       1  UNL1        0.0618
     27 H          -6.4421   -1.8870    2.1345 H       1  UNL1        0.0618
     28 H          -5.3721    0.1129    3.1331 H       1  UNL1        0.0618
     29 H          -3.7403    1.4504    1.7864 H       1  UNL1        0.0625
     30 H          -0.1512    2.5067   -0.8352 H       1  UNL1        0.0469
     31 H          -1.4036    2.4363   -2.1774 H       1  UNL1        0.0469
     32 H          -0.3577   -0.0027   -2.5222 H       1  UNL1        0.0359
     33 H           0.6908    1.4504   -3.0069 H       1  UNL1        0.0359
     34 H           5.0537    0.1379   -1.2312 H       1  UNL1        0.0641
     35 H           7.3962   -0.3515   -0.4752 H       1  UNL1        0.0647
     36 H           5.8209   -1.4442    3.3039 H       1  UNL1        0.0859
     37 H          -0.9427    0.8504    1.3917 H       1  UNL1        0.0530
     38 H          -1.3046   -0.7283    0.5481 H       1  UNL1        0.0530
@<TRIPOS>BOND
     1     1     2    2
     2     2     3    1
     3     3     4   ar
     4     4     5   ar
     5     5     6   ar
     6     6     7   ar
     7     7     8   ar
     8     2     9   am
     9     9    10    1
    10    10    11    1
    11    11    12    1
    12    12    13   ar
    13    13    14   ar
    14    14    15    1
    15    15    16   ar
    16    16    17   ar
    17    17    18   ar
    18    18    19    1
    19    18    20   ar
    20    20    21   ar
    21    14    22   ar
    22    22    23   ar
    23    23    24    1
    24     8     3   ar
    25    24     9    1
    26    23    12   ar
    27    21    15   ar
    28     4    25    1
    29     5    26    1
    30     6    27    1
    31     7    28    1
    32     8    29    1
    33    10    30    1
    34    10    31    1
    35    11    32    1
    36    11    33    1
    37    16    34    1
    38    17    35    1
    39    20    36    1
    40    24    37    1
    41    24    38    1
