
     RDKit          3D

 84 86  0  0  0  0  0  0  0  0999 V2000
    3.2696    2.2260   -1.6190 C   0  0  0  0  0  0  0  0  0  0  0  0
    3.0751    0.9041   -0.9069 C   0  0  0  0  0  0  0  0  0  0  0  0
    3.5177   -0.2154   -1.8043 C   0  0  0  0  0  0  0  0  0  0  0  0
    1.5795    0.7471   -0.6376 C   0  0  0  0  0  0  0  0  0  0  0  0
    1.1235    1.8013    0.1637 O   0  0  0  0  0  0  0  0  0  0  0  0
   -0.5288    1.5643    0.4199 P   0  0  0  0  0  0  0  0  0  0  0  0
   -0.8692   -0.0836    0.2590 O   0  0  0  0  0  0  0  0  0  0  0  0
   -0.9305    1.9516    1.8250 O   0  0  0  0  0  0  0  0  0  0  0  0
   -1.3820    2.4294   -0.7415 O   0  0  0  0  0  0  0  0  0  0  0  0
   -2.4469    1.4600   -1.6018 P   0  0  0  0  0  0  0  0  0  0  0  0
   -3.8537    2.3516   -1.9302 O   0  0  0  0  0  0  0  0  0  0  0  0
   -1.8532    0.9921   -2.9242 O   0  0  0  0  0  0  0  0  0  0  0  0
   -2.9294    0.0845   -0.7306 O   0  0  0  0  0  0  0  0  0  0  0  0
   -4.2651   -0.1981   -1.0138 C   0  0  0  0  0  0  0  0  0  0  0  0
   -4.6523   -1.4186   -0.2253 C   0  0  1  0  0  0  0  0  0  0  0  0
   -4.5406   -1.3093    1.1300 O   0  0  0  0  0  0  0  0  0  0  0  0
   -5.7864   -1.6021    1.6967 C   0  0  2  0  0  0  0  0  0  0  0  0
   -6.3812   -2.5846    0.7445 C   0  0  2  0  0  0  0  0  0  0  0  0
   -5.6627   -3.7581    0.8087 O   0  0  0  0  0  0  0  0  0  0  0  0
   -6.0393   -1.9115   -0.5700 C   0  0  2  0  0  0  0  0  0  0  0  0
   -6.0402   -2.7948   -1.6334 O   0  0  0  0  0  0  0  0  0  0  0  0
   -7.0026   -2.1203   -2.8508 P   0  0  0  0  0  0  0  0  0  0  0  0
   -6.3793   -2.4550   -4.3850 O   0  0  0  0  0  0  0  0  0  0  0  0
   -7.0224   -0.4311   -2.6495 O   0  0  0  0  0  0  0  0  0  0  0  0
   -8.4033   -2.6142   -2.6835 O   0  0  0  0  0  0  0  0  0  0  0  0
   -6.5016   -0.3741    1.8467 N   0  0  0  0  0  0  0  0  0  0  0  0
   -5.8951    0.7871    2.2166 C   0  0  0  0  0  0  0  0  0  0  0  0
   -6.8298    1.7537    2.2685 N   0  0  0  0  0  0  0  0  0  0  0  0
   -8.0119    1.2254    1.9391 C   0  0  0  0  0  0  0  0  0  0  0  0
   -7.7926   -0.1051    1.6779 C   0  0  0  0  0  0  0  0  0  0  0  0
   -8.8336   -0.8448    1.3258 N   0  0  0  0  0  0  0  0  0  0  0  0
  -10.0681   -0.2878    1.2321 C   0  0  0  0  0  0  0  0  0  0  0  0
  -10.2775    1.0243    1.4909 N   0  0  0  0  0  0  0  0  0  0  0  0
   -9.2587    1.8443    1.8571 C   0  0  0  0  0  0  0  0  0  0  0  0
   -9.4204    3.2259    2.1402 N   0  0  0  0  0  0  0  0  0  0  0  0
    3.7627    0.9247    0.4309 C   0  0  1  0  0  0  0  0  0  0  0  0
    3.5870   -0.2819    1.0845 O   0  0  0  0  0  0  0  0  0  0  0  0
    5.2133    1.2377    0.2714 C   0  0  0  0  0  0  0  0  0  0  0  0
    5.5610    2.3022   -0.3038 O   0  0  0  0  0  0  0  0  0  0  0  0
    6.1833    0.3086    0.7826 N   0  0  0  0  0  0  0  0  0  0  0  0
    7.5911    0.6077    0.6304 C   0  0  0  0  0  0  0  0  0  0  0  0
    8.3416   -0.5517    1.2650 C   0  0  0  0  0  0  0  0  0  0  0  0
    9.7808   -0.3018    1.1396 C   0  0  0  0  0  0  0  0  0  0  0  0
    9.9374    0.7882    0.5494 O   0  0  0  0  0  0  0  0  0  0  0  0
   10.8657   -1.0748    1.5667 N   0  0  0  0  0  0  0  0  0  0  0  0
   12.2944   -0.9904    1.5221 C   0  0  0  0  0  0  0  0  0  0  0  0
   12.8036   -0.9960    0.1221 C   0  0  0  0  0  0  0  0  0  0  0  0
   12.2311    0.3820   -0.8452 S   0  0  0  0  0  0  0  0  0  0  0  0
    4.1372    2.2104   -2.3044 H   0  0  0  0  0  0  0  0  0  0  0  0
    2.3618    2.4099   -2.2296 H   0  0  0  0  0  0  0  0  0  0  0  0
    3.3291    3.0294   -0.8591 H   0  0  0  0  0  0  0  0  0  0  0  0
    2.6753   -0.6063   -2.4426 H   0  0  0  0  0  0  0  0  0  0  0  0
    3.9390   -1.0874   -1.2824 H   0  0  0  0  0  0  0  0  0  0  0  0
    4.2622    0.1916   -2.5442 H   0  0  0  0  0  0  0  0  0  0  0  0
    0.9888    0.8194   -1.5937 H   0  0  0  0  0  0  0  0  0  0  0  0
    1.3578   -0.1957   -0.1079 H   0  0  0  0  0  0  0  0  0  0  0  0
   -0.3524   -0.6042    0.9315 H   0  0  0  0  0  0  0  0  0  0  0  0
   -4.0079    3.0115   -1.2060 H   0  0  0  0  0  0  0  0  0  0  0  0
   -4.2845   -0.4842   -2.0860 H   0  0  0  0  0  0  0  0  0  0  0  0
   -4.8818    0.6882   -0.7711 H   0  0  0  0  0  0  0  0  0  0  0  0
   -3.9573   -2.2348   -0.5493 H   0  0  0  0  0  0  0  0  0  0  0  0
   -5.5713   -2.0330    2.6965 H   0  0  0  0  0  0  0  0  0  0  0  0
   -7.4605   -2.7518    0.8718 H   0  0  0  0  0  0  0  0  0  0  0  0
   -5.3314   -4.0290   -0.0716 H   0  0  0  0  0  0  0  0  0  0  0  0
   -6.6490   -1.0095   -0.7706 H   0  0  0  0  0  0  0  0  0  0  0  0
   -7.0839   -2.2109   -5.0402 H   0  0  0  0  0  0  0  0  0  0  0  0
   -7.9446   -0.0738   -2.6541 H   0  0  0  0  0  0  0  0  0  0  0  0
   -4.8414    0.9195    2.4338 H   0  0  0  0  0  0  0  0  0  0  0  0
  -10.9764   -0.8052    0.9538 H   0  0  0  0  0  0  0  0  0  0  0  0
   -9.2850    3.7514    1.2564 H   0  0  0  0  0  0  0  0  0  0  0  0
   -9.6296    3.7895    2.9764 H   0  0  0  0  0  0  0  0  0  0  0  0
    3.2907    1.7282    1.0225 H   0  0  0  0  0  0  0  0  0  0  0  0
    3.1171   -0.9653    0.5807 H   0  0  0  0  0  0  0  0  0  0  0  0
    5.8098   -0.5538    1.2480 H   0  0  0  0  0  0  0  0  0  0  0  0
    7.8831    0.7168   -0.4235 H   0  0  0  0  0  0  0  0  0  0  0  0
    7.7985    1.5625    1.1507 H   0  0  0  0  0  0  0  0  0  0  0  0
    8.0517   -1.4505    0.6946 H   0  0  0  0  0  0  0  0  0  0  0  0
    7.9875   -0.6563    2.3187 H   0  0  0  0  0  0  0  0  0  0  0  0
   10.4302   -1.9331    2.0374 H   0  0  0  0  0  0  0  0  0  0  0  0
   12.5711   -0.0184    2.0202 H   0  0  0  0  0  0  0  0  0  0  0  0
   12.7024   -1.8092    2.1310 H   0  0  0  0  0  0  0  0  0  0  0  0
   12.5006   -1.9395   -0.4292 H   0  0  0  0  0  0  0  0  0  0  0  0
   13.9183   -1.0799    0.1618 H   0  0  0  0  0  0  0  0  0  0  0  0
   12.2851    0.0846   -2.2202 H   0  0  0  0  0  0  0  0  0  0  0  0
  1  2  1  0
  2  3  1  0
  2  4  1  0
  4  5  1  0
  5  6  1  0
  6  7  1  0
  6  8  2  0
  6  9  1  0
  9 10  1  0
 10 11  1  0
 10 12  2  0
 10 13  1  0
 13 14  1  0
 14 15  1  0
 15 16  1  0
 16 17  1  0
 17 18  1  0
 18 19  1  0
 18 20  1  0
 20 21  1  0
 21 22  1  0
 22 23  1  0
 22 24  1  0
 22 25  2  0
 17 26  1  0
 26 27  1  0
 27 28  2  0
 28 29  1  0
 29 30  2  0
 30 31  1  0
 31 32  2  0
 32 33  1  0
 33 34  2  0
 34 35  1  0
  2 36  1  0
 36 37  1  0
 36 38  1  0
 38 39  2  0
 38 40  1  0
 40 41  1  0
 41 42  1  0
 42 43  1  0
 43 44  2  0
 43 45  1  0
 45 46  1  0
 46 47  1  0
 47 48  1  0
 20 15  1  0
 30 26  1  0
 34 29  1  0
  1 49  1  0
  1 50  1  0
  1 51  1  0
  3 52  1  0
  3 53  1  0
  3 54  1  0
  4 55  1  0
  4 56  1  0
  7 57  1  0
 11 58  1  0
 14 59  1  0
 14 60  1  0
 15 61  1  6
 17 62  1  1
 18 63  1  1
 19 64  1  0
 20 65  1  6
 23 66  1  0
 24 67  1  0
 27 68  1  0
 32 69  1  0
 35 70  1  0
 35 71  1  0
 36 72  1  1
 37 73  1  0
 40 74  1  0
 41 75  1  0
 41 76  1  0
 42 77  1  0
 42 78  1  0
 45 79  1  0
 46 80  1  0
 46 81  1  0
 47 82  1  0
 47 83  1  0
 48 84  1  0
M  END
$$$$
