@<TRIPOS>MOLECULE
*****
 65 69 0 0 0
SMALL
GASTEIGER

@<TRIPOS>ATOM
      1 O           5.3998    2.4920   -0.5453 O.2     1  UNL1       -0.2702
      2 C           5.1110    1.2679   -0.6828 C.2     1  UNL1        0.2443
      3 N           5.9845    0.2877   -0.1742 N.am    1  UNL1       -0.3069
      4 C           7.2371    0.6524    0.5201 C.3     1  UNL1        0.0428
      5 C           7.2684    0.1338    1.9181 C.3     1  UNL1       -0.0315
      6 C           8.2133   -1.0028    2.1370 C.3     1  UNL1       -0.0319
      7 C           9.6671   -0.5415    2.0999 C.3     1  UNL1        0.0659
      8 S           9.9053    0.2382    0.5192 S.O2    1  UNL1       -0.0293
      9 O          10.3445    1.6566    0.6531 O.2     1  UNL1       -0.1743
     10 O          10.9121   -0.5646   -0.2929 O.2     1  UNL1       -0.1743
     11 C           8.3531    0.1202   -0.3481 C.3     1  UNL1        0.0841
     12 C           3.8844    0.9268   -1.3631 C.ar    1  UNL1        0.0369
     13 C           3.4587   -0.3581   -1.5759 C.ar    1  UNL1       -0.0462
     14 C           2.2582   -0.6426   -2.2427 C.ar    1  UNL1       -0.0186
     15 C           1.4593    0.3725   -2.7105 C.ar    1  UNL1        0.1285
     16 O           0.2938    0.1006   -3.3579 O.3     1  UNL1       -0.4560
     17 C          -0.8857   -0.0155   -2.6300 C.ar    1  UNL1        0.1285
     18 C          -0.8613    0.1465   -1.2562 C.ar    1  UNL1       -0.0182
     19 C          -1.9841    0.0470   -0.4670 C.ar    1  UNL1       -0.0429
     20 C          -3.1893   -0.2282   -1.0855 C.ar    1  UNL1        0.0252
     21 C          -4.3608   -0.3319   -0.2612 C.1     1  UNL1       -0.0634
     22 C          -5.3523   -0.4404    0.4367 C.1     1  UNL1       -0.0608
     23 C          -6.5551   -0.5508    1.2669 C.3     1  UNL1        0.1421
     24 O          -6.1671   -0.6126    2.5880 O.3     1  UNL1       -0.3750
     25 C          -7.3892   -1.7640    0.8529 C.3     1  UNL1        0.0393
     26 N          -8.3299   -1.3881   -0.1847 N.3     1  UNL1       -0.2986
     27 C          -7.7403   -0.4678   -1.1340 C.3     1  UNL1       -0.0006
     28 C          -7.4072    0.8683   -0.5225 C.3     1  UNL1       -0.0337
     29 C          -7.4040    0.6800    0.9933 C.3     1  UNL1        0.0027
     30 C          -8.8406    0.4070    1.4113 C.3     1  UNL1       -0.0337
     31 C          -9.4094   -0.6476    0.4847 C.3     1  UNL1       -0.0006
     32 C          -3.2138   -0.3896   -2.4534 C.ar    1  UNL1       -0.0429
     33 C          -2.0935   -0.2906   -3.2431 C.ar    1  UNL1       -0.0182
     34 C           1.8683    1.6684   -2.5073 C.ar    1  UNL1       -0.0186
     35 C           3.0494    1.9326   -1.8509 C.ar    1  UNL1       -0.0462
     36 H           5.7298   -0.7163   -0.2970 H       1  UNL1        0.1493
     37 H           7.2794    1.7453    0.5222 H       1  UNL1        0.0514
     38 H           6.2642   -0.1847    2.2598 H       1  UNL1        0.0284
     39 H           7.5620    0.9664    2.6225 H       1  UNL1        0.0284
     40 H           8.0983   -1.7853    1.3653 H       1  UNL1        0.0281
     41 H           8.0109   -1.4287    3.1442 H       1  UNL1        0.0281
     42 H           9.8706    0.2175    2.8839 H       1  UNL1        0.0500
     43 H          10.3123   -1.4302    2.1655 H       1  UNL1        0.0500
     44 H           8.1741   -0.8862   -0.7248 H       1  UNL1        0.0518
     45 H           8.3983    0.7962   -1.2418 H       1  UNL1        0.0518
     46 H           4.0433   -1.1771   -1.2320 H       1  UNL1        0.0626
     47 H           1.9402   -1.6721   -2.4002 H       1  UNL1        0.0654
     48 H           0.0795    0.3622   -0.7666 H       1  UNL1        0.0655
     49 H          -1.9588    0.1761    0.6187 H       1  UNL1        0.0631
     50 H          -6.0390   -1.5644    2.8519 H       1  UNL1        0.2115
     51 H          -7.9450   -2.1937    1.6929 H       1  UNL1        0.0465
     52 H          -6.6765   -2.4957    0.4330 H       1  UNL1        0.0465
     53 H          -8.5235   -0.2915   -1.9195 H       1  UNL1        0.0427
     54 H          -6.8495   -0.8896   -1.6432 H       1  UNL1        0.0427
     55 H          -8.0767    1.6805   -0.8366 H       1  UNL1        0.0281
     56 H          -6.3546    1.1885   -0.7777 H       1  UNL1        0.0281
     57 H          -6.9866    1.5767    1.4557 H       1  UNL1        0.0339
     58 H          -8.8064    0.0095    2.4316 H       1  UNL1        0.0281
     59 H          -9.4038    1.3742    1.3336 H       1  UNL1        0.0281
     60 H         -10.0135   -1.4051    1.0183 H       1  UNL1        0.0427
     61 H          -9.9895   -0.1657   -0.3140 H       1  UNL1        0.0427
     62 H          -4.1533   -0.6043   -2.9359 H       1  UNL1        0.0631
     63 H          -2.0868   -0.4129   -4.3169 H       1  UNL1        0.0655
     64 H           1.2472    2.4915   -2.8716 H       1  UNL1        0.0654
     65 H           3.3685    2.9571   -1.6926 H       1  UNL1        0.0626
@<TRIPOS>BOND
     1     1     2    2
     2     2     3   am
     3     3     4    1
     4     4     5    1
     5     5     6    1
     6     6     7    1
     7     7     8    1
     8     8     9    2
     9     8    10    2
    10     8    11    1
    11     2    12    1
    12    12    13   ar
    13    13    14   ar
    14    14    15   ar
    15    15    16    1
    16    16    17    1
    17    17    18   ar
    18    18    19   ar
    19    19    20   ar
    20    20    21    1
    21    21    22    3
    22    23    22    1
    23    23    24    1
    24    23    25    1
    25    25    26    1
    26    26    27    1
    27    27    28    1
    28    28    29    1
    29    29    30    1
    30    30    31    1
    31    20    32   ar
    32    32    33   ar
    33    15    34   ar
    34    34    35   ar
    35    11     4    1
    36    35    12   ar
    37    33    17   ar
    38    29    23    1
    39    31    26    1
    40     3    36    1
    41     4    37    1
    42     5    38    1
    43     5    39    1
    44     6    40    1
    45     6    41    1
    46     7    42    1
    47     7    43    1
    48    11    44    1
    49    11    45    1
    50    13    46    1
    51    14    47    1
    52    18    48    1
    53    19    49    1
    54    24    50    1
    55    25    51    1
    56    25    52    1
    57    27    53    1
    58    27    54    1
    59    28    55    1
    60    28    56    1
    61    29    57    1
    62    30    58    1
    63    30    59    1
    64    31    60    1
    65    31    61    1
    66    32    62    1
    67    33    63    1
    68    34    64    1
    69    35    65    1
