
     RDKit          3D

 54 56  0  0  0  0  0  0  0  0999 V2000
   -6.4787    0.7889    1.2495 C   0  0  0  0  0  0  0  0  0  0  0  0
   -5.9759    1.0066   -0.1598 C   0  0  0  0  0  0  0  0  0  0  0  0
   -6.2537    2.4170   -0.6055 C   0  0  0  0  0  0  0  0  0  0  0  0
   -6.7597    0.0550   -1.0584 C   0  0  0  0  0  0  0  0  0  0  0  0
   -4.5420    0.7265   -0.2990 C   0  0  0  0  0  0  0  0  0  0  0  0
   -3.7665    1.6187   -0.6718 O   0  0  0  0  0  0  0  0  0  0  0  0
   -3.9703   -0.5532   -0.0216 N   0  0  0  0  0  0  0  0  0  0  0  0
   -2.5928   -0.8810   -0.1381 C   0  0  0  0  0  0  0  0  0  0  0  0
   -1.6934   -0.0719    0.7319 C   0  0  0  0  0  0  0  0  0  0  0  0
   -0.2614   -0.3684    0.6529 C   0  0  0  0  0  0  0  0  0  0  0  0
    0.2014   -0.1311   -0.7895 C   0  0  0  0  0  0  0  0  0  0  0  0
    1.6969    0.0699   -0.6892 C   0  0  0  0  0  0  0  0  0  0  0  0
    2.2575   -1.1074   -0.1027 N   0  0  0  0  0  0  0  0  0  0  0  0
    3.5864   -1.4599   -0.5197 C   0  0  0  0  0  0  0  0  0  0  0  0
    3.7942   -2.6595   -1.1167 N   0  0  0  0  0  0  0  0  0  0  0  0
    5.0602   -2.9245   -1.4810 C   0  0  0  0  0  0  0  0  0  0  0  0
    6.0970   -2.1226   -1.3058 N   0  0  0  0  0  0  0  0  0  0  0  0
    5.9539   -0.8716   -0.6972 C   0  0  0  0  0  0  0  0  0  0  0  0
    6.8762    0.0356   -0.4513 C   0  0  0  0  0  0  0  0  0  0  0  0
    6.5588    1.2232    0.1609 C   0  0  0  0  0  0  0  0  0  0  0  0
    7.2923    2.3893    0.5631 C   0  0  0  0  0  0  0  0  0  0  0  0
    8.6898    2.5375    0.3657 N   0  0  0  0  0  0  0  0  0  0  0  0
    6.6151    3.3204    1.1249 O   0  0  0  0  0  0  0  0  0  0  0  0
    4.7422    0.9911    0.3991 S   0  0  0  0  0  0  0  0  0  0  0  0
    4.6465   -0.6326   -0.3371 C   0  0  0  0  0  0  0  0  0  0  0  0
    1.6262   -1.9619    0.8524 C   0  0  0  0  0  0  0  0  0  0  0  0
    0.1791   -1.7263    1.0782 C   0  0  0  0  0  0  0  0  0  0  0  0
   -7.3041    1.4921    1.4134 H   0  0  0  0  0  0  0  0  0  0  0  0
   -6.8098   -0.2412    1.4016 H   0  0  0  0  0  0  0  0  0  0  0  0
   -5.6579    1.0596    1.9528 H   0  0  0  0  0  0  0  0  0  0  0  0
   -7.3269    2.6856   -0.5390 H   0  0  0  0  0  0  0  0  0  0  0  0
   -5.9092    2.5172   -1.6668 H   0  0  0  0  0  0  0  0  0  0  0  0
   -5.6045    3.1098   -0.0235 H   0  0  0  0  0  0  0  0  0  0  0  0
   -6.3937    0.0971   -2.1090 H   0  0  0  0  0  0  0  0  0  0  0  0
   -7.8460    0.3354   -0.9888 H   0  0  0  0  0  0  0  0  0  0  0  0
   -6.6545   -0.9586   -0.6207 H   0  0  0  0  0  0  0  0  0  0  0  0
   -4.6853   -1.2761    0.2935 H   0  0  0  0  0  0  0  0  0  0  0  0
   -2.2597   -0.7767   -1.2133 H   0  0  0  0  0  0  0  0  0  0  0  0
   -2.4859   -1.9628    0.0799 H   0  0  0  0  0  0  0  0  0  0  0  0
   -2.0354   -0.2294    1.7961 H   0  0  0  0  0  0  0  0  0  0  0  0
   -1.8306    0.9985    0.4672 H   0  0  0  0  0  0  0  0  0  0  0  0
    0.2963    0.3760    1.2604 H   0  0  0  0  0  0  0  0  0  0  0  0
   -0.0447   -0.9695   -1.4443 H   0  0  0  0  0  0  0  0  0  0  0  0
   -0.2408    0.8398   -1.1069 H   0  0  0  0  0  0  0  0  0  0  0  0
    1.8819    0.9764   -0.0727 H   0  0  0  0  0  0  0  0  0  0  0  0
    2.0675    0.2811   -1.7071 H   0  0  0  0  0  0  0  0  0  0  0  0
    5.2405   -3.8917   -1.9648 H   0  0  0  0  0  0  0  0  0  0  0  0
    7.9574   -0.1144   -0.7270 H   0  0  0  0  0  0  0  0  0  0  0  0
    9.0577    3.3579   -0.1424 H   0  0  0  0  0  0  0  0  0  0  0  0
    9.3677    1.8354    0.7216 H   0  0  0  0  0  0  0  0  0  0  0  0
    1.8367   -3.0234    0.5256 H   0  0  0  0  0  0  0  0  0  0  0  0
    2.2158   -1.8651    1.8119 H   0  0  0  0  0  0  0  0  0  0  0  0
   -0.0202   -1.8100    2.1815 H   0  0  0  0  0  0  0  0  0  0  0  0
   -0.3913   -2.5508    0.6150 H   0  0  0  0  0  0  0  0  0  0  0  0
  1  2  1  0
  2  3  1  0
  2  4  1  0
  2  5  1  0
  5  6  2  0
  5  7  1  0
  7  8  1  0
  8  9  1  0
  9 10  1  0
 10 11  1  0
 11 12  1  0
 12 13  1  0
 13 14  1  0
 14 15  2  0
 15 16  1  0
 16 17  2  0
 17 18  1  0
 18 19  1  0
 19 20  2  0
 20 21  1  0
 21 22  1  0
 21 23  2  0
 20 24  1  0
 24 25  1  0
 13 26  1  0
 26 27  1  0
 27 10  1  0
 25 14  1  0
 25 18  2  0
  1 28  1  0
  1 29  1  0
  1 30  1  0
  3 31  1  0
  3 32  1  0
  3 33  1  0
  4 34  1  0
  4 35  1  0
  4 36  1  0
  7 37  1  0
  8 38  1  0
  8 39  1  0
  9 40  1  0
  9 41  1  0
 10 42  1  0
 11 43  1  0
 11 44  1  0
 12 45  1  0
 12 46  1  0
 16 47  1  0
 19 48  1  0
 22 49  1  0
 22 50  1  0
 26 51  1  0
 26 52  1  0
 27 53  1  0
 27 54  1  0
M  END
$$$$
