@<TRIPOS>MOLECULE
*****
 54 56 0 0 0
SMALL
GASTEIGER

@<TRIPOS>ATOM
      1 C          -6.4787    0.7889    1.2495 C.3     1  UNL1       -0.0518
      2 C          -5.9759    1.0066   -0.1598 C.3     1  UNL1        0.0386
      3 C          -6.2537    2.4170   -0.6055 C.3     1  UNL1       -0.0518
      4 C          -6.7597    0.0550   -1.0584 C.3     1  UNL1       -0.0518
      5 C          -4.5420    0.7265   -0.2990 C.2     1  UNL1        0.2184
      6 O          -3.7665    1.6187   -0.6718 O.2     1  UNL1       -0.2752
      7 N          -3.9703   -0.5532   -0.0216 N.am    1  UNL1       -0.3149
      8 C          -2.5928   -0.8810   -0.1381 C.3     1  UNL1        0.0119
      9 C          -1.6934   -0.0719    0.7319 C.3     1  UNL1       -0.0344
     10 C          -0.2614   -0.3684    0.6529 C.3     1  UNL1       -0.0368
     11 C           0.2014   -0.1311   -0.7895 C.3     1  UNL1       -0.0342
     12 C           1.6969    0.0699   -0.6892 C.3     1  UNL1        0.0138
     13 N           2.2575   -1.1074   -0.1027 N.pl3   1  UNL1       -0.3142
     14 C           3.5864   -1.4599   -0.5197 C.ar    1  UNL1        0.1389
     15 N           3.7942   -2.6595   -1.1167 N.ar    1  UNL1       -0.2196
     16 C           5.0602   -2.9245   -1.4810 C.ar    1  UNL1        0.1188
     17 N           6.0970   -2.1226   -1.3058 N.ar    1  UNL1       -0.2347
     18 C           5.9539   -0.8716   -0.6972 C.ar    1  UNL1        0.0838
     19 C           6.8762    0.0356   -0.4513 C.ar    1  UNL1       -0.0163
     20 C           6.5588    1.2232    0.1609 C.ar    1  UNL1        0.0763
     21 C           7.2923    2.3893    0.5631 C.2     1  UNL1        0.2482
     22 N           8.6898    2.5375    0.3657 N.am    1  UNL1       -0.3249
     23 O           6.6151    3.3204    1.1249 O.2     1  UNL1       -0.2698
     24 S           4.7422    0.9911    0.3991 S.2     1  UNL1       -0.0787
     25 C           4.6465   -0.6326   -0.3371 C.ar    1  UNL1        0.0781
     26 C           1.6262   -1.9619    0.8524 C.3     1  UNL1        0.0138
     27 C           0.1791   -1.7263    1.0782 C.3     1  UNL1       -0.0342
     28 H          -7.3041    1.4921    1.4134 H       1  UNL1        0.0239
     29 H          -6.8098   -0.2412    1.4016 H       1  UNL1        0.0239
     30 H          -5.6579    1.0596    1.9528 H       1  UNL1        0.0239
     31 H          -7.3269    2.6856   -0.5390 H       1  UNL1        0.0239
     32 H          -5.9092    2.5172   -1.6668 H       1  UNL1        0.0239
     33 H          -5.6045    3.1098   -0.0235 H       1  UNL1        0.0239
     34 H          -6.3937    0.0971   -2.1090 H       1  UNL1        0.0239
     35 H          -7.8460    0.3354   -0.9888 H       1  UNL1        0.0239
     36 H          -6.6545   -0.9586   -0.6207 H       1  UNL1        0.0239
     37 H          -4.6853   -1.2761    0.2935 H       1  UNL1        0.1487
     38 H          -2.2597   -0.7767   -1.2133 H       1  UNL1        0.0462
     39 H          -2.4859   -1.9628    0.0799 H       1  UNL1        0.0462
     40 H          -2.0354   -0.2294    1.7961 H       1  UNL1        0.0283
     41 H          -1.8306    0.9985    0.4672 H       1  UNL1        0.0283
     42 H           0.2963    0.3760    1.2604 H       1  UNL1        0.0302
     43 H          -0.0447   -0.9695   -1.4443 H       1  UNL1        0.0283
     44 H          -0.2408    0.8398   -1.1069 H       1  UNL1        0.0283
     45 H           1.8819    0.9764   -0.0727 H       1  UNL1        0.0464
     46 H           2.0675    0.2811   -1.7071 H       1  UNL1        0.0464
     47 H           5.2405   -3.8917   -1.9648 H       1  UNL1        0.1048
     48 H           7.9574   -0.1144   -0.7270 H       1  UNL1        0.0652
     49 H           9.0577    3.3579   -0.1424 H       1  UNL1        0.1453
     50 H           9.3677    1.8354    0.7216 H       1  UNL1        0.1453
     51 H           1.8367   -3.0234    0.5256 H       1  UNL1        0.0464
     52 H           2.2158   -1.8651    1.8119 H       1  UNL1        0.0464
     53 H          -0.0202   -1.8100    2.1815 H       1  UNL1        0.0283
     54 H          -0.3913   -2.5508    0.6150 H       1  UNL1        0.0283
@<TRIPOS>BOND
     1     1     2    1
     2     2     3    1
     3     2     4    1
     4     2     5    1
     5     5     6    2
     6     5     7   am
     7     7     8    1
     8     8     9    1
     9     9    10    1
    10    10    11    1
    11    11    12    1
    12    12    13    1
    13    13    14    1
    14    14    15   ar
    15    15    16   ar
    16    16    17   ar
    17    17    18   ar
    18    18    19   ar
    19    19    20   ar
    20    20    21    1
    21    21    22   am
    22    21    23    2
    23    20    24   ar
    24    24    25   ar
    25    13    26    1
    26    26    27    1
    27    27    10    1
    28    25    14   ar
    29    25    18   ar
    30     1    28    1
    31     1    29    1
    32     1    30    1
    33     3    31    1
    34     3    32    1
    35     3    33    1
    36     4    34    1
    37     4    35    1
    38     4    36    1
    39     7    37    1
    40     8    38    1
    41     8    39    1
    42     9    40    1
    43     9    41    1
    44    10    42    1
    45    11    43    1
    46    11    44    1
    47    12    45    1
    48    12    46    1
    49    16    47    1
    50    19    48    1
    51    22    49    1
    52    22    50    1
    53    26    51    1
    54    26    52    1
    55    27    53    1
    56    27    54    1
