@<TRIPOS>MOLECULE
*****
 72 77 0 0 0
SMALL
GASTEIGER

@<TRIPOS>ATOM
      1 C          -5.5039    4.6019    1.9855 C.3     1  UNL1       -0.0151
      2 N          -6.6051    3.8224    1.4718 N.3     1  UNL1       -0.3089
      3 C          -6.2906    3.2443    0.1731 C.3     1  UNL1        0.0820
      4 C          -5.9697    4.2767   -0.8740 C.3     1  UNL1       -0.0411
      5 C          -5.2210    2.2042    0.2864 C.2     1  UNL1        0.2350
      6 O          -4.7556    1.8914    1.4089 O.2     1  UNL1       -0.2737
      7 N          -4.7041    1.5475   -0.8476 N.am    1  UNL1       -0.2691
      8 C          -3.6805    0.5530   -0.6935 C.ar    1  UNL1        0.1263
      9 C          -3.9871   -0.7810   -0.5657 C.ar    1  UNL1       -0.0208
     10 C          -2.9647   -1.7270   -0.4104 C.ar    1  UNL1       -0.0466
     11 C          -1.6504   -1.3390   -0.3833 C.ar    1  UNL1        0.0349
     12 C          -0.5820   -2.3008   -0.2269 C.ar    1  UNL1        0.0837
     13 C          -0.2408   -3.0780    0.8750 C.ar    1  UNL1        0.1007
     14 C          -0.9092   -3.1011    2.1555 C.ar    1  UNL1        0.0399
     15 C          -2.1836   -3.5258    2.4114 C.ar    1  UNL1        0.0586
     16 N          -2.4270   -3.3900    3.7331 N.ar    1  UNL1       -0.1792
     17 N          -1.3356   -2.8909    4.3087 N.ar    1  UNL1       -0.2738
     18 C          -1.2561   -2.6227    5.7281 C.3     1  UNL1        0.0302
     19 C          -0.3758   -2.7006    3.3542 C.ar    1  UNL1        0.0344
     20 N           0.8398   -3.7935    0.4789 N.ar    1  UNL1       -0.2271
     21 C           1.1949   -3.5223   -0.7790 C.ar    1  UNL1        0.1390
     22 C           2.2045   -3.9865   -1.6072 C.ar    1  UNL1       -0.0158
     23 C           2.3264   -3.5121   -2.8919 C.ar    1  UNL1       -0.0456
     24 C           3.4030   -3.9867   -3.8269 C.3     1  UNL1       -0.0395
     25 C           1.4215   -2.5720   -3.3201 C.ar    1  UNL1       -0.0421
     26 C           0.4341   -2.1392   -2.4628 C.ar    1  UNL1        0.0120
     27 N           0.3143   -2.6025   -1.2061 N.ar    1  UNL1       -0.2986
     28 C          -1.3716    0.0001   -0.5125 C.ar    1  UNL1        0.1250
     29 C           0.0163    0.4206   -0.4700 C.1     1  UNL1       -0.0404
     30 C           1.1916    0.7614   -0.4318 C.1     1  UNL1       -0.0595
     31 C           2.5588    1.1759   -0.4052 C.ar    1  UNL1        0.0259
     32 C           3.0406    2.2236    0.3070 C.ar    1  UNL1       -0.0457
     33 C           4.3862    2.5941    0.3145 C.ar    1  UNL1       -0.0512
     34 C           5.2561    1.8493   -0.4436 C.ar    1  UNL1        0.0032
     35 C           6.5793    2.1630   -0.4688 C.ar    1  UNL1        0.0459
     36 C           7.1046    3.3021    0.3136 C.3     1  UNL1       -0.0218
     37 N           7.4779    1.4465   -1.2067 N.ar    1  UNL1       -0.2595
     38 C           7.0380    0.4097   -1.9205 C.ar    1  UNL1        0.0285
     39 C           5.7237    0.0561   -1.9277 C.ar    1  UNL1       -0.0358
     40 C           4.7987    0.7802   -1.1782 C.ar    1  UNL1       -0.0136
     41 C           3.4731    0.4530   -1.1566 C.ar    1  UNL1       -0.0385
     42 N          -2.3667    0.9181   -0.6638 N.ar    1  UNL1       -0.2229
     43 H          -5.8774    5.2509    2.8121 H       1  UNL1        0.0388
     44 H          -4.6814    4.0015    2.4109 H       1  UNL1        0.0388
     45 H          -5.0441    5.2464    1.1806 H       1  UNL1        0.0388
     46 H          -6.7756    3.0377    2.1315 H       1  UNL1        0.1223
     47 H          -7.1928    2.6745   -0.2006 H       1  UNL1        0.0554
     48 H          -6.4964    5.2313   -0.6443 H       1  UNL1        0.0249
     49 H          -4.8783    4.4369   -1.0077 H       1  UNL1        0.0249
     50 H          -6.3643    3.9111   -1.8669 H       1  UNL1        0.0249
     51 H          -5.0884    1.8097   -1.7840 H       1  UNL1        0.1563
     52 H          -5.0123   -1.0887   -0.5867 H       1  UNL1        0.0652
     53 H          -3.2138   -2.7608   -0.3158 H       1  UNL1        0.0626
     54 H          -2.9321   -3.9174    1.7392 H       1  UNL1        0.0854
     55 H          -1.2529   -3.6272    6.2343 H       1  UNL1        0.0473
     56 H          -0.3644   -2.0384    6.0129 H       1  UNL1        0.0473
     57 H          -2.2103   -2.1468    6.0244 H       1  UNL1        0.0473
     58 H           0.6006   -2.2991    3.6026 H       1  UNL1        0.0833
     59 H           2.9114   -4.7214   -1.2688 H       1  UNL1        0.0657
     60 H           3.0620   -4.9248   -4.3166 H       1  UNL1        0.0278
     61 H           3.5522   -3.1794   -4.5936 H       1  UNL1        0.0278
     62 H           4.3606   -4.1346   -3.3079 H       1  UNL1        0.0278
     63 H           1.5226   -2.1982   -4.3457 H       1  UNL1        0.0635
     64 H          -0.2549   -1.3879   -2.8718 H       1  UNL1        0.0813
     65 H           2.3415    2.8027    0.9011 H       1  UNL1        0.0630
     66 H           4.7332    3.4228    0.8808 H       1  UNL1        0.0625
     67 H           6.6880    3.3930    1.3239 H       1  UNL1        0.0293
     68 H           8.2139    3.1607    0.4564 H       1  UNL1        0.0293
     69 H           7.0387    4.2611   -0.2782 H       1  UNL1        0.0293
     70 H           7.7346   -0.1808   -2.5174 H       1  UNL1        0.0830
     71 H           5.3470   -0.7692   -2.4914 H       1  UNL1        0.0639
     72 H           3.1307   -0.3889   -1.7384 H       1  UNL1        0.0636
@<TRIPOS>BOND
     1     1     2    1
     2     2     3    1
     3     3     4    1
     4     3     5    1
     5     5     6    2
     6     5     7   am
     7     7     8    1
     8     8     9   ar
     9     9    10   ar
    10    10    11   ar
    11    11    12    1
    12    12    13   ar
    13    13    14    1
    14    14    15   ar
    15    15    16   ar
    16    16    17   ar
    17    17    18    1
    18    17    19   ar
    19    13    20   ar
    20    20    21   ar
    21    21    22   ar
    22    22    23   ar
    23    23    24    1
    24    23    25   ar
    25    25    26   ar
    26    26    27   ar
    27    11    28   ar
    28    28    29    1
    29    29    30    3
    30    30    31    1
    31    31    32   ar
    32    32    33   ar
    33    33    34   ar
    34    34    35   ar
    35    35    36    1
    36    35    37   ar
    37    37    38   ar
    38    38    39   ar
    39    39    40   ar
    40    40    41   ar
    41    28    42   ar
    42    42     8   ar
    43    27    12   ar
    44    41    31   ar
    45    19    14   ar
    46    27    21   ar
    47    40    34   ar
    48     1    43    1
    49     1    44    1
    50     1    45    1
    51     2    46    1
    52     3    47    1
    53     4    48    1
    54     4    49    1
    55     4    50    1
    56     7    51    1
    57     9    52    1
    58    10    53    1
    59    15    54    1
    60    18    55    1
    61    18    56    1
    62    18    57    1
    63    19    58    1
    64    22    59    1
    65    24    60    1
    66    24    61    1
    67    24    62    1
    68    25    63    1
    69    26    64    1
    70    32    65    1
    71    33    66    1
    72    36    67    1
    73    36    68    1
    74    36    69    1
    75    38    70    1
    76    39    71    1
    77    41    72    1
