
     RDKit          3D

 72 77  0  0  0  0  0  0  0  0999 V2000
   -5.5039    4.6019    1.9855 C   0  0  0  0  0  0  0  0  0  0  0  0
   -6.6051    3.8224    1.4718 N   0  0  0  0  0  0  0  0  0  0  0  0
   -6.2906    3.2443    0.1731 C   0  0  1  0  0  0  0  0  0  0  0  0
   -5.9697    4.2767   -0.8740 C   0  0  0  0  0  0  0  0  0  0  0  0
   -5.2210    2.2042    0.2864 C   0  0  0  0  0  0  0  0  0  0  0  0
   -4.7556    1.8914    1.4089 O   0  0  0  0  0  0  0  0  0  0  0  0
   -4.7041    1.5475   -0.8476 N   0  0  0  0  0  0  0  0  0  0  0  0
   -3.6805    0.5530   -0.6935 C   0  0  0  0  0  0  0  0  0  0  0  0
   -3.9871   -0.7810   -0.5657 C   0  0  0  0  0  0  0  0  0  0  0  0
   -2.9647   -1.7270   -0.4104 C   0  0  0  0  0  0  0  0  0  0  0  0
   -1.6504   -1.3390   -0.3833 C   0  0  0  0  0  0  0  0  0  0  0  0
   -0.5820   -2.3008   -0.2269 C   0  0  0  0  0  0  0  0  0  0  0  0
   -0.2408   -3.0780    0.8750 C   0  0  0  0  0  0  0  0  0  0  0  0
   -0.9092   -3.1011    2.1555 C   0  0  0  0  0  0  0  0  0  0  0  0
   -2.1836   -3.5258    2.4114 C   0  0  0  0  0  0  0  0  0  0  0  0
   -2.4270   -3.3900    3.7331 N   0  0  0  0  0  0  0  0  0  0  0  0
   -1.3356   -2.8909    4.3087 N   0  0  0  0  0  0  0  0  0  0  0  0
   -1.2561   -2.6227    5.7281 C   0  0  0  0  0  0  0  0  0  0  0  0
   -0.3758   -2.7006    3.3542 C   0  0  0  0  0  0  0  0  0  0  0  0
    0.8398   -3.7935    0.4789 N   0  0  0  0  0  0  0  0  0  0  0  0
    1.1949   -3.5223   -0.7790 C   0  0  0  0  0  0  0  0  0  0  0  0
    2.2045   -3.9865   -1.6072 C   0  0  0  0  0  0  0  0  0  0  0  0
    2.3264   -3.5121   -2.8919 C   0  0  0  0  0  0  0  0  0  0  0  0
    3.4030   -3.9867   -3.8269 C   0  0  0  0  0  0  0  0  0  0  0  0
    1.4215   -2.5720   -3.3201 C   0  0  0  0  0  0  0  0  0  0  0  0
    0.4341   -2.1392   -2.4628 C   0  0  0  0  0  0  0  0  0  0  0  0
    0.3143   -2.6025   -1.2061 N   0  0  0  0  0  0  0  0  0  0  0  0
   -1.3716    0.0001   -0.5125 C   0  0  0  0  0  0  0  0  0  0  0  0
    0.0163    0.4206   -0.4700 C   0  0  0  0  0  0  0  0  0  0  0  0
    1.1916    0.7614   -0.4318 C   0  0  0  0  0  0  0  0  0  0  0  0
    2.5588    1.1759   -0.4052 C   0  0  0  0  0  0  0  0  0  0  0  0
    3.0406    2.2236    0.3070 C   0  0  0  0  0  0  0  0  0  0  0  0
    4.3862    2.5941    0.3145 C   0  0  0  0  0  0  0  0  0  0  0  0
    5.2561    1.8493   -0.4436 C   0  0  0  0  0  0  0  0  0  0  0  0
    6.5793    2.1630   -0.4688 C   0  0  0  0  0  0  0  0  0  0  0  0
    7.1046    3.3021    0.3136 C   0  0  0  0  0  0  0  0  0  0  0  0
    7.4779    1.4465   -1.2067 N   0  0  0  0  0  0  0  0  0  0  0  0
    7.0380    0.4097   -1.9205 C   0  0  0  0  0  0  0  0  0  0  0  0
    5.7237    0.0561   -1.9277 C   0  0  0  0  0  0  0  0  0  0  0  0
    4.7987    0.7802   -1.1782 C   0  0  0  0  0  0  0  0  0  0  0  0
    3.4731    0.4530   -1.1566 C   0  0  0  0  0  0  0  0  0  0  0  0
   -2.3667    0.9181   -0.6638 N   0  0  0  0  0  0  0  0  0  0  0  0
   -5.8774    5.2509    2.8121 H   0  0  0  0  0  0  0  0  0  0  0  0
   -4.6814    4.0015    2.4109 H   0  0  0  0  0  0  0  0  0  0  0  0
   -5.0441    5.2464    1.1806 H   0  0  0  0  0  0  0  0  0  0  0  0
   -6.7756    3.0377    2.1315 H   0  0  0  0  0  0  0  0  0  0  0  0
   -7.1928    2.6745   -0.2006 H   0  0  0  0  0  0  0  0  0  0  0  0
   -6.4964    5.2313   -0.6443 H   0  0  0  0  0  0  0  0  0  0  0  0
   -4.8783    4.4369   -1.0077 H   0  0  0  0  0  0  0  0  0  0  0  0
   -6.3643    3.9111   -1.8669 H   0  0  0  0  0  0  0  0  0  0  0  0
   -5.0884    1.8097   -1.7840 H   0  0  0  0  0  0  0  0  0  0  0  0
   -5.0123   -1.0887   -0.5867 H   0  0  0  0  0  0  0  0  0  0  0  0
   -3.2138   -2.7608   -0.3158 H   0  0  0  0  0  0  0  0  0  0  0  0
   -2.9321   -3.9174    1.7392 H   0  0  0  0  0  0  0  0  0  0  0  0
   -1.2529   -3.6272    6.2343 H   0  0  0  0  0  0  0  0  0  0  0  0
   -0.3644   -2.0384    6.0129 H   0  0  0  0  0  0  0  0  0  0  0  0
   -2.2103   -2.1468    6.0244 H   0  0  0  0  0  0  0  0  0  0  0  0
    0.6006   -2.2991    3.6026 H   0  0  0  0  0  0  0  0  0  0  0  0
    2.9114   -4.7214   -1.2688 H   0  0  0  0  0  0  0  0  0  0  0  0
    3.0620   -4.9248   -4.3166 H   0  0  0  0  0  0  0  0  0  0  0  0
    3.5522   -3.1794   -4.5936 H   0  0  0  0  0  0  0  0  0  0  0  0
    4.3606   -4.1346   -3.3079 H   0  0  0  0  0  0  0  0  0  0  0  0
    1.5226   -2.1982   -4.3457 H   0  0  0  0  0  0  0  0  0  0  0  0
   -0.2549   -1.3879   -2.8718 H   0  0  0  0  0  0  0  0  0  0  0  0
    2.3415    2.8027    0.9011 H   0  0  0  0  0  0  0  0  0  0  0  0
    4.7332    3.4228    0.8808 H   0  0  0  0  0  0  0  0  0  0  0  0
    6.6880    3.3930    1.3239 H   0  0  0  0  0  0  0  0  0  0  0  0
    8.2139    3.1607    0.4564 H   0  0  0  0  0  0  0  0  0  0  0  0
    7.0387    4.2611   -0.2782 H   0  0  0  0  0  0  0  0  0  0  0  0
    7.7346   -0.1808   -2.5174 H   0  0  0  0  0  0  0  0  0  0  0  0
    5.3470   -0.7692   -2.4914 H   0  0  0  0  0  0  0  0  0  0  0  0
    3.1307   -0.3889   -1.7384 H   0  0  0  0  0  0  0  0  0  0  0  0
  1  2  1  0
  2  3  1  0
  3  4  1  0
  3  5  1  0
  5  6  2  0
  5  7  1  0
  7  8  1  0
  8  9  2  0
  9 10  1  0
 10 11  2  0
 11 12  1  0
 12 13  2  0
 13 14  1  0
 14 15  1  0
 15 16  2  0
 16 17  1  0
 17 18  1  0
 17 19  1  0
 13 20  1  0
 20 21  2  0
 21 22  1  0
 22 23  2  0
 23 24  1  0
 23 25  1  0
 25 26  2  0
 26 27  1  0
 11 28  1  0
 28 29  1  0
 29 30  3  0
 30 31  1  0
 31 32  2  0
 32 33  1  0
 33 34  2  0
 34 35  1  0
 35 36  1  0
 35 37  2  0
 37 38  1  0
 38 39  2  0
 39 40  1  0
 40 41  2  0
 28 42  2  0
 42  8  1  0
 27 12  1  0
 41 31  1  0
 19 14  2  0
 27 21  1  0
 40 34  1  0
  1 43  1  0
  1 44  1  0
  1 45  1  0
  2 46  1  0
  3 47  1  6
  4 48  1  0
  4 49  1  0
  4 50  1  0
  7 51  1  0
  9 52  1  0
 10 53  1  0
 15 54  1  0
 18 55  1  0
 18 56  1  0
 18 57  1  0
 19 58  1  0
 22 59  1  0
 24 60  1  0
 24 61  1  0
 24 62  1  0
 25 63  1  0
 26 64  1  0
 32 65  1  0
 33 66  1  0
 36 67  1  0
 36 68  1  0
 36 69  1  0
 38 70  1  0
 39 71  1  0
 41 72  1  0
M  END
$$$$
