@<TRIPOS>MOLECULE
*****
 35 36 0 0 0
SMALL
GASTEIGER

@<TRIPOS>ATOM
      1 C           6.0886    0.9472    0.8120 C.3     1  UNL1       -0.0397
      2 C           4.6528    0.8210    0.4520 C.ar    1  UNL1       -0.0502
      3 C           3.9461    1.9049   -0.0212 C.ar    1  UNL1       -0.0580
      4 C           2.6154    1.7464   -0.3442 C.ar    1  UNL1       -0.0471
      5 C           1.9695    0.5244   -0.2052 C.ar    1  UNL1        0.0667
      6 C           0.5594    0.3668   -0.5501 C.2     1  UNL1        0.3939
      7 O          -0.0530    1.3744   -0.9777 O.2     1  UNL1       -0.2400
      8 O          -0.0913   -0.8248   -0.4203 O.3     1  UNL1       -0.2116
      9 N          -1.4133   -1.0171   -0.7321 N.2     1  UNL1        0.1644
     10 C          -2.3201   -0.3238   -0.1309 C.2     1  UNL1        0.3814
     11 N          -1.9525    0.6351    0.8503 N.pl3   1  UNL1       -0.2417
     12 C          -3.7450   -0.4951   -0.4315 C.ar    1  UNL1        0.1579
     13 C          -4.7058    0.2504    0.2164 C.ar    1  UNL1       -0.0282
     14 C          -6.0503    0.0991   -0.0570 C.ar    1  UNL1       -0.0581
     15 C          -6.4778   -0.8143   -0.9988 C.ar    1  UNL1       -0.0435
     16 C          -5.4797   -1.5522   -1.6357 C.ar    1  UNL1        0.0285
     17 N          -4.1737   -1.3824   -1.3476 N.ar    1  UNL1       -0.2474
     18 C           2.6751   -0.5616    0.2682 C.ar    1  UNL1       -0.0361
     19 C           2.0022   -1.8938    0.4283 C.3     1  UNL1       -0.0389
     20 C           4.0075   -0.3882    0.5878 C.ar    1  UNL1       -0.0551
     21 H           6.2910    0.5303    1.8416 H       1  UNL1        0.0278
     22 H           6.6907    0.2860    0.1250 H       1  UNL1        0.0278
     23 H           6.4615    1.9686    0.7021 H       1  UNL1        0.0278
     24 H           4.4351    2.8801   -0.1394 H       1  UNL1        0.0620
     25 H           2.0112    2.5783   -0.7242 H       1  UNL1        0.0626
     26 H          -2.2099    1.6354    0.7142 H       1  UNL1        0.2886
     27 H          -1.4285    0.3674    1.7102 H       1  UNL1        0.2886
     28 H          -4.3807    0.9677    0.9549 H       1  UNL1        0.0641
     29 H          -6.8210    0.6847    0.4505 H       1  UNL1        0.0619
     30 H          -7.5193   -0.9718   -1.2504 H       1  UNL1        0.0633
     31 H          -5.8202   -2.2631   -2.3694 H       1  UNL1        0.0830
     32 H           1.6928   -2.3240   -0.5359 H       1  UNL1        0.0278
     33 H           2.7811   -2.6091    0.8271 H       1  UNL1        0.0278
     34 H           1.2178   -1.8748    1.2007 H       1  UNL1        0.0278
     35 H           4.5443   -1.2722    0.9629 H       1  UNL1        0.0623
@<TRIPOS>BOND
     1     1     2    1
     2     2     3   ar
     3     3     4   ar
     4     4     5   ar
     5     5     6    1
     6     6     7    2
     7     6     8    1
     8     8     9    1
     9     9    10    2
    10    10    11    1
    11    10    12    1
    12    12    13   ar
    13    13    14   ar
    14    14    15   ar
    15    15    16   ar
    16    16    17   ar
    17     5    18   ar
    18    18    19    1
    19    18    20   ar
    20    20     2   ar
    21    17    12   ar
    22     1    21    1
    23     1    22    1
    24     1    23    1
    25     3    24    1
    26     4    25    1
    27    11    26    1
    28    11    27    1
    29    13    28    1
    30    14    29    1
    31    15    30    1
    32    16    31    1
    33    19    32    1
    34    19    33    1
    35    19    34    1
    36    20    35    1
