
     RDKit          3D

 55 57  0  0  0  0  0  0  0  0999 V2000
    2.4033    0.8361    2.0474 C   0  0  0  0  0  0  0  0  0  0  0  0
    1.6476    1.0544    0.8008 N   0  0  0  0  0  0  0  0  0  0  0  0
    2.2245    1.8975   -0.2046 C   0  0  0  0  0  0  0  0  0  0  0  0
    3.5060    1.3313   -0.7144 C   0  0  0  0  0  0  0  0  0  0  0  0
    3.5245    0.4775   -1.7864 C   0  0  0  0  0  0  0  0  0  0  0  0
    4.6988   -0.0052   -2.2077 N   0  0  0  0  0  0  0  0  0  0  0  0
    5.8493    0.3559   -1.5704 C   0  0  0  0  0  0  0  0  0  0  0  0
    7.0540   -0.1018   -1.9553 N   0  0  0  0  0  0  0  0  0  0  0  0
    8.1984    0.2488   -1.3322 C   0  0  0  0  0  0  0  0  0  0  0  0
    9.4691   -0.2390   -1.7447 N   0  0  0  0  0  0  0  0  0  0  0  0
    8.1356    1.0991   -0.2717 N   0  0  0  0  0  0  0  0  0  0  0  0
    6.9691    1.6014    0.1755 C   0  0  0  0  0  0  0  0  0  0  0  0
    6.9343    2.4900    1.2887 N   0  0  0  0  0  0  0  0  0  0  0  0
    5.8194    1.2175   -0.4904 C   0  0  0  0  0  0  0  0  0  0  0  0
    4.6354    1.6994   -0.0716 N   0  0  0  0  0  0  0  0  0  0  0  0
    0.3932    0.4258    0.6505 C   0  0  0  0  0  0  0  0  0  0  0  0
   -0.0918   -0.3715    1.7053 C   0  0  0  0  0  0  0  0  0  0  0  0
   -1.2914   -0.9883    1.5813 C   0  0  0  0  0  0  0  0  0  0  0  0
   -2.1012   -0.8983    0.4768 C   0  0  0  0  0  0  0  0  0  0  0  0
   -3.3797   -1.5795    0.3933 C   0  0  0  0  0  0  0  0  0  0  0  0
   -3.7869   -2.2930    1.3675 O   0  0  0  0  0  0  0  0  0  0  0  0
   -4.2255   -1.4990   -0.7325 N   0  0  0  0  0  0  0  0  0  0  0  0
   -5.4812   -2.2119   -0.7257 C   0  0  1  0  0  0  0  0  0  0  0  0
   -6.5765   -1.1408   -0.8220 C   0  0  0  0  0  0  0  0  0  0  0  0
   -6.4163   -0.2376    0.3934 C   0  0  0  0  0  0  0  0  0  0  0  0
   -7.4457    0.8253    0.3674 C   0  0  0  0  0  0  0  0  0  0  0  0
   -8.2686    0.8707   -0.5640 O   0  0  0  0  0  0  0  0  0  0  0  0
   -7.4890    1.7614    1.3755 O   0  0  0  0  0  0  0  0  0  0  0  0
   -5.5392   -3.1147   -1.9061 C   0  0  0  0  0  0  0  0  0  0  0  0
   -4.6306   -3.2192   -2.7530 O   0  0  0  0  0  0  0  0  0  0  0  0
   -6.6877   -3.8839   -2.0589 O   0  0  0  0  0  0  0  0  0  0  0  0
   -1.6424   -0.1260   -0.5578 C   0  0  0  0  0  0  0  0  0  0  0  0
   -0.3996    0.5314   -0.4667 C   0  0  0  0  0  0  0  0  0  0  0  0
    3.3787    1.3266    2.0103 H   0  0  0  0  0  0  0  0  0  0  0  0
    1.8136    1.2162    2.9018 H   0  0  0  0  0  0  0  0  0  0  0  0
    2.5368   -0.2653    2.1528 H   0  0  0  0  0  0  0  0  0  0  0  0
    2.4392    2.8916    0.3022 H   0  0  0  0  0  0  0  0  0  0  0  0
    1.5097    2.1377   -0.9982 H   0  0  0  0  0  0  0  0  0  0  0  0
    2.6231    0.1916   -2.2894 H   0  0  0  0  0  0  0  0  0  0  0  0
    9.7563   -1.2025   -1.4689 H   0  0  0  0  0  0  0  0  0  0  0  0
   10.0959    0.3625   -2.3123 H   0  0  0  0  0  0  0  0  0  0  0  0
    6.1166    3.1322    1.4364 H   0  0  0  0  0  0  0  0  0  0  0  0
    7.7358    2.4911    1.9547 H   0  0  0  0  0  0  0  0  0  0  0  0
    0.5416   -0.4539    2.5938 H   0  0  0  0  0  0  0  0  0  0  0  0
   -1.6466   -1.5966    2.4031 H   0  0  0  0  0  0  0  0  0  0  0  0
   -3.9760   -0.9422   -1.5708 H   0  0  0  0  0  0  0  0  0  0  0  0
   -5.6151   -2.7572    0.2169 H   0  0  0  0  0  0  0  0  0  0  0  0
   -7.5710   -1.5816   -0.8750 H   0  0  0  0  0  0  0  0  0  0  0  0
   -6.4073   -0.5019   -1.7178 H   0  0  0  0  0  0  0  0  0  0  0  0
   -5.4359    0.2499    0.3923 H   0  0  0  0  0  0  0  0  0  0  0  0
   -6.5345   -0.8670    1.3031 H   0  0  0  0  0  0  0  0  0  0  0  0
   -8.1615    2.5418    1.3275 H   0  0  0  0  0  0  0  0  0  0  0  0
   -6.9382   -4.3262   -2.9215 H   0  0  0  0  0  0  0  0  0  0  0  0
   -2.2027    0.0075   -1.4656 H   0  0  0  0  0  0  0  0  0  0  0  0
   -0.0679    1.1320   -1.3085 H   0  0  0  0  0  0  0  0  0  0  0  0
  1  2  1  0
  2  3  1  0
  3  4  1  0
  4  5  2  0
  5  6  1  0
  6  7  2  0
  7  8  1  0
  8  9  2  0
  9 10  1  0
  9 11  1  0
 11 12  2  0
 12 13  1  0
 12 14  1  0
 14 15  2  0
  2 16  1  0
 16 17  2  0
 17 18  1  0
 18 19  2  0
 19 20  1  0
 20 21  2  0
 20 22  1  0
 22 23  1  0
 23 24  1  0
 24 25  1  0
 25 26  1  0
 26 27  2  0
 26 28  1  0
 23 29  1  0
 29 30  2  0
 29 31  1  0
 19 32  1  0
 32 33  2  0
 15  4  1  0
 33 16  1  0
 14  7  1  0
  1 34  1  0
  1 35  1  0
  1 36  1  0
  3 37  1  0
  3 38  1  0
  5 39  1  0
 10 40  1  0
 10 41  1  0
 13 42  1  0
 13 43  1  0
 17 44  1  0
 18 45  1  0
 22 46  1  0
 23 47  1  1
 24 48  1  0
 24 49  1  0
 25 50  1  0
 25 51  1  0
 28 52  1  0
 31 53  1  0
 32 54  1  0
 33 55  1  0
M  END
$$$$
