@<TRIPOS>MOLECULE
*****
 55 57 0 0 0
SMALL
GASTEIGER

@<TRIPOS>ATOM
      1 C           2.4033    0.8361    2.0474 C.3     0  UNK0        0.0011
      2 N           1.6476    1.0544    0.8008 N.pl3   0  UNK0       -0.3271
      3 C           2.2245    1.8975   -0.2046 C.3     0  UNK0        0.0555
      4 C           3.5060    1.3313   -0.7144 C.ar    0  UNK0        0.0774
      5 C           3.5245    0.4775   -1.7864 C.ar    0  UNK0        0.0528
      6 N           4.6988   -0.0052   -2.2077 N.ar    0  UNK0       -0.2324
      7 C           5.8493    0.3559   -1.5704 C.ar    0  UNK0        0.1851
      8 N           7.0540   -0.1018   -1.9553 N.ar    0  UNK0       -0.1932
      9 C           8.1984    0.2488   -1.3322 C.ar    0  UNK0        0.2163
     10 N           9.4691   -0.2390   -1.7447 N.pl3   0  UNK0       -0.3274
     11 N           8.1356    1.0991   -0.2717 N.ar    0  UNK0       -0.1978
     12 C           6.9691    1.6014    0.1755 C.ar    0  UNK0        0.1491
     13 N           6.9343    2.4900    1.2887 N.pl3   0  UNK0       -0.3413
     14 C           5.8194    1.2175   -0.4904 C.ar    0  UNK0        0.1477
     15 N           4.6354    1.6994   -0.0716 N.ar    0  UNK0       -0.2419
     16 C           0.3932    0.4258    0.6505 C.ar    0  UNK0        0.0298
     17 C          -0.0918   -0.3715    1.7053 C.ar    0  UNK0       -0.0399
     18 C          -1.2914   -0.9883    1.5813 C.ar    0  UNK0       -0.0479
     19 C          -2.1012   -0.8983    0.4768 C.ar    0  UNK0        0.0368
     20 C          -3.3797   -1.5795    0.3933 C.2     0  UNK0        0.2447
     21 O          -3.7869   -2.2930    1.3675 O.2     0  UNK0       -0.2702
     22 N          -4.2255   -1.4990   -0.7325 N.am    1  GLU1       -0.2983
     23 CA         -5.4812   -2.2119   -0.7257 C.3     1  GLU1        0.1209
     24 CB         -6.5765   -1.1408   -0.8220 C.3     1  GLU1       -0.0140
     25 CG         -6.4163   -0.2376    0.3934 C.3     1  GLU1        0.0470
     26 CD         -7.4457    0.8253    0.3674 C.2     1  GLU1        0.3048
     27 OE1        -8.2686    0.8707   -0.5640 O.2     1  GLU1       -0.2510
     28 OE2        -7.4890    1.7614    1.3755 O.3     1  GLU1       -0.4806
     29 C          -5.5392   -3.1147   -1.9061 C.2     1  GLU1        0.3253
     30 O          -4.6306   -3.2192   -2.7530 O.2     1  GLU1       -0.2489
     31 OXT        -6.6877   -3.8839   -2.0589 O.3     1  GLU1       -0.4793
     32 C          -1.6424   -0.1260   -0.5578 C.ar    0  UNK0       -0.0479
     33 C          -0.3996    0.5314   -0.4667 C.ar    0  UNK0       -0.0399
     34 H           3.3787    1.3266    2.0103 H       0  UNK0        0.0428
     35 H           1.8136    1.2162    2.9018 H       0  UNK0        0.0428
     36 H           2.5368   -0.2653    2.1528 H       0  UNK0        0.0428
     37 H           2.4392    2.8916    0.3022 H       0  UNK0        0.0529
     38 H           1.5097    2.1377   -0.9982 H       0  UNK0        0.0529
     39 H           2.6231    0.1916   -2.2894 H       0  UNK0        0.0849
     40 H           9.7563   -1.2025   -1.4689 H       0  UNK0        0.1452
     41 H          10.0959    0.3625   -2.3123 H       0  UNK0        0.1452
     42 H           6.1166    3.1322    1.4364 H       0  UNK0        0.1438
     43 H           7.7358    2.4911    1.9547 H       0  UNK0        0.1438
     44 H           0.5416   -0.4539    2.5938 H       0  UNK0        0.0636
     45 H          -1.6466   -1.5966    2.4031 H       0  UNK0        0.0626
     46 H          -3.9760   -0.9422   -1.5708 H       1  GLU1        0.1498
     47 HA         -5.6151   -2.7572    0.2169 H       1  GLU1        0.0614
     48 HB1        -7.5710   -1.5816   -0.8750 H       1  GLU1        0.0294
     49 HB2        -6.4073   -0.5019   -1.7178 H       1  GLU1        0.0294
     50 HG1        -5.4359    0.2499    0.3923 H       1  GLU1        0.0378
     51 HG2        -6.5345   -0.8670    1.3031 H       1  GLU1        0.0378
     52 HE2        -8.1615    2.5418    1.3275 H       1  GLU1        0.2951
     53 HXT        -6.9382   -4.3262   -2.9215 H       1  GLU1        0.2951
     54 H          -2.2027    0.0075   -1.4656 H       0  UNK0        0.0626
     55 H          -0.0679    1.1320   -1.3085 H       0  UNK0        0.0636
@<TRIPOS>BOND
     1     1     2    1
     2     2     3    1
     3     3     4    1
     4     4     5   ar
     5     5     6   ar
     6     6     7   ar
     7     7     8   ar
     8     8     9   ar
     9     9    10    1
    10     9    11   ar
    11    11    12   ar
    12    12    13    1
    13    12    14   ar
    14    14    15   ar
    15     2    16    1
    16    16    17   ar
    17    17    18   ar
    18    18    19   ar
    19    19    20    1
    20    20    21    2
    21    20    22   am
    22    22    23    1
    23    23    24    1
    24    24    25    1
    25    25    26    1
    26    26    27    2
    27    26    28    1
    28    23    29    1
    29    29    30    2
    30    29    31    1
    31    19    32   ar
    32    32    33   ar
    33    15     4   ar
    34    33    16   ar
    35    14     7   ar
    36     1    34    1
    37     1    35    1
    38     1    36    1
    39     3    37    1
    40     3    38    1
    41     5    39    1
    42    10    40    1
    43    10    41    1
    44    13    42    1
    45    13    43    1
    46    17    44    1
    47    18    45    1
    48    22    46    1
    49    23    47    1
    50    24    48    1
    51    24    49    1
    52    25    50    1
    53    25    51    1
    54    28    52    1
    55    31    53    1
    56    32    54    1
    57    33    55    1
