@<TRIPOS>MOLECULE
*****
 47 49 0 0 0
SMALL
GASTEIGER

@<TRIPOS>ATOM
      1 C          -0.1886   -2.9690   -2.8136 C.3     1  UNL1       -0.0306
      2 C           0.1212   -2.5744   -1.3862 C.3     1  UNL1        0.0900
      3 O          -0.7941   -1.6554   -0.8681 O.3     1  UNL1       -0.4614
      4 C          -1.0396   -0.4059   -1.3833 C.2     1  UNL1        0.3415
      5 O          -0.4181   -0.0232   -2.3901 O.2     1  UNL1       -0.2449
      6 C          -2.0109    0.4687   -0.7703 C.ar    1  UNL1        0.0883
      7 C          -3.3763    0.5583   -1.0595 C.ar    1  UNL1        0.0281
      8 C          -4.0188   -0.2835   -2.0889 C.3     1  UNL1       -0.0236
      9 N          -3.9390    1.4889   -0.2756 N.ar    1  UNL1       -0.3532
     10 C          -3.0166    2.0253    0.5230 C.ar    1  UNL1        0.1140
     11 C          -3.0108    2.9917    1.5009 C.ar    1  UNL1        0.2752
     12 O          -4.0991    3.5634    1.7760 O.2     1  UNL1       -0.2654
     13 N          -1.8770    3.3132    2.1410 N.ar    1  UNL1       -0.3154
     14 C          -1.9456    4.3369    3.1565 C.3     1  UNL1        0.0148
     15 C          -0.7116    2.7089    1.8543 C.ar    1  UNL1        0.0237
     16 C          -0.6365    1.7158    0.8719 C.ar    1  UNL1        0.0515
     17 C           0.5835    1.0472    0.5334 C.1     1  UNL1       -0.0588
     18 C           1.6077    0.4658    0.2514 C.1     1  UNL1       -0.0573
     19 C           2.8183   -0.2200   -0.0788 C.ar    1  UNL1        0.0672
     20 C           3.3872   -0.2438   -1.3323 C.ar    1  UNL1       -0.0428
     21 C           4.5634   -0.9233   -1.6005 C.ar    1  UNL1       -0.0604
     22 C           5.2111   -1.6092   -0.6000 C.ar    1  UNL1       -0.0582
     23 C           4.6623   -1.6000    0.6592 C.ar    1  UNL1       -0.0184
     24 C           3.4777   -0.9095    0.9071 C.ar    1  UNL1        0.1453
     25 O           2.9281   -0.9040    2.1816 O.3     1  UNL1       -0.4045
     26 C           2.0135   -1.9389    2.4890 C.3     1  UNL1        0.5753
     27 F           0.9330   -1.9251    1.6590 F       1  UNL1       -0.1328
     28 F           2.6163   -3.1948    2.4233 F       1  UNL1       -0.1328
     29 F           1.5403   -1.8224    3.7911 F       1  UNL1       -0.1328
     30 C          -1.8091    1.4049    0.2318 C.ar    1  UNL1        0.0360
     31 H          -1.1788   -2.5908   -3.1352 H       1  UNL1        0.0262
     32 H           0.6302   -2.6464   -3.5182 H       1  UNL1        0.0262
     33 H          -0.2246   -4.0750   -2.8942 H       1  UNL1        0.0262
     34 H           0.0573   -3.4924   -0.7350 H       1  UNL1        0.0695
     35 H           1.1798   -2.2555   -1.3257 H       1  UNL1        0.0695
     36 H          -5.1312   -0.1983   -1.9831 H       1  UNL1        0.0292
     37 H          -3.6969    0.0240   -3.1218 H       1  UNL1        0.0292
     38 H          -3.7701   -1.3480   -1.9219 H       1  UNL1        0.0292
     39 H          -4.9482    1.7734   -0.2689 H       1  UNL1        0.1658
     40 H          -1.1432    4.2453    3.9177 H       1  UNL1        0.0457
     41 H          -1.8284    5.3194    2.6850 H       1  UNL1        0.0457
     42 H          -2.9046    4.3189    3.7184 H       1  UNL1        0.0457
     43 H           0.2160    2.9503    2.3561 H       1  UNL1        0.0822
     44 H           2.8720    0.3027   -2.1313 H       1  UNL1        0.0631
     45 H           4.9971   -0.9294   -2.6004 H       1  UNL1        0.0618
     46 H           6.1468   -2.1521   -0.8053 H       1  UNL1        0.0619
     47 H           5.1551   -2.1327    1.4606 H       1  UNL1        0.0654
@<TRIPOS>BOND
     1     1     2    1
     2     2     3    1
     3     3     4    1
     4     4     5    2
     5     4     6    1
     6     6     7   ar
     7     7     8    1
     8     7     9   ar
     9     9    10   ar
    10    10    11   ar
    11    11    12    2
    12    11    13   ar
    13    13    14    1
    14    13    15   ar
    15    15    16   ar
    16    16    17    1
    17    17    18    3
    18    18    19    1
    19    19    20   ar
    20    20    21   ar
    21    21    22   ar
    22    22    23   ar
    23    23    24   ar
    24    24    25    1
    25    25    26    1
    26    26    27    1
    27    26    28    1
    28    26    29    1
    29    16    30   ar
    30    30     6   ar
    31    30    10   ar
    32    24    19   ar
    33     1    31    1
    34     1    32    1
    35     1    33    1
    36     2    34    1
    37     2    35    1
    38     8    36    1
    39     8    37    1
    40     8    38    1
    41     9    39    1
    42    14    40    1
    43    14    41    1
    44    14    42    1
    45    15    43    1
    46    20    44    1
    47    21    45    1
    48    22    46    1
    49    23    47    1
