@<TRIPOS>MOLECULE
*****
 40 40 0 0 0
SMALL
GASTEIGER

@<TRIPOS>ATOM
      1 C          -5.0358   -0.5223   -2.4693 C.3     1  UNL1       -0.0396
      2 C          -4.7152   -0.5107   -1.0246 C.ar    1  UNL1       -0.0469
      3 C          -3.4047   -0.2515   -0.7096 C.ar    1  UNL1       -0.0156
      4 C          -2.8577   -0.1867    0.5453 C.ar    1  UNL1        0.1391
      5 O          -1.7018    0.0294    1.1798 O.3     1  UNL1       -0.4879
      6 C          -0.4308    0.2925    0.7568 C.3     1  UNL1        0.1166
      7 C           0.2802   -0.7657   -0.0450 C.3     1  UNL1        0.1015
      8 O          -0.3096   -1.1228   -1.2316 O.3     1  UNL1       -0.3872
      9 C           1.6782   -0.2423   -0.4127 C.3     1  UNL1        0.0256
     10 N           2.4238    0.1739    0.7405 N.3     1  UNL1       -0.3088
     11 C           3.7206    0.6500    0.3072 C.3     1  UNL1        0.0108
     12 C           4.5299   -0.4043   -0.4196 C.3     1  UNL1       -0.0473
     13 C           4.5785    1.1004    1.4658 C.3     1  UNL1       -0.0473
     14 C           3.5855    1.8335   -0.6263 C.3     1  UNL1       -0.0473
     15 C          -3.7752   -0.4159    1.5922 C.ar    1  UNL1        0.0825
     16 CL         -3.5388   -0.4331    3.3412 Cl      1  UNL1       -0.0798
     17 C          -5.1318   -0.6865    1.3384 C.ar    1  UNL1       -0.0396
     18 C          -5.5769   -0.7286    0.0187 C.ar    1  UNL1       -0.0572
     19 H          -5.2205    0.5165   -2.8665 H       1  UNL1        0.0278
     20 H          -4.2072   -1.0311   -3.0060 H       1  UNL1        0.0278
     21 H          -5.9920   -1.0713   -2.5930 H       1  UNL1        0.0278
     22 H          -2.6709   -0.0517   -1.4520 H       1  UNL1        0.0657
     23 H          -0.4094    1.2297    0.0963 H       1  UNL1        0.0723
     24 H           0.2469    0.6362    1.6107 H       1  UNL1        0.0723
     25 H           0.3772   -1.6656    0.6097 H       1  UNL1        0.0640
     26 H           0.3916   -1.5614   -1.7776 H       1  UNL1        0.2100
     27 H           2.2272   -1.0093   -0.9612 H       1  UNL1        0.0451
     28 H           1.4882    0.6825   -1.0234 H       1  UNL1        0.0451
     29 H           2.5416   -0.5966    1.4280 H       1  UNL1        0.1225
     30 H           4.1915   -0.5373   -1.4691 H       1  UNL1        0.0247
     31 H           5.5794   -0.0122   -0.4572 H       1  UNL1        0.0247
     32 H           4.5027   -1.3623    0.1597 H       1  UNL1        0.0247
     33 H           5.0536    0.1911    1.8894 H       1  UNL1        0.0247
     34 H           4.0194    1.6068    2.2533 H       1  UNL1        0.0247
     35 H           5.3872    1.7173    0.9984 H       1  UNL1        0.0247
     36 H           2.8125    2.5517   -0.2755 H       1  UNL1        0.0247
     37 H           3.3185    1.4330   -1.6274 H       1  UNL1        0.0247
     38 H           4.5910    2.3339   -0.6801 H       1  UNL1        0.0247
     39 H          -5.9468   -0.8806    2.0181 H       1  UNL1        0.0633
     40 H          -6.6000   -0.9287   -0.2851 H       1  UNL1        0.0621
@<TRIPOS>BOND
     1     1     2    1
     2     2     3   ar
     3     3     4   ar
     4     4     5    1
     5     5     6    1
     6     6     7    1
     7     7     8    1
     8     7     9    1
     9     9    10    1
    10    10    11    1
    11    11    12    1
    12    11    13    1
    13    11    14    1
    14     4    15   ar
    15    15    16    1
    16    15    17   ar
    17    17    18   ar
    18    18     2   ar
    19     1    19    1
    20     1    20    1
    21     1    21    1
    22     3    22    1
    23     6    23    1
    24     6    24    1
    25     7    25    1
    26     8    26    1
    27     9    27    1
    28     9    28    1
    29    10    29    1
    30    12    30    1
    31    12    31    1
    32    12    32    1
    33    13    33    1
    34    13    34    1
    35    13    35    1
    36    14    36    1
    37    14    37    1
    38    14    38    1
    39    17    39    1
    40    18    40    1
