@<TRIPOS>MOLECULE
*****
 64 68 0 0 0
SMALL
GASTEIGER

@<TRIPOS>ATOM
      1 C          -6.3817   -0.3862   -3.3693 C.3     1  UNL1       -0.0391
      2 C          -4.9875   -0.5418   -2.8781 C.ar    1  UNL1       -0.0426
      3 C          -4.0042   -1.0493   -3.7366 C.ar    1  UNL1       -0.0565
      4 C          -2.7115   -1.2132   -3.3042 C.ar    1  UNL1       -0.0402
      5 C          -2.2957   -0.8925   -2.0071 C.ar    1  UNL1        0.0343
      6 N          -0.9355   -1.1074   -1.6834 N.am    1  UNL1       -0.2815
      7 C          -0.3122   -0.8541   -0.4432 C.2     1  UNL1        0.2483
      8 O          -1.0022   -0.3831    0.5161 O.2     1  UNL1       -0.2699
      9 C           1.1022   -1.0974   -0.1682 C.ar    1  UNL1        0.0370
     10 C           1.6423   -0.8195    1.0863 C.ar    1  UNL1       -0.0493
     11 C           2.9744   -1.0454    1.3545 C.ar    1  UNL1       -0.0566
     12 C           3.8259   -1.5518    0.4037 C.ar    1  UNL1       -0.0333
     13 C           5.2809   -1.7954    0.7011 C.3     1  UNL1        0.0241
     14 N           6.0618   -0.6427    0.3888 N.3     1  UNL1       -0.2957
     15 C           5.6957    0.5299    1.1173 C.3     1  UNL1        0.0120
     16 C           6.5407    1.7302    0.7070 C.3     1  UNL1        0.0114
     17 N           7.9192    1.3791    0.9964 N.3     1  UNL1       -0.3029
     18 C           8.7817    2.5348    0.8425 C.3     1  UNL1       -0.0127
     19 C           8.2766    0.3439    0.0244 C.3     1  UNL1        0.0114
     20 C           7.4620   -0.8784    0.3038 C.3     1  UNL1        0.0120
     21 C           3.3159   -1.8336   -0.8407 C.ar    1  UNL1       -0.0566
     22 C           1.9597   -1.6024   -1.1103 C.ar    1  UNL1       -0.0493
     23 C          -3.2596   -0.4000   -1.1816 C.ar    1  UNL1       -0.0325
     24 C          -4.5901   -0.2250   -1.6079 C.ar    1  UNL1       -0.0132
     25 C          -5.5735    0.3228   -0.6676 C.ar    1  UNL1       -0.0169
     26 C          -6.3848    1.3734   -1.0258 C.ar    1  UNL1       -0.0534
     27 C          -7.3293    1.9195   -0.1765 C.ar    1  UNL1       -0.0534
     28 C          -7.4741    1.3884    1.1045 C.ar    1  UNL1       -0.0150
     29 C          -8.4066    1.9054    1.9845 C.ar    1  UNL1       -0.0359
     30 C          -8.5029    1.3392    3.2349 C.ar    1  UNL1        0.0281
     31 N          -7.7237    0.3179    3.6026 N.ar    1  UNL1       -0.2626
     32 C          -6.8232   -0.1773    2.7452 C.ar    1  UNL1        0.0353
     33 C          -6.6580    0.3356    1.4580 C.ar    1  UNL1        0.0008
     34 C          -5.7239   -0.1921    0.5945 C.ar    1  UNL1       -0.0448
     35 H          -6.5486    0.5077   -3.9799 H       1  UNL1        0.0278
     36 H          -7.0812   -0.4060   -2.5331 H       1  UNL1        0.0278
     37 H          -6.6720   -1.2813   -4.0065 H       1  UNL1        0.0278
     38 H          -4.3304   -1.2955   -4.7374 H       1  UNL1        0.0621
     39 H          -1.9643   -1.6106   -3.9933 H       1  UNL1        0.0636
     40 H          -0.2686   -1.5018   -2.4217 H       1  UNL1        0.1551
     41 H           0.9688   -0.4141    1.8537 H       1  UNL1        0.0625
     42 H           3.3752   -0.8227    2.3404 H       1  UNL1        0.0621
     43 H           5.5995   -2.6203    0.0199 H       1  UNL1        0.0476
     44 H           5.3977   -2.1766    1.7254 H       1  UNL1        0.0476
     45 H           4.6163    0.7706    1.0543 H       1  UNL1        0.0439
     46 H           5.9159    0.3770    2.2075 H       1  UNL1        0.0439
     47 H           6.2663    2.6341    1.2476 H       1  UNL1        0.0439
     48 H           6.4208    1.8188   -0.3967 H       1  UNL1        0.0439
     49 H           9.6780    2.2718    0.2643 H       1  UNL1        0.0391
     50 H           8.2363    3.3130    0.2395 H       1  UNL1        0.0391
     51 H           9.0950    2.9301    1.8356 H       1  UNL1        0.0391
     52 H           7.9294    0.7493   -0.9699 H       1  UNL1        0.0439
     53 H           9.3481    0.1679   -0.0371 H       1  UNL1        0.0439
     54 H           7.7966   -1.2639    1.3087 H       1  UNL1        0.0439
     55 H           7.6949   -1.6963   -0.4064 H       1  UNL1        0.0439
     56 H           3.9829   -2.2316   -1.5897 H       1  UNL1        0.0621
     57 H           1.6385   -1.8481   -2.1058 H       1  UNL1        0.0625
     58 H          -3.0307   -0.1264   -0.1668 H       1  UNL1        0.0642
     59 H          -6.2983    1.8179   -2.0172 H       1  UNL1        0.0624
     60 H          -7.9673    2.7445   -0.4565 H       1  UNL1        0.0624
     61 H          -9.0353    2.7443    1.6600 H       1  UNL1        0.0639
     62 H          -9.2320    1.7315    3.9455 H       1  UNL1        0.0830
     63 H          -6.1781   -1.0089    3.0235 H       1  UNL1        0.0836
     64 H          -5.1120   -1.0059    0.9052 H       1  UNL1        0.0630
@<TRIPOS>BOND
     1     1     2    1
     2     2     3   ar
     3     3     4   ar
     4     4     5   ar
     5     5     6    1
     6     6     7   am
     7     7     8    2
     8     7     9    1
     9     9    10   ar
    10    10    11   ar
    11    11    12   ar
    12    12    13    1
    13    13    14    1
    14    14    15    1
    15    15    16    1
    16    16    17    1
    17    17    18    1
    18    17    19    1
    19    19    20    1
    20    12    21   ar
    21    21    22   ar
    22     5    23   ar
    23    23    24   ar
    24    24    25    1
    25    25    26   ar
    26    26    27   ar
    27    27    28   ar
    28    28    29   ar
    29    29    30   ar
    30    30    31   ar
    31    31    32   ar
    32    32    33   ar
    33    33    34   ar
    34    24     2   ar
    35    34    25   ar
    36    22     9   ar
    37    33    28   ar
    38    20    14    1
    39     1    35    1
    40     1    36    1
    41     1    37    1
    42     3    38    1
    43     4    39    1
    44     6    40    1
    45    10    41    1
    46    11    42    1
    47    13    43    1
    48    13    44    1
    49    15    45    1
    50    15    46    1
    51    16    47    1
    52    16    48    1
    53    18    49    1
    54    18    50    1
    55    18    51    1
    56    19    52    1
    57    19    53    1
    58    20    54    1
    59    20    55    1
    60    21    56    1
    61    22    57    1
    62    23    58    1
    63    26    59    1
    64    27    60    1
    65    29    61    1
    66    30    62    1
    67    32    63    1
    68    34    64    1
