
     RDKit          3D

 64 68  0  0  0  0  0  0  0  0999 V2000
   -6.3817   -0.3862   -3.3693 C   0  0  0  0  0  0  0  0  0  0  0  0
   -4.9875   -0.5418   -2.8781 C   0  0  0  0  0  0  0  0  0  0  0  0
   -4.0042   -1.0493   -3.7366 C   0  0  0  0  0  0  0  0  0  0  0  0
   -2.7115   -1.2132   -3.3042 C   0  0  0  0  0  0  0  0  0  0  0  0
   -2.2957   -0.8925   -2.0071 C   0  0  0  0  0  0  0  0  0  0  0  0
   -0.9355   -1.1074   -1.6834 N   0  0  0  0  0  0  0  0  0  0  0  0
   -0.3122   -0.8541   -0.4432 C   0  0  0  0  0  0  0  0  0  0  0  0
   -1.0022   -0.3831    0.5161 O   0  0  0  0  0  0  0  0  0  0  0  0
    1.1022   -1.0974   -0.1682 C   0  0  0  0  0  0  0  0  0  0  0  0
    1.6423   -0.8195    1.0863 C   0  0  0  0  0  0  0  0  0  0  0  0
    2.9744   -1.0454    1.3545 C   0  0  0  0  0  0  0  0  0  0  0  0
    3.8259   -1.5518    0.4037 C   0  0  0  0  0  0  0  0  0  0  0  0
    5.2809   -1.7954    0.7011 C   0  0  0  0  0  0  0  0  0  0  0  0
    6.0618   -0.6427    0.3888 N   0  0  0  0  0  0  0  0  0  0  0  0
    5.6957    0.5299    1.1173 C   0  0  0  0  0  0  0  0  0  0  0  0
    6.5407    1.7302    0.7070 C   0  0  0  0  0  0  0  0  0  0  0  0
    7.9192    1.3791    0.9964 N   0  0  0  0  0  0  0  0  0  0  0  0
    8.7817    2.5348    0.8425 C   0  0  0  0  0  0  0  0  0  0  0  0
    8.2766    0.3439    0.0244 C   0  0  0  0  0  0  0  0  0  0  0  0
    7.4620   -0.8784    0.3038 C   0  0  0  0  0  0  0  0  0  0  0  0
    3.3159   -1.8336   -0.8407 C   0  0  0  0  0  0  0  0  0  0  0  0
    1.9597   -1.6024   -1.1103 C   0  0  0  0  0  0  0  0  0  0  0  0
   -3.2596   -0.4000   -1.1816 C   0  0  0  0  0  0  0  0  0  0  0  0
   -4.5901   -0.2250   -1.6079 C   0  0  0  0  0  0  0  0  0  0  0  0
   -5.5735    0.3228   -0.6676 C   0  0  0  0  0  0  0  0  0  0  0  0
   -6.3848    1.3734   -1.0258 C   0  0  0  0  0  0  0  0  0  0  0  0
   -7.3293    1.9195   -0.1765 C   0  0  0  0  0  0  0  0  0  0  0  0
   -7.4741    1.3884    1.1045 C   0  0  0  0  0  0  0  0  0  0  0  0
   -8.4066    1.9054    1.9845 C   0  0  0  0  0  0  0  0  0  0  0  0
   -8.5029    1.3392    3.2349 C   0  0  0  0  0  0  0  0  0  0  0  0
   -7.7237    0.3179    3.6026 N   0  0  0  0  0  0  0  0  0  0  0  0
   -6.8232   -0.1773    2.7452 C   0  0  0  0  0  0  0  0  0  0  0  0
   -6.6580    0.3356    1.4580 C   0  0  0  0  0  0  0  0  0  0  0  0
   -5.7239   -0.1921    0.5945 C   0  0  0  0  0  0  0  0  0  0  0  0
   -6.5486    0.5077   -3.9799 H   0  0  0  0  0  0  0  0  0  0  0  0
   -7.0812   -0.4060   -2.5331 H   0  0  0  0  0  0  0  0  0  0  0  0
   -6.6720   -1.2813   -4.0065 H   0  0  0  0  0  0  0  0  0  0  0  0
   -4.3304   -1.2955   -4.7374 H   0  0  0  0  0  0  0  0  0  0  0  0
   -1.9643   -1.6106   -3.9933 H   0  0  0  0  0  0  0  0  0  0  0  0
   -0.2686   -1.5018   -2.4217 H   0  0  0  0  0  0  0  0  0  0  0  0
    0.9688   -0.4141    1.8537 H   0  0  0  0  0  0  0  0  0  0  0  0
    3.3752   -0.8227    2.3404 H   0  0  0  0  0  0  0  0  0  0  0  0
    5.5995   -2.6203    0.0199 H   0  0  0  0  0  0  0  0  0  0  0  0
    5.3977   -2.1766    1.7254 H   0  0  0  0  0  0  0  0  0  0  0  0
    4.6163    0.7706    1.0543 H   0  0  0  0  0  0  0  0  0  0  0  0
    5.9159    0.3770    2.2075 H   0  0  0  0  0  0  0  0  0  0  0  0
    6.2663    2.6341    1.2476 H   0  0  0  0  0  0  0  0  0  0  0  0
    6.4208    1.8188   -0.3967 H   0  0  0  0  0  0  0  0  0  0  0  0
    9.6780    2.2718    0.2643 H   0  0  0  0  0  0  0  0  0  0  0  0
    8.2363    3.3130    0.2395 H   0  0  0  0  0  0  0  0  0  0  0  0
    9.0950    2.9301    1.8356 H   0  0  0  0  0  0  0  0  0  0  0  0
    7.9294    0.7493   -0.9699 H   0  0  0  0  0  0  0  0  0  0  0  0
    9.3481    0.1679   -0.0371 H   0  0  0  0  0  0  0  0  0  0  0  0
    7.7966   -1.2639    1.3087 H   0  0  0  0  0  0  0  0  0  0  0  0
    7.6949   -1.6963   -0.4064 H   0  0  0  0  0  0  0  0  0  0  0  0
    3.9829   -2.2316   -1.5897 H   0  0  0  0  0  0  0  0  0  0  0  0
    1.6385   -1.8481   -2.1058 H   0  0  0  0  0  0  0  0  0  0  0  0
   -3.0307   -0.1264   -0.1668 H   0  0  0  0  0  0  0  0  0  0  0  0
   -6.2983    1.8179   -2.0172 H   0  0  0  0  0  0  0  0  0  0  0  0
   -7.9673    2.7445   -0.4565 H   0  0  0  0  0  0  0  0  0  0  0  0
   -9.0353    2.7443    1.6600 H   0  0  0  0  0  0  0  0  0  0  0  0
   -9.2320    1.7315    3.9455 H   0  0  0  0  0  0  0  0  0  0  0  0
   -6.1781   -1.0089    3.0235 H   0  0  0  0  0  0  0  0  0  0  0  0
   -5.1120   -1.0059    0.9052 H   0  0  0  0  0  0  0  0  0  0  0  0
  1  2  1  0
  2  3  2  0
  3  4  1  0
  4  5  2  0
  5  6  1  0
  6  7  1  0
  7  8  2  0
  7  9  1  0
  9 10  2  0
 10 11  1  0
 11 12  2  0
 12 13  1  0
 13 14  1  0
 14 15  1  0
 15 16  1  0
 16 17  1  0
 17 18  1  0
 17 19  1  0
 19 20  1  0
 12 21  1  0
 21 22  2  0
  5 23  1  0
 23 24  2  0
 24 25  1  0
 25 26  2  0
 26 27  1  0
 27 28  2  0
 28 29  1  0
 29 30  2  0
 30 31  1  0
 31 32  2  0
 32 33  1  0
 33 34  2  0
 24  2  1  0
 34 25  1  0
 22  9  1  0
 33 28  1  0
 20 14  1  0
  1 35  1  0
  1 36  1  0
  1 37  1  0
  3 38  1  0
  4 39  1  0
  6 40  1  0
 10 41  1  0
 11 42  1  0
 13 43  1  0
 13 44  1  0
 15 45  1  0
 15 46  1  0
 16 47  1  0
 16 48  1  0
 18 49  1  0
 18 50  1  0
 18 51  1  0
 19 52  1  0
 19 53  1  0
 20 54  1  0
 20 55  1  0
 21 56  1  0
 22 57  1  0
 23 58  1  0
 26 59  1  0
 27 60  1  0
 29 61  1  0
 30 62  1  0
 32 63  1  0
 34 64  1  0
M  END
$$$$
