@<TRIPOS>MOLECULE
*****
 74 78 0 0 0
SMALL
GASTEIGER

@<TRIPOS>ATOM
      1 C           5.9494   -2.2618   -0.8164 C.3     1  UNL1       -0.0386
      2 C           6.5001   -1.0274   -0.1835 C.ar    1  UNL1       -0.0267
      3 C           7.5353   -1.1325    0.7278 C.ar    1  UNL1        0.0070
      4 C           8.0867   -0.0467    1.3521 C.ar    1  UNL1        0.1834
      5 N           7.5905    1.1587    1.0562 N.ar    1  UNL1       -0.1742
      6 O           8.1135    2.2716    1.6544 O.co2   1  UNL1       -0.6196
      7 C           6.5699    1.3076    0.1632 C.ar    1  UNL1        0.2047
      8 C           6.0803    2.6669   -0.1031 C.3     1  UNL1        0.0228
      9 C           6.0067    0.2260   -0.4717 C.ar    1  UNL1        0.1074
     10 C           4.9275    0.3393   -1.4346 C.2     1  UNL1        0.2529
     11 O           5.2746    0.7763   -2.5850 O.2     1  UNL1       -0.2698
     12 N           3.5847    0.0152   -1.2017 N.am    1  UNL1       -0.2972
     13 C           3.0304   -0.4748    0.0250 C.3     1  UNL1        0.0166
     14 C           1.7616   -1.2813   -0.1457 C.3     1  UNL1       -0.0188
     15 C           0.7119   -0.5617   -0.9807 C.3     1  UNL1        0.0220
     16 C           0.3858   -1.4977   -2.1599 C.3     1  UNL1       -0.0465
     17 N          -0.4268   -0.3502   -0.1954 N.3     1  UNL1       -0.2967
     18 C          -1.1119   -1.4834    0.3212 C.3     1  UNL1        0.0011
     19 C          -2.3659   -0.9563    1.0204 C.3     1  UNL1       -0.0211
     20 C          -2.9497    0.2035    0.2256 C.3     1  UNL1        0.0309
     21 N          -4.3545    0.3101    0.2448 N.pl3   1  UNL1       -0.2957
     22 C          -5.2095    1.4417    0.1320 C.ar    1  UNL1        0.0342
     23 C          -6.5421    1.2588   -0.1938 C.ar    1  UNL1       -0.0403
     24 C          -7.5011    2.2464   -0.2676 C.ar    1  UNL1       -0.0600
     25 C          -7.0864    3.5339    0.0086 C.ar    1  UNL1       -0.0616
     26 C          -5.7793    3.7483    0.3301 C.ar    1  UNL1       -0.0600
     27 C          -4.8227    2.7322    0.4004 C.ar    1  UNL1       -0.0403
     28 C          -5.0071   -0.9881    0.3222 C.ar    1  UNL1        0.0525
     29 C          -6.1892   -1.1665    0.9820 C.ar    1  UNL1       -0.0374
     30 C          -6.9122   -2.3376    0.9624 C.ar    1  UNL1       -0.0418
     31 C          -6.3999   -3.3863    0.2289 C.ar    1  UNL1        0.0277
     32 N          -5.2349   -3.2177   -0.4237 N.ar    1  UNL1       -0.2614
     33 C          -4.5336   -2.0715   -0.4015 C.ar    1  UNL1        0.0489
     34 C          -2.0701    1.3626    0.4986 C.3     1  UNL1       -0.0211
     35 C          -0.6001    0.8400    0.5377 C.3     1  UNL1        0.0011
     36 C           1.3281    0.6520   -1.5921 C.3     1  UNL1       -0.0188
     37 C           2.6158    0.1791   -2.2994 C.3     1  UNL1        0.0166
     38 H           5.3554   -2.7829   -0.0403 H       1  UNL1        0.0278
     39 H           6.7695   -2.8939   -1.1856 H       1  UNL1        0.0278
     40 H           5.2848   -1.9849   -1.6475 H       1  UNL1        0.0278
     41 H           7.9118   -2.1234    0.9398 H       1  UNL1        0.0680
     42 H           8.9003   -0.1918    2.0573 H       1  UNL1        0.1389
     43 H           5.9828    2.8523   -1.1760 H       1  UNL1        0.0337
     44 H           5.1103    2.7712    0.4615 H       1  UNL1        0.0337
     45 H           6.7425    3.4304    0.3635 H       1  UNL1        0.0337
     46 H           3.7181   -1.0928    0.6055 H       1  UNL1        0.0465
     47 H           2.7691    0.4038    0.6707 H       1  UNL1        0.0465
     48 H           1.4042   -1.4728    0.8927 H       1  UNL1        0.0298
     49 H           2.0440   -2.2655   -0.5510 H       1  UNL1        0.0298
     50 H           0.5474   -0.9747   -3.1439 H       1  UNL1        0.0247
     51 H           1.0585   -2.3792   -2.1767 H       1  UNL1        0.0247
     52 H          -0.6561   -1.8293   -2.1616 H       1  UNL1        0.0247
     53 H          -1.3659   -2.2852   -0.3542 H       1  UNL1        0.0427
     54 H          -0.5178   -1.9451    1.1535 H       1  UNL1        0.0427
     55 H          -2.9918   -1.7768    1.2626 H       1  UNL1        0.0296
     56 H          -2.0377   -0.4725    1.9988 H       1  UNL1        0.0296
     57 H          -2.7006   -0.0991   -0.8604 H       1  UNL1        0.0504
     58 H          -6.9539    0.2729   -0.5058 H       1  UNL1        0.0636
     59 H          -8.5416    2.0348   -0.5321 H       1  UNL1        0.0618
     60 H          -7.8306    4.3182   -0.0463 H       1  UNL1        0.0618
     61 H          -5.4559    4.7616    0.5429 H       1  UNL1        0.0618
     62 H          -3.8230    2.9806    0.6649 H       1  UNL1        0.0636
     63 H          -6.5891   -0.3426    1.6089 H       1  UNL1        0.0637
     64 H          -7.8314   -2.3728    1.5170 H       1  UNL1        0.0633
     65 H          -6.9635   -4.3033    0.2159 H       1  UNL1        0.0829
     66 H          -3.6127   -1.9569   -0.9633 H       1  UNL1        0.0848
     67 H          -2.0365    2.0543   -0.3623 H       1  UNL1        0.0296
     68 H          -2.1748    1.8232    1.4911 H       1  UNL1        0.0296
     69 H           0.0651    1.6295    0.2280 H       1  UNL1        0.0427
     70 H          -0.3573    0.6053    1.6010 H       1  UNL1        0.0427
     71 H           1.6416    1.3827   -0.8496 H       1  UNL1        0.0298
     72 H           0.6926    1.0494   -2.4104 H       1  UNL1        0.0298
     73 H           2.9708    0.9418   -2.9899 H       1  UNL1        0.0465
     74 H           2.5157   -0.7951   -2.7653 H       1  UNL1        0.0465
@<TRIPOS>UNITY_ATOM_ATTR
5 1
charge 1
6 1
charge -1
@<TRIPOS>BOND
     1     1     2    1
     2     2     3   ar
     3     3     4   ar
     4     4     5   ar
     5     5     6    1
     6     5     7   ar
     7     7     8    1
     8     7     9   ar
     9     9    10    1
    10    10    11    2
    11    10    12   am
    12    12    13    1
    13    13    14    1
    14    14    15    1
    15    15    16    1
    16    15    17    1
    17    17    18    1
    18    18    19    1
    19    19    20    1
    20    20    21    1
    21    21    22    1
    22    22    23   ar
    23    23    24   ar
    24    24    25   ar
    25    25    26   ar
    26    26    27   ar
    27    21    28    1
    28    28    29   ar
    29    29    30   ar
    30    30    31   ar
    31    31    32   ar
    32    32    33   ar
    33    20    34    1
    34    34    35    1
    35    15    36    1
    36    36    37    1
    37     9     2   ar
    38    37    12    1
    39    35    17    1
    40    27    22   ar
    41    33    28   ar
    42     1    38    1
    43     1    39    1
    44     1    40    1
    45     3    41    1
    46     4    42    1
    47     8    43    1
    48     8    44    1
    49     8    45    1
    50    13    46    1
    51    13    47    1
    52    14    48    1
    53    14    49    1
    54    16    50    1
    55    16    51    1
    56    16    52    1
    57    18    53    1
    58    18    54    1
    59    19    55    1
    60    19    56    1
    61    20    57    1
    62    23    58    1
    63    24    59    1
    64    25    60    1
    65    26    61    1
    66    27    62    1
    67    29    63    1
    68    30    64    1
    69    31    65    1
    70    33    66    1
    71    34    67    1
    72    34    68    1
    73    35    69    1
    74    35    70    1
    75    36    71    1
    76    36    72    1
    77    37    73    1
    78    37    74    1
