@<TRIPOS>MOLECULE
*****
 55 58 0 0 0
SMALL
GASTEIGER

@<TRIPOS>ATOM
      1 O           6.5464    0.8116    1.2277 O.3     1  UNL1       -0.3937
      2 C           5.4241    1.3595    1.8913 C.3     1  UNL1        0.0569
      3 C           4.3873    1.7074    0.8499 C.3     1  UNL1        0.0222
      4 N           3.9758    0.5351    0.1028 N.3     1  UNL1       -0.2977
      5 C           2.9776    0.9412   -0.8676 C.3     1  UNL1        0.0118
      6 C           2.4065   -0.3260   -1.5259 C.3     1  UNL1        0.0117
      7 N           1.7521   -1.0557   -0.5168 N.3     1  UNL1       -0.2996
      8 C           0.7732   -1.9820   -0.8634 C.3     1  UNL1        0.0024
      9 C          -0.5169   -1.1869   -1.4324 C.3     1  UNL1       -0.0211
     10 C          -0.8566   -0.3847   -0.2661 C.2     1  UNL1       -0.0745
     11 C          -2.0458    0.0107    0.1459 C.2     1  UNL1       -0.0125
     12 C          -2.0935    0.8094    1.4109 C.ar    1  UNL1       -0.0039
     13 C          -0.9066    1.3337    1.9113 C.ar    1  UNL1       -0.0530
     14 C          -0.8826    2.1754    3.0150 C.ar    1  UNL1       -0.0611
     15 C          -2.0556    2.5128    3.6447 C.ar    1  UNL1       -0.0607
     16 C          -3.2375    2.0119    3.1751 C.ar    1  UNL1       -0.0474
     17 C          -3.2257    1.1698    2.0688 C.ar    1  UNL1        0.0205
     18 S          -4.7839    0.4661    1.5580 S.3     1  UNL1       -0.0882
     19 C          -4.5327   -0.2400   -0.0542 C.ar    1  UNL1        0.0205
     20 C          -5.6312   -0.5511   -0.7904 C.ar    1  UNL1       -0.0469
     21 C          -5.4965   -1.0977   -2.0400 C.ar    1  UNL1       -0.0490
     22 C          -4.2552   -1.3265   -2.5457 C.ar    1  UNL1        0.0555
     23 C          -4.0822   -1.9167   -3.8918 C.3     1  UNL1        0.4174
     24 F          -4.8379   -3.0554   -4.0916 F       1  UNL1       -0.1659
     25 F          -2.7478   -2.2083   -4.1499 F       1  UNL1       -0.1659
     26 F          -4.5235   -0.9601   -4.8044 F       1  UNL1       -0.1659
     27 C          -3.1163   -1.0126   -1.8097 C.ar    1  UNL1       -0.0413
     28 C          -3.2311   -0.4706   -0.5548 C.ar    1  UNL1       -0.0033
     29 C           2.7224   -1.5718    0.4157 C.3     1  UNL1        0.0117
     30 C           3.5062   -0.4532    1.0150 C.3     1  UNL1        0.0118
     31 H           6.6936    1.3553    0.4209 H       1  UNL1        0.2095
     32 H           4.9853    0.6668    2.6173 H       1  UNL1        0.0570
     33 H           5.7341    2.3254    2.3635 H       1  UNL1        0.0570
     34 H           4.8202    2.4840    0.1718 H       1  UNL1        0.0449
     35 H           3.5271    2.2109    1.3660 H       1  UNL1        0.0449
     36 H           2.1638    1.4476   -0.3109 H       1  UNL1        0.0439
     37 H           3.4741    1.5951   -1.5988 H       1  UNL1        0.0439
     38 H           3.3135   -0.8916   -1.8389 H       1  UNL1        0.0439
     39 H           1.8351    0.0044   -2.3843 H       1  UNL1        0.0439
     40 H           1.1101   -2.6691   -1.6451 H       1  UNL1        0.0429
     41 H           0.4048   -2.5619   -0.0093 H       1  UNL1        0.0429
     42 H          -0.0573   -0.7441   -2.2861 H       1  UNL1        0.0320
     43 H          -1.0820   -2.1555   -1.5618 H       1  UNL1        0.0320
     44 H           0.0293   -0.0727    0.3695 H       1  UNL1        0.0579
     45 H           0.0296    1.1026    1.4288 H       1  UNL1        0.0624
     46 H           0.0682    2.5480    3.3549 H       1  UNL1        0.0618
     47 H          -2.0850    3.1712    4.5145 H       1  UNL1        0.0618
     48 H          -4.1703    2.2532    3.6400 H       1  UNL1        0.0629
     49 H          -6.6083   -0.3504   -0.3529 H       1  UNL1        0.0629
     50 H          -6.4041   -1.3278   -2.5764 H       1  UNL1        0.0623
     51 H          -2.2342   -1.1184   -2.3370 H       1  UNL1        0.0629
     52 H           3.4385   -2.2240   -0.1611 H       1  UNL1        0.0439
     53 H           2.2562   -2.1438    1.2455 H       1  UNL1        0.0439
     54 H           4.4253   -0.9253    1.4763 H       1  UNL1        0.0439
     55 H           2.9198   -0.0255    1.8660 H       1  UNL1        0.0439
@<TRIPOS>BOND
     1     1     2    1
     2     2     3    1
     3     3     4    1
     4     4     5    1
     5     5     6    1
     6     6     7    1
     7     7     8    1
     8     8     9    1
     9     9    10    1
    10    10    11    2
    11    11    12    1
    12    12    13   ar
    13    13    14   ar
    14    14    15   ar
    15    15    16   ar
    16    16    17   ar
    17    17    18    1
    18    18    19    1
    19    19    20   ar
    20    20    21   ar
    21    21    22   ar
    22    22    23    1
    23    23    24    1
    24    23    25    1
    25    23    26    1
    26    22    27   ar
    27    27    28   ar
    28     7    29    1
    29    29    30    1
    30    30     4    1
    31    28    11    1
    32    17    12   ar
    33    28    19   ar
    34     1    31    1
    35     2    32    1
    36     2    33    1
    37     3    34    1
    38     3    35    1
    39     5    36    1
    40     5    37    1
    41     6    38    1
    42     6    39    1
    43     8    40    1
    44     8    41    1
    45     9    42    1
    46     9    43    1
    47    10    44    1
    48    13    45    1
    49    14    46    1
    50    15    47    1
    51    16    48    1
    52    20    49    1
    53    21    50    1
    54    27    51    1
    55    29    52    1
    56    29    53    1
    57    30    54    1
    58    30    55    1
