
     RDKit          3D

 55 58  0  0  0  0  0  0  0  0999 V2000
    6.5464    0.8116    1.2277 O   0  0  0  0  0  0  0  0  0  0  0  0
    5.4241    1.3595    1.8913 C   0  0  0  0  0  0  0  0  0  0  0  0
    4.3873    1.7074    0.8499 C   0  0  0  0  0  0  0  0  0  0  0  0
    3.9758    0.5351    0.1028 N   0  0  0  0  0  0  0  0  0  0  0  0
    2.9776    0.9412   -0.8676 C   0  0  0  0  0  0  0  0  0  0  0  0
    2.4065   -0.3260   -1.5259 C   0  0  0  0  0  0  0  0  0  0  0  0
    1.7521   -1.0557   -0.5168 N   0  0  0  0  0  0  0  0  0  0  0  0
    0.7732   -1.9820   -0.8634 C   0  0  0  0  0  0  0  0  0  0  0  0
   -0.5169   -1.1869   -1.4324 C   0  0  0  0  0  0  0  0  0  0  0  0
   -0.8566   -0.3847   -0.2661 C   0  0  0  0  0  0  0  0  0  0  0  0
   -2.0458    0.0107    0.1459 C   0  0  0  0  0  0  0  0  0  0  0  0
   -2.0935    0.8094    1.4109 C   0  0  0  0  0  0  0  0  0  0  0  0
   -0.9066    1.3337    1.9113 C   0  0  0  0  0  0  0  0  0  0  0  0
   -0.8826    2.1754    3.0150 C   0  0  0  0  0  0  0  0  0  0  0  0
   -2.0556    2.5128    3.6447 C   0  0  0  0  0  0  0  0  0  0  0  0
   -3.2375    2.0119    3.1751 C   0  0  0  0  0  0  0  0  0  0  0  0
   -3.2257    1.1698    2.0688 C   0  0  0  0  0  0  0  0  0  0  0  0
   -4.7839    0.4661    1.5580 S   0  0  0  0  0  0  0  0  0  0  0  0
   -4.5327   -0.2400   -0.0542 C   0  0  0  0  0  0  0  0  0  0  0  0
   -5.6312   -0.5511   -0.7904 C   0  0  0  0  0  0  0  0  0  0  0  0
   -5.4965   -1.0977   -2.0400 C   0  0  0  0  0  0  0  0  0  0  0  0
   -4.2552   -1.3265   -2.5457 C   0  0  0  0  0  0  0  0  0  0  0  0
   -4.0822   -1.9167   -3.8918 C   0  0  0  0  0  0  0  0  0  0  0  0
   -4.8379   -3.0554   -4.0916 F   0  0  0  0  0  0  0  0  0  0  0  0
   -2.7478   -2.2083   -4.1499 F   0  0  0  0  0  0  0  0  0  0  0  0
   -4.5235   -0.9601   -4.8044 F   0  0  0  0  0  0  0  0  0  0  0  0
   -3.1163   -1.0126   -1.8097 C   0  0  0  0  0  0  0  0  0  0  0  0
   -3.2311   -0.4706   -0.5548 C   0  0  0  0  0  0  0  0  0  0  0  0
    2.7224   -1.5718    0.4157 C   0  0  0  0  0  0  0  0  0  0  0  0
    3.5062   -0.4532    1.0150 C   0  0  0  0  0  0  0  0  0  0  0  0
    6.6936    1.3553    0.4209 H   0  0  0  0  0  0  0  0  0  0  0  0
    4.9853    0.6668    2.6173 H   0  0  0  0  0  0  0  0  0  0  0  0
    5.7341    2.3254    2.3635 H   0  0  0  0  0  0  0  0  0  0  0  0
    4.8202    2.4840    0.1718 H   0  0  0  0  0  0  0  0  0  0  0  0
    3.5271    2.2109    1.3660 H   0  0  0  0  0  0  0  0  0  0  0  0
    2.1638    1.4476   -0.3109 H   0  0  0  0  0  0  0  0  0  0  0  0
    3.4741    1.5951   -1.5988 H   0  0  0  0  0  0  0  0  0  0  0  0
    3.3135   -0.8916   -1.8389 H   0  0  0  0  0  0  0  0  0  0  0  0
    1.8351    0.0044   -2.3843 H   0  0  0  0  0  0  0  0  0  0  0  0
    1.1101   -2.6691   -1.6451 H   0  0  0  0  0  0  0  0  0  0  0  0
    0.4048   -2.5619   -0.0093 H   0  0  0  0  0  0  0  0  0  0  0  0
   -0.0573   -0.7441   -2.2861 H   0  0  0  0  0  0  0  0  0  0  0  0
   -1.0820   -2.1555   -1.5618 H   0  0  0  0  0  0  0  0  0  0  0  0
    0.0293   -0.0727    0.3695 H   0  0  0  0  0  0  0  0  0  0  0  0
    0.0296    1.1026    1.4288 H   0  0  0  0  0  0  0  0  0  0  0  0
    0.0682    2.5480    3.3549 H   0  0  0  0  0  0  0  0  0  0  0  0
   -2.0850    3.1712    4.5145 H   0  0  0  0  0  0  0  0  0  0  0  0
   -4.1703    2.2532    3.6400 H   0  0  0  0  0  0  0  0  0  0  0  0
   -6.6083   -0.3504   -0.3529 H   0  0  0  0  0  0  0  0  0  0  0  0
   -6.4041   -1.3278   -2.5764 H   0  0  0  0  0  0  0  0  0  0  0  0
   -2.2342   -1.1184   -2.3370 H   0  0  0  0  0  0  0  0  0  0  0  0
    3.4385   -2.2240   -0.1611 H   0  0  0  0  0  0  0  0  0  0  0  0
    2.2562   -2.1438    1.2455 H   0  0  0  0  0  0  0  0  0  0  0  0
    4.4253   -0.9253    1.4763 H   0  0  0  0  0  0  0  0  0  0  0  0
    2.9198   -0.0255    1.8660 H   0  0  0  0  0  0  0  0  0  0  0  0
  1  2  1  0
  2  3  1  0
  3  4  1  0
  4  5  1  0
  5  6  1  0
  6  7  1  0
  7  8  1  0
  8  9  1  0
  9 10  1  0
 10 11  2  0
 11 12  1  0
 12 13  2  0
 13 14  1  0
 14 15  2  0
 15 16  1  0
 16 17  2  0
 17 18  1  0
 18 19  1  0
 19 20  2  0
 20 21  1  0
 21 22  2  0
 22 23  1  0
 23 24  1  0
 23 25  1  0
 23 26  1  0
 22 27  1  0
 27 28  2  0
  7 29  1  0
 29 30  1  0
 30  4  1  0
 28 11  1  0
 17 12  1  0
 28 19  1  0
  1 31  1  0
  2 32  1  0
  2 33  1  0
  3 34  1  0
  3 35  1  0
  5 36  1  0
  5 37  1  0
  6 38  1  0
  6 39  1  0
  8 40  1  0
  8 41  1  0
  9 42  1  0
  9 43  1  0
 10 44  1  0
 13 45  1  0
 14 46  1  0
 15 47  1  0
 16 48  1  0
 20 49  1  0
 21 50  1  0
 27 51  1  0
 29 52  1  0
 29 53  1  0
 30 54  1  0
 30 55  1  0
M  END
$$$$
