@<TRIPOS>MOLECULE
*****
 55 59 0 0 0
SMALL
GASTEIGER

@<TRIPOS>ATOM
      1 C          -1.1958    1.2863   -1.8093 C.3     1  UNL1        0.1010
      2 C          -1.0494    1.7692   -3.2542 C.3     1  UNL1       -0.0244
      3 C          -0.8050    0.4442   -3.9711 C.3     1  UNL1       -0.0350
      4 C          -1.7509   -0.5442   -3.3136 C.3     1  UNL1        0.0144
      5 N          -2.0140    0.1058   -2.0427 N.pl3   1  UNL1       -0.3035
      6 C          -2.9814   -0.3456   -1.0842 C.ar    1  UNL1        0.1274
      7 N          -3.2047    0.2889    0.1037 N.ar    1  UNL1       -0.1968
      8 C          -4.1242   -0.1715    0.9737 C.ar    1  UNL1        0.2378
      9 N          -4.8729   -1.2666    0.7397 N.ar    1  UNL1       -0.2169
     10 C          -4.6846   -1.9320   -0.4324 C.ar    1  UNL1        0.0453
     11 C          -5.5242   -3.1446   -0.6748 C.3     1  UNL1       -0.0221
     12 C          -3.7528   -1.4735   -1.3248 C.ar    1  UNL1       -0.0005
     13 N          -4.2046    0.6390    2.1630 N.ar    1  UNL1       -0.2744
     14 C          -4.1451    0.0805    3.4051 C.ar    1  UNL1        0.0321
     15 C          -4.2533    1.1584    4.2867 C.ar    1  UNL1        0.0458
     16 N          -4.3711    2.2995    3.5826 N.ar    1  UNL1       -0.2436
     17 C          -4.3401    1.9697    2.2788 C.ar    1  UNL1        0.1026
     18 C           0.1480    0.9909   -1.3039 C.2     1  UNL1        0.2335
     19 O           0.7449    2.0941   -1.1466 O.2     1  UNL1       -0.2738
     20 N           0.7370   -0.2657   -1.0211 N.am    1  UNL1       -0.3135
     21 C           2.0928   -0.3777   -0.5214 C.3     1  UNL1        0.0156
     22 C           2.2911    0.3233    0.7824 C.3     1  UNL1       -0.0119
     23 C           3.7002    0.1575    1.2169 C.ar    1  UNL1       -0.0422
     24 C           4.7115    1.0365    0.8783 C.ar    1  UNL1       -0.0129
     25 C           5.9993    0.8352    1.3080 C.ar    1  UNL1        0.1665
     26 C           6.3496   -0.2419    2.0912 C.ar    1  UNL1        0.1662
     27 O           7.7070   -0.1893    2.3714 O.3     1  UNL1       -0.4526
     28 C           8.2713    0.7133    1.4566 C.3     1  UNL1        0.2332
     29 O           7.1761    1.5443    1.1184 O.3     1  UNL1       -0.4526
     30 C           5.3297   -1.1306    2.4341 C.ar    1  UNL1       -0.0159
     31 C           4.0255   -0.9320    2.0024 C.ar    1  UNL1       -0.0548
     32 H          -1.7396    2.0445   -1.2076 H       1  UNL1        0.0596
     33 H          -2.0259    2.1432   -3.5786 H       1  UNL1        0.0288
     34 H          -0.2200    2.4636   -3.3706 H       1  UNL1        0.0288
     35 H           0.2476    0.1862   -3.7747 H       1  UNL1        0.0281
     36 H          -0.9850    0.5364   -5.0509 H       1  UNL1        0.0281
     37 H          -1.2313   -1.5216   -3.1396 H       1  UNL1        0.0464
     38 H          -2.6551   -0.7406   -3.9001 H       1  UNL1        0.0464
     39 H          -6.5997   -2.9107   -0.4551 H       1  UNL1        0.0293
     40 H          -5.1672   -4.0185   -0.1003 H       1  UNL1        0.0293
     41 H          -5.4720   -3.4187   -1.7661 H       1  UNL1        0.0293
     42 H          -3.6554   -2.0378   -2.2191 H       1  UNL1        0.0670
     43 H          -4.0393   -0.9504    3.7336 H       1  UNL1        0.0829
     44 H          -4.2487    1.1345    5.3769 H       1  UNL1        0.0845
     45 H          -4.4099    2.6372    1.4082 H       1  UNL1        0.1033
     46 H           0.1158   -1.0814   -1.2029 H       1  UNL1        0.1487
     47 H           2.3947   -1.4221   -0.4538 H       1  UNL1        0.0465
     48 H           2.7807    0.1160   -1.2549 H       1  UNL1        0.0465
     49 H           1.6516   -0.0698    1.5998 H       1  UNL1        0.0328
     50 H           2.1126    1.4143    0.6229 H       1  UNL1        0.0328
     51 H           4.4652    1.8905    0.2646 H       1  UNL1        0.0658
     52 H           8.7153    0.1995    0.5739 H       1  UNL1        0.1166
     53 H           9.0579    1.3308    1.9428 H       1  UNL1        0.1166
     54 H           5.6079   -1.9732    3.0478 H       1  UNL1        0.0655
     55 H           3.2900   -1.6736    2.3154 H       1  UNL1        0.0621
@<TRIPOS>BOND
     1     1     2    1
     2     2     3    1
     3     3     4    1
     4     4     5    1
     5     5     6    1
     6     6     7   ar
     7     7     8   ar
     8     8     9   ar
     9     9    10   ar
    10    10    11    1
    11    10    12   ar
    12     8    13    1
    13    13    14   ar
    14    14    15   ar
    15    15    16   ar
    16    16    17   ar
    17     1    18    1
    18    18    19    2
    19    18    20   am
    20    20    21    1
    21    21    22    1
    22    22    23    1
    23    23    24   ar
    24    24    25   ar
    25    25    26   ar
    26    26    27    1
    27    27    28    1
    28    28    29    1
    29    26    30   ar
    30    30    31   ar
    31     5     1    1
    32    12     6   ar
    33    17    13   ar
    34    31    23   ar
    35    29    25    1
    36     1    32    1
    37     2    33    1
    38     2    34    1
    39     3    35    1
    40     3    36    1
    41     4    37    1
    42     4    38    1
    43    11    39    1
    44    11    40    1
    45    11    41    1
    46    12    42    1
    47    14    43    1
    48    15    44    1
    49    17    45    1
    50    20    46    1
    51    21    47    1
    52    21    48    1
    53    22    49    1
    54    22    50    1
    55    24    51    1
    56    28    52    1
    57    28    53    1
    58    30    54    1
    59    31    55    1
