
     RDKit          3D

 55 59  0  0  0  0  0  0  0  0999 V2000
   -1.1958    1.2863   -1.8093 C   0  0  1  0  0  0  0  0  0  0  0  0
   -1.0494    1.7692   -3.2542 C   0  0  0  0  0  0  0  0  0  0  0  0
   -0.8050    0.4442   -3.9711 C   0  0  0  0  0  0  0  0  0  0  0  0
   -1.7509   -0.5442   -3.3136 C   0  0  0  0  0  0  0  0  0  0  0  0
   -2.0140    0.1058   -2.0427 N   0  0  0  0  0  0  0  0  0  0  0  0
   -2.9814   -0.3456   -1.0842 C   0  0  0  0  0  0  0  0  0  0  0  0
   -3.2047    0.2889    0.1037 N   0  0  0  0  0  0  0  0  0  0  0  0
   -4.1242   -0.1715    0.9737 C   0  0  0  0  0  0  0  0  0  0  0  0
   -4.8729   -1.2666    0.7397 N   0  0  0  0  0  0  0  0  0  0  0  0
   -4.6846   -1.9320   -0.4324 C   0  0  0  0  0  0  0  0  0  0  0  0
   -5.5242   -3.1446   -0.6748 C   0  0  0  0  0  0  0  0  0  0  0  0
   -3.7528   -1.4735   -1.3248 C   0  0  0  0  0  0  0  0  0  0  0  0
   -4.2046    0.6390    2.1630 N   0  0  0  0  0  0  0  0  0  0  0  0
   -4.1451    0.0805    3.4051 C   0  0  0  0  0  0  0  0  0  0  0  0
   -4.2533    1.1584    4.2867 C   0  0  0  0  0  0  0  0  0  0  0  0
   -4.3711    2.2995    3.5826 N   0  0  0  0  0  0  0  0  0  0  0  0
   -4.3401    1.9697    2.2788 C   0  0  0  0  0  0  0  0  0  0  0  0
    0.1480    0.9909   -1.3039 C   0  0  0  0  0  0  0  0  0  0  0  0
    0.7449    2.0941   -1.1466 O   0  0  0  0  0  0  0  0  0  0  0  0
    0.7370   -0.2657   -1.0211 N   0  0  0  0  0  0  0  0  0  0  0  0
    2.0928   -0.3777   -0.5214 C   0  0  0  0  0  0  0  0  0  0  0  0
    2.2911    0.3233    0.7824 C   0  0  0  0  0  0  0  0  0  0  0  0
    3.7002    0.1575    1.2169 C   0  0  0  0  0  0  0  0  0  0  0  0
    4.7115    1.0365    0.8783 C   0  0  0  0  0  0  0  0  0  0  0  0
    5.9993    0.8352    1.3080 C   0  0  0  0  0  0  0  0  0  0  0  0
    6.3496   -0.2419    2.0912 C   0  0  0  0  0  0  0  0  0  0  0  0
    7.7070   -0.1893    2.3714 O   0  0  0  0  0  0  0  0  0  0  0  0
    8.2713    0.7133    1.4566 C   0  0  0  0  0  0  0  0  0  0  0  0
    7.1761    1.5443    1.1184 O   0  0  0  0  0  0  0  0  0  0  0  0
    5.3297   -1.1306    2.4341 C   0  0  0  0  0  0  0  0  0  0  0  0
    4.0255   -0.9320    2.0024 C   0  0  0  0  0  0  0  0  0  0  0  0
   -1.7396    2.0445   -1.2076 H   0  0  0  0  0  0  0  0  0  0  0  0
   -2.0259    2.1432   -3.5786 H   0  0  0  0  0  0  0  0  0  0  0  0
   -0.2200    2.4636   -3.3706 H   0  0  0  0  0  0  0  0  0  0  0  0
    0.2476    0.1862   -3.7747 H   0  0  0  0  0  0  0  0  0  0  0  0
   -0.9850    0.5364   -5.0509 H   0  0  0  0  0  0  0  0  0  0  0  0
   -1.2313   -1.5216   -3.1396 H   0  0  0  0  0  0  0  0  0  0  0  0
   -2.6551   -0.7406   -3.9001 H   0  0  0  0  0  0  0  0  0  0  0  0
   -6.5997   -2.9107   -0.4551 H   0  0  0  0  0  0  0  0  0  0  0  0
   -5.1672   -4.0185   -0.1003 H   0  0  0  0  0  0  0  0  0  0  0  0
   -5.4720   -3.4187   -1.7661 H   0  0  0  0  0  0  0  0  0  0  0  0
   -3.6554   -2.0378   -2.2191 H   0  0  0  0  0  0  0  0  0  0  0  0
   -4.0393   -0.9504    3.7336 H   0  0  0  0  0  0  0  0  0  0  0  0
   -4.2487    1.1345    5.3769 H   0  0  0  0  0  0  0  0  0  0  0  0
   -4.4099    2.6372    1.4082 H   0  0  0  0  0  0  0  0  0  0  0  0
    0.1158   -1.0814   -1.2029 H   0  0  0  0  0  0  0  0  0  0  0  0
    2.3947   -1.4221   -0.4538 H   0  0  0  0  0  0  0  0  0  0  0  0
    2.7807    0.1160   -1.2549 H   0  0  0  0  0  0  0  0  0  0  0  0
    1.6516   -0.0698    1.5998 H   0  0  0  0  0  0  0  0  0  0  0  0
    2.1126    1.4143    0.6229 H   0  0  0  0  0  0  0  0  0  0  0  0
    4.4652    1.8905    0.2646 H   0  0  0  0  0  0  0  0  0  0  0  0
    8.7153    0.1995    0.5739 H   0  0  0  0  0  0  0  0  0  0  0  0
    9.0579    1.3308    1.9428 H   0  0  0  0  0  0  0  0  0  0  0  0
    5.6079   -1.9732    3.0478 H   0  0  0  0  0  0  0  0  0  0  0  0
    3.2900   -1.6736    2.3154 H   0  0  0  0  0  0  0  0  0  0  0  0
  1  2  1  0
  2  3  1  0
  3  4  1  0
  4  5  1  0
  5  6  1  0
  6  7  2  0
  7  8  1  0
  8  9  2  0
  9 10  1  0
 10 11  1  0
 10 12  2  0
  8 13  1  0
 13 14  1  0
 14 15  2  0
 15 16  1  0
 16 17  2  0
  1 18  1  0
 18 19  2  0
 18 20  1  0
 20 21  1  0
 21 22  1  0
 22 23  1  0
 23 24  2  0
 24 25  1  0
 25 26  2  0
 26 27  1  0
 27 28  1  0
 28 29  1  0
 26 30  1  0
 30 31  2  0
  5  1  1  0
 12  6  1  0
 17 13  1  0
 31 23  1  0
 29 25  1  0
  1 32  1  1
  2 33  1  0
  2 34  1  0
  3 35  1  0
  3 36  1  0
  4 37  1  0
  4 38  1  0
 11 39  1  0
 11 40  1  0
 11 41  1  0
 12 42  1  0
 14 43  1  0
 15 44  1  0
 17 45  1  0
 20 46  1  0
 21 47  1  0
 21 48  1  0
 22 49  1  0
 22 50  1  0
 24 51  1  0
 28 52  1  0
 28 53  1  0
 30 54  1  0
 31 55  1  0
M  END
$$$$
