@<TRIPOS>MOLECULE
*****
 42 46 0 0 0
SMALL
GASTEIGER

@<TRIPOS>ATOM
      1 C          -0.3231    3.5575   -0.7393 C.3     1  UNL1        0.0322
      2 N           0.0950    2.9511    0.5043 N.ar    1  UNL1       -0.2515
      3 N           0.4570    3.6590    1.5695 N.ar    1  UNL1       -0.1584
      4 C           0.7876    2.8204    2.5565 C.ar    1  UNL1        0.1383
      5 N           0.6213    1.5737    2.0755 N.ar    1  UNL1       -0.2187
      6 C           0.1958    1.6697    0.8147 C.ar    1  UNL1        0.1383
      7 C          -0.1126    0.5298   -0.0861 C.3     1  UNL1        0.0854
      8 C          -1.5388    0.1745    0.0712 C.ar    1  UNL1        0.0835
      9 N          -2.4413    1.0995    0.4452 N.ar    1  UNL1       -0.1745
     10 N          -3.7212    0.7998    0.5771 N.ar    1  UNL1       -0.2424
     11 C          -4.2205   -0.4306    0.3532 C.ar    1  UNL1        0.2726
     12 O          -5.4525   -0.6256    0.5030 O.2     1  UNL1       -0.2658
     13 C          -3.3437   -1.4367   -0.0365 C.ar    1  UNL1        0.0541
     14 C          -3.8195   -2.7095   -0.2767 C.ar    1  UNL1       -0.0133
     15 C          -2.9218   -3.6795   -0.6624 C.ar    1  UNL1        0.1259
     16 F          -3.3238   -4.9438   -0.9126 F       1  UNL1       -0.2054
     17 C          -1.5835   -3.3743   -0.8014 C.ar    1  UNL1       -0.0049
     18 C          -1.1042   -2.0927   -0.5594 C.ar    1  UNL1        0.0401
     19 C          -1.9940   -1.0987   -0.1698 C.ar    1  UNL1        0.0321
     20 N           0.2706   -1.7543   -0.6832 N.pl3   1  UNL1       -0.3354
     21 C           0.7275   -0.6654    0.1726 C.3     1  UNL1        0.0611
     22 C           2.1662   -0.4621   -0.0509 C.ar    1  UNL1       -0.0261
     23 C           2.6838   -0.4291   -1.3265 C.ar    1  UNL1       -0.0541
     24 C           4.0395   -0.2381   -1.5368 C.ar    1  UNL1       -0.0261
     25 C           4.9150   -0.0753   -0.4860 C.ar    1  UNL1        0.1234
     26 F           6.2578    0.1137   -0.6977 F       1  UNL1       -0.2055
     27 C           4.4059   -0.1069    0.7934 C.ar    1  UNL1       -0.0261
     28 C           3.0466   -0.2987    0.9941 C.ar    1  UNL1       -0.0541
     29 H          -1.0508    4.3871   -0.5126 H       1  UNL1        0.0473
     30 H           0.4879    3.9934   -1.3217 H       1  UNL1        0.0473
     31 H          -0.8629    2.8359   -1.3916 H       1  UNL1        0.0473
     32 H           1.1167    3.1520    3.5279 H       1  UNL1        0.1066
     33 H           0.0398    0.8971   -1.1395 H       1  UNL1        0.0466
     34 H          -4.3921    1.5668    0.8749 H       1  UNL1        0.1921
     35 H          -4.8869   -2.9169   -0.1566 H       1  UNL1        0.0654
     36 H          -0.8466   -4.1179   -1.1052 H       1  UNL1        0.0665
     37 H           0.8443   -2.2798   -1.3461 H       1  UNL1        0.1467
     38 H           0.5525   -0.9797    1.2347 H       1  UNL1        0.0558
     39 H           2.0065   -0.5557   -2.1577 H       1  UNL1        0.0622
     40 H           4.4399   -0.2129   -2.5322 H       1  UNL1        0.0646
     41 H           5.1030    0.0223    1.6160 H       1  UNL1        0.0646
     42 H           2.6798   -0.3190    2.0047 H       1  UNL1        0.0622
@<TRIPOS>BOND
     1     1     2    1
     2     2     3   ar
     3     3     4   ar
     4     4     5   ar
     5     5     6   ar
     6     6     7    1
     7     7     8    1
     8     8     9   ar
     9     9    10   ar
    10    10    11   ar
    11    11    12    2
    12    11    13   ar
    13    13    14   ar
    14    14    15   ar
    15    15    16    1
    16    15    17   ar
    17    17    18   ar
    18    18    19   ar
    19    18    20    1
    20    20    21    1
    21    21    22    1
    22    22    23   ar
    23    23    24   ar
    24    24    25   ar
    25    25    26    1
    26    25    27   ar
    27    27    28   ar
    28     6     2   ar
    29    21     7    1
    30    28    22   ar
    31    19     8   ar
    32    19    13   ar
    33     1    29    1
    34     1    30    1
    35     1    31    1
    36     4    32    1
    37     7    33    1
    38    10    34    1
    39    14    35    1
    40    17    36    1
    41    20    37    1
    42    21    38    1
    43    23    39    1
    44    24    40    1
    45    27    41    1
    46    28    42    1
