@<TRIPOS>MOLECULE
*****
 55 58 0 0 0
SMALL
GASTEIGER

@<TRIPOS>ATOM
      1 C           4.3090    0.6200    0.4423 C.3     1  UNL1        0.1587
      2 C           4.0772   -0.8408    0.2630 C.3     1  UNL1        0.0092
      3 C           2.6842   -1.2659    0.1347 C.ar    1  UNL1       -0.0442
      4 C           1.8886   -1.6632    1.2002 C.ar    1  UNL1       -0.0550
      5 C           0.5617   -2.0420    0.9563 C.ar    1  UNL1       -0.0197
      6 C           0.0030   -2.0352   -0.3310 C.ar    1  UNL1        0.1206
      7 O          -1.2861   -2.4488   -0.2542 O.3     1  UNL1       -0.4902
      8 C          -2.2670   -2.6116   -1.1946 C.3     1  UNL1        0.1074
      9 C          -2.6823   -1.3513   -1.8918 C.3     1  UNL1        0.0580
     10 N          -3.2207   -0.4176   -0.9231 N.ar    1  UNL1       -0.3365
     11 C          -2.7666    0.5833   -0.1843 C.ar    1  UNL1        0.0502
     12 C          -3.7138    1.1395    0.6217 C.ar    1  UNL1        0.0076
     13 C          -3.4131    2.1894    1.4473 C.ar    1  UNL1       -0.0520
     14 C          -2.1358    2.7367    1.5038 C.ar    1  UNL1       -0.0611
     15 C          -1.1997    2.1456    0.6699 C.ar    1  UNL1       -0.0598
     16 C          -1.5013    1.0900   -0.1605 C.ar    1  UNL1       -0.0376
     17 C          -4.8687    0.4405    0.3808 C.ar    1  UNL1        0.0076
     18 C          -4.5355   -0.4938   -0.5589 C.ar    1  UNL1        0.0502
     19 C          -5.5903   -1.3238   -0.9497 C.ar    1  UNL1       -0.0376
     20 C          -6.8568   -1.2343   -0.4538 C.ar    1  UNL1       -0.0598
     21 C          -7.1356   -0.2716    0.4933 C.ar    1  UNL1       -0.0611
     22 C          -6.1277    0.5661    0.9063 C.ar    1  UNL1       -0.0520
     23 C           0.8329   -1.6336   -1.3552 C.ar    1  UNL1       -0.0197
     24 C           2.1342   -1.2599   -1.1304 C.ar    1  UNL1       -0.0550
     25 O           5.6995    0.8688    0.5541 O.3     1  UNL1       -0.3653
     26 C           6.0992    1.7638   -0.4576 C.3     1  UNL1        0.0459
     27 C           7.5771    1.9940   -0.2952 C.3     1  UNL1       -0.0415
     28 C           3.6776    1.0670    1.7063 C.2     1  UNL1        0.3342
     29 O           4.2258    1.6095    2.8607 O.3     1  UNL1       -0.4788
     30 O           2.4435    1.0581    2.0413 O.2     1  UNL1       -0.2481
     31 H           3.9952    1.2277   -0.4244 H       1  UNL1        0.0716
     32 H           4.6234   -1.1476   -0.6695 H       1  UNL1        0.0344
     33 H           4.5666   -1.4522    1.0711 H       1  UNL1        0.0344
     34 H           2.3539   -1.6587    2.1609 H       1  UNL1        0.0621
     35 H           0.0751   -2.3263    1.9041 H       1  UNL1        0.0654
     36 H          -3.1535   -3.1044   -0.6918 H       1  UNL1        0.0714
     37 H          -1.9365   -3.3924   -1.9482 H       1  UNL1        0.0714
     38 H          -1.8849   -0.8888   -2.4821 H       1  UNL1        0.0525
     39 H          -3.4974   -1.6388   -2.6232 H       1  UNL1        0.0525
     40 H          -4.1870    2.6012    2.0687 H       1  UNL1        0.0624
     41 H          -1.9292    3.5659    2.1664 H       1  UNL1        0.0618
     42 H          -0.1980    2.5630    0.7037 H       1  UNL1        0.0618
     43 H          -0.7238    0.6987   -0.7779 H       1  UNL1        0.0638
     44 H          -5.4278   -2.0960   -1.6893 H       1  UNL1        0.0638
     45 H          -7.6519   -1.8975   -0.7817 H       1  UNL1        0.0618
     46 H          -8.1344   -0.1694    0.9125 H       1  UNL1        0.0618
     47 H          -6.3209    1.3382    1.6559 H       1  UNL1        0.0624
     48 H           0.3349   -1.6614   -2.3011 H       1  UNL1        0.0654
     49 H           2.6891   -0.9637   -2.0114 H       1  UNL1        0.0621
     50 H           5.4984    2.7018   -0.4068 H       1  UNL1        0.0557
     51 H           5.8607    1.3290   -1.4703 H       1  UNL1        0.0557
     52 H           7.7787    3.0873   -0.1273 H       1  UNL1        0.0252
     53 H           8.0355    1.3922    0.5257 H       1  UNL1        0.0252
     54 H           8.1345    1.7414   -1.2391 H       1  UNL1        0.0252
     55 H           4.1867    1.1718    3.7723 H       1  UNL1        0.2951
@<TRIPOS>BOND
     1     1     2    1
     2     2     3    1
     3     3     4   ar
     4     4     5   ar
     5     5     6   ar
     6     6     7    1
     7     7     8    1
     8     8     9    1
     9     9    10    1
    10    10    11   ar
    11    11    12   ar
    12    12    13   ar
    13    13    14   ar
    14    14    15   ar
    15    15    16   ar
    16    12    17   ar
    17    17    18   ar
    18    18    19   ar
    19    19    20   ar
    20    20    21   ar
    21    21    22   ar
    22     6    23   ar
    23    23    24   ar
    24     1    25    1
    25    25    26    1
    26    26    27    1
    27     1    28    1
    28    28    29    1
    29    28    30    2
    30    24     3   ar
    31    18    10   ar
    32    16    11   ar
    33    22    17   ar
    34     1    31    1
    35     2    32    1
    36     2    33    1
    37     4    34    1
    38     5    35    1
    39     8    36    1
    40     8    37    1
    41     9    38    1
    42     9    39    1
    43    13    40    1
    44    14    41    1
    45    15    42    1
    46    16    43    1
    47    19    44    1
    48    20    45    1
    49    21    46    1
    50    22    47    1
    51    23    48    1
    52    24    49    1
    53    26    50    1
    54    26    51    1
    55    27    52    1
    56    27    53    1
    57    27    54    1
    58    29    55    1
