
     RDKit          3D

 62 67  0  0  0  0  0  0  0  0999 V2000
    8.5677    2.1044   -2.2622 C   0  0  0  0  0  0  0  0  0  0  0  0
    7.7099    1.2026   -1.4242 C   0  0  0  0  0  0  0  0  0  0  0  0
    6.5438    0.6918   -1.9400 C   0  0  0  0  0  0  0  0  0  0  0  0
    5.7125   -0.1455   -1.2117 C   0  0  0  0  0  0  0  0  0  0  0  0
    6.0839   -0.4719    0.0855 C   0  0  0  0  0  0  0  0  0  0  0  0
    5.2937   -1.3000    0.8519 C   0  0  0  0  0  0  0  0  0  0  0  0
    4.0539   -1.8349    0.2767 C   0  0  0  0  0  0  0  0  0  0  0  0
    3.9327   -3.0133   -0.4177 C   0  0  0  0  0  0  0  0  0  0  0  0
    2.6542   -3.1470   -0.7719 N   0  0  0  0  0  0  0  0  0  0  0  0
    1.9916   -2.1032   -0.3245 N   0  0  0  0  0  0  0  0  0  0  0  0
    0.6717   -1.7647   -0.4203 C   0  0  0  0  0  0  0  0  0  0  0  0
    0.1533   -0.6091    0.1215 C   0  0  0  0  0  0  0  0  0  0  0  0
   -1.2485   -0.2727    0.0067 C   0  0  0  0  0  0  0  0  0  0  0  0
   -2.2131   -1.2509   -0.0298 C   0  0  0  0  0  0  0  0  0  0  0  0
   -3.5655   -0.9303   -0.1424 C   0  0  0  0  0  0  0  0  0  0  0  0
   -3.9745    0.4036   -0.2217 C   0  0  0  0  0  0  0  0  0  0  0  0
   -5.3346    0.7384   -0.3631 N   0  0  0  0  0  0  0  0  0  0  0  0
   -6.1587    0.1561   -1.3979 C   0  0  1  0  0  0  0  0  0  0  0  0
   -5.4554   -0.7663   -2.3266 C   0  0  0  0  0  0  0  0  0  0  0  0
   -7.4158   -0.4573   -0.7963 C   0  0  0  0  0  0  0  0  0  0  0  0
   -8.0717    0.5815   -0.0165 N   0  0  0  0  0  0  0  0  0  0  0  0
   -7.2400    0.9905    1.0789 C   0  0  0  0  0  0  0  0  0  0  0  0
   -5.9765    1.6605    0.5318 C   0  0  1  0  0  0  0  0  0  0  0  0
   -5.1310    2.1743    1.6483 C   0  0  0  0  0  0  0  0  0  0  0  0
   -3.0023    1.3762   -0.1846 C   0  0  0  0  0  0  0  0  0  0  0  0
   -1.6627    1.0224   -0.0716 C   0  0  0  0  0  0  0  0  0  0  0  0
    1.0519    0.2255    0.7903 C   0  0  0  0  0  0  0  0  0  0  0  0
    2.3516   -0.1034    0.8872 N   0  0  0  0  0  0  0  0  0  0  0  0
    2.8043   -1.2642    0.3281 C   0  0  0  0  0  0  0  0  0  0  0  0
    5.7260   -1.5797    2.1295 C   0  0  0  0  0  0  0  0  0  0  0  0
    6.9112   -1.0498    2.6290 C   0  0  0  0  0  0  0  0  0  0  0  0
    7.6993   -0.2227    1.8618 C   0  0  0  0  0  0  0  0  0  0  0  0
    7.2726    0.0612    0.5826 C   0  0  0  0  0  0  0  0  0  0  0  0
    8.0571    0.8785   -0.1676 N   0  0  0  0  0  0  0  0  0  0  0  0
    8.6560    3.0976   -1.7431 H   0  0  0  0  0  0  0  0  0  0  0  0
    8.1987    2.1873   -3.2832 H   0  0  0  0  0  0  0  0  0  0  0  0
    9.5779    1.6492   -2.2924 H   0  0  0  0  0  0  0  0  0  0  0  0
    6.2122    0.9170   -2.9451 H   0  0  0  0  0  0  0  0  0  0  0  0
    4.7917   -0.5591   -1.5953 H   0  0  0  0  0  0  0  0  0  0  0  0
    4.7472   -3.7322   -0.6478 H   0  0  0  0  0  0  0  0  0  0  0  0
   -0.0064   -2.4259   -0.9429 H   0  0  0  0  0  0  0  0  0  0  0  0
   -1.9529   -2.2946    0.0278 H   0  0  0  0  0  0  0  0  0  0  0  0
   -4.3341   -1.6817   -0.1688 H   0  0  0  0  0  0  0  0  0  0  0  0
   -6.5551    1.0497   -1.9793 H   0  0  0  0  0  0  0  0  0  0  0  0
   -5.8760   -0.5788   -3.3553 H   0  0  0  0  0  0  0  0  0  0  0  0
   -5.6683   -1.8564   -2.1283 H   0  0  0  0  0  0  0  0  0  0  0  0
   -4.3923   -0.5337   -2.4070 H   0  0  0  0  0  0  0  0  0  0  0  0
   -7.2091   -1.3351   -0.1780 H   0  0  0  0  0  0  0  0  0  0  0  0
   -8.0908   -0.6918   -1.6437 H   0  0  0  0  0  0  0  0  0  0  0  0
   -8.2434    1.4007   -0.6331 H   0  0  0  0  0  0  0  0  0  0  0  0
   -7.0020    0.1567    1.7483 H   0  0  0  0  0  0  0  0  0  0  0  0
   -7.7999    1.7679    1.6607 H   0  0  0  0  0  0  0  0  0  0  0  0
   -6.3723    2.4925   -0.1216 H   0  0  0  0  0  0  0  0  0  0  0  0
   -4.3029    1.4752    1.8539 H   0  0  0  0  0  0  0  0  0  0  0  0
   -5.7388    2.2697    2.6060 H   0  0  0  0  0  0  0  0  0  0  0  0
   -4.7954    3.2107    1.3862 H   0  0  0  0  0  0  0  0  0  0  0  0
   -3.3050    2.4049   -0.2514 H   0  0  0  0  0  0  0  0  0  0  0  0
   -0.9264    1.8151   -0.0452 H   0  0  0  0  0  0  0  0  0  0  0  0
    0.6269    1.1190    1.2043 H   0  0  0  0  0  0  0  0  0  0  0  0
    5.1044   -2.2270    2.7236 H   0  0  0  0  0  0  0  0  0  0  0  0
    7.2280   -1.2794    3.6225 H   0  0  0  0  0  0  0  0  0  0  0  0
    8.6357    0.2017    2.2430 H   0  0  0  0  0  0  0  0  0  0  0  0
  1  2  1  0
  2  3  2  0
  3  4  1  0
  4  5  2  0
  5  6  1  0
  6  7  1  0
  7  8  1  0
  8  9  2  0
  9 10  1  0
 10 11  1  0
 11 12  2  0
 12 13  1  0
 13 14  2  0
 14 15  1  0
 15 16  2  0
 16 17  1  0
 17 18  1  0
 18 19  1  0
 18 20  1  0
 20 21  1  0
 21 22  1  0
 22 23  1  0
 23 24  1  0
 16 25  1  0
 25 26  2  0
 12 27  1  0
 27 28  2  0
 28 29  1  0
  6 30  2  0
 30 31  1  0
 31 32  2  0
 32 33  1  0
 33 34  2  0
 34  2  1  0
 33  5  1  0
 29  7  2  0
 29 10  1  0
 26 13  1  0
 23 17  1  0
  1 35  1  0
  1 36  1  0
  1 37  1  0
  3 38  1  0
  4 39  1  0
  8 40  1  0
 11 41  1  0
 14 42  1  0
 15 43  1  0
 18 44  1  6
 19 45  1  0
 19 46  1  0
 19 47  1  0
 20 48  1  0
 20 49  1  0
 21 50  1  0
 22 51  1  0
 22 52  1  0
 23 53  1  6
 24 54  1  0
 24 55  1  0
 24 56  1  0
 25 57  1  0
 26 58  1  0
 27 59  1  0
 30 60  1  0
 31 61  1  0
 32 62  1  0
M  END
$$$$
