@<TRIPOS>MOLECULE
*****
 62 67 0 0 0
SMALL
GASTEIGER

@<TRIPOS>ATOM
      1 C           8.5677    2.1044   -2.2622 C.3     1  UNL1       -0.0223
      2 C           7.7099    1.2026   -1.4242 C.ar    1  UNL1        0.0389
      3 C           6.5438    0.6918   -1.9400 C.ar    1  UNL1       -0.0400
      4 C           5.7125   -0.1455   -1.2117 C.ar    1  UNL1       -0.0503
      5 C           6.0839   -0.4719    0.0855 C.ar    1  UNL1        0.0083
      6 C           5.2937   -1.3000    0.8519 C.ar    1  UNL1       -0.0037
      7 C           4.0539   -1.8349    0.2767 C.ar    1  UNL1        0.0466
      8 C           3.9327   -3.0133   -0.4177 C.ar    1  UNL1        0.0597
      9 N           2.6542   -3.1470   -0.7719 N.ar    1  UNL1       -0.1727
     10 N           1.9916   -2.1032   -0.3245 N.ar    1  UNL1       -0.2206
     11 C           0.6717   -1.7647   -0.4203 C.ar    1  UNL1        0.0406
     12 C           0.1533   -0.6091    0.1215 C.ar    1  UNL1        0.0184
     13 C          -1.2485   -0.2727    0.0067 C.ar    1  UNL1       -0.0149
     14 C          -2.2131   -1.2509   -0.0298 C.ar    1  UNL1       -0.0522
     15 C          -3.5655   -0.9303   -0.1424 C.ar    1  UNL1       -0.0401
     16 C          -3.9745    0.4036   -0.2217 C.ar    1  UNL1        0.0303
     17 N          -5.3346    0.7384   -0.3631 N.pl3   1  UNL1       -0.3219
     18 C          -6.1587    0.1561   -1.3979 C.3     1  UNL1        0.0335
     19 C          -5.4554   -0.7663   -2.3266 C.3     1  UNL1       -0.0453
     20 C          -7.4158   -0.4573   -0.7963 C.3     1  UNL1        0.0143
     21 N          -8.0717    0.5815   -0.0165 N.3     1  UNL1       -0.3125
     22 C          -7.2400    0.9905    1.0789 C.3     1  UNL1        0.0143
     23 C          -5.9765    1.6605    0.5318 C.3     1  UNL1        0.0335
     24 C          -5.1310    2.1743    1.6483 C.3     1  UNL1       -0.0453
     25 C          -3.0023    1.3762   -0.1846 C.ar    1  UNL1       -0.0401
     26 C          -1.6627    1.0224   -0.0716 C.ar    1  UNL1       -0.0522
     27 C           1.0519    0.2255    0.7903 C.ar    1  UNL1        0.0391
     28 N           2.3516   -0.1034    0.8872 N.ar    1  UNL1       -0.2350
     29 C           2.8043   -1.2642    0.3281 C.ar    1  UNL1        0.1632
     30 C           5.7260   -1.5797    2.1295 C.ar    1  UNL1       -0.0532
     31 C           6.9112   -1.0498    2.6290 C.ar    1  UNL1       -0.0591
     32 C           7.6993   -0.2227    1.8618 C.ar    1  UNL1       -0.0357
     33 C           7.2726    0.0612    0.5826 C.ar    1  UNL1        0.0718
     34 N           8.0571    0.8785   -0.1676 N.ar    1  UNL1       -0.2519
     35 H           8.6560    3.0976   -1.7431 H       1  UNL1        0.0292
     36 H           8.1987    2.1873   -3.2832 H       1  UNL1        0.0292
     37 H           9.5779    1.6492   -2.2924 H       1  UNL1        0.0292
     38 H           6.2122    0.9170   -2.9451 H       1  UNL1        0.0636
     39 H           4.7917   -0.5591   -1.5953 H       1  UNL1        0.0625
     40 H           4.7472   -3.7322   -0.6478 H       1  UNL1        0.0855
     41 H          -0.0064   -2.4259   -0.9429 H       1  UNL1        0.0837
     42 H          -1.9529   -2.2946    0.0278 H       1  UNL1        0.0624
     43 H          -4.3341   -1.6817   -0.1688 H       1  UNL1        0.0636
     44 H          -6.5551    1.0497   -1.9793 H       1  UNL1        0.0509
     45 H          -5.8760   -0.5788   -3.3553 H       1  UNL1        0.0248
     46 H          -5.6683   -1.8564   -2.1283 H       1  UNL1        0.0248
     47 H          -4.3923   -0.5337   -2.4070 H       1  UNL1        0.0248
     48 H          -7.2091   -1.3351   -0.1780 H       1  UNL1        0.0442
     49 H          -8.0908   -0.6918   -1.6437 H       1  UNL1        0.0442
     50 H          -8.2434    1.4007   -0.6331 H       1  UNL1        0.1221
     51 H          -7.0020    0.1567    1.7483 H       1  UNL1        0.0442
     52 H          -7.7999    1.7679    1.6607 H       1  UNL1        0.0442
     53 H          -6.3723    2.4925   -0.1216 H       1  UNL1        0.0509
     54 H          -4.3029    1.4752    1.8539 H       1  UNL1        0.0248
     55 H          -5.7388    2.2697    2.6060 H       1  UNL1        0.0248
     56 H          -4.7954    3.2107    1.3862 H       1  UNL1        0.0248
     57 H          -3.3050    2.4049   -0.2514 H       1  UNL1        0.0636
     58 H          -0.9264    1.8151   -0.0452 H       1  UNL1        0.0624
     59 H           0.6269    1.1190    1.2043 H       1  UNL1        0.0837
     60 H           5.1044   -2.2270    2.7236 H       1  UNL1        0.0624
     61 H           7.2280   -1.2794    3.6225 H       1  UNL1        0.0618
     62 H           8.6357    0.2017    2.2430 H       1  UNL1        0.0639
@<TRIPOS>BOND
     1     1     2    1
     2     2     3   ar
     3     3     4   ar
     4     4     5   ar
     5     5     6   ar
     6     6     7    1
     7     7     8   ar
     8     8     9   ar
     9     9    10   ar
    10    10    11   ar
    11    11    12   ar
    12    12    13    1
    13    13    14   ar
    14    14    15   ar
    15    15    16   ar
    16    16    17    1
    17    17    18    1
    18    18    19    1
    19    18    20    1
    20    20    21    1
    21    21    22    1
    22    22    23    1
    23    23    24    1
    24    16    25   ar
    25    25    26   ar
    26    12    27   ar
    27    27    28   ar
    28    28    29   ar
    29     6    30   ar
    30    30    31   ar
    31    31    32   ar
    32    32    33   ar
    33    33    34   ar
    34    34     2   ar
    35    33     5   ar
    36    29     7   ar
    37    29    10   ar
    38    26    13   ar
    39    23    17    1
    40     1    35    1
    41     1    36    1
    42     1    37    1
    43     3    38    1
    44     4    39    1
    45     8    40    1
    46    11    41    1
    47    14    42    1
    48    15    43    1
    49    18    44    1
    50    19    45    1
    51    19    46    1
    52    19    47    1
    53    20    48    1
    54    20    49    1
    55    21    50    1
    56    22    51    1
    57    22    52    1
    58    23    53    1
    59    24    54    1
    60    24    55    1
    61    24    56    1
    62    25    57    1
    63    26    58    1
    64    27    59    1
    65    30    60    1
    66    31    61    1
    67    32    62    1
