@<TRIPOS>MOLECULE
*****
 52 54 0 0 0
SMALL
GASTEIGER

@<TRIPOS>ATOM
      1 N           8.1234   -0.4634    3.5617 N.pl3   1  UNL1       -0.3375
      2 C           7.7344   -0.5205    2.2224 C.ar    1  UNL1        0.1557
      3 N           6.7750   -1.0090    1.6092 N.ar    1  UNL1       -0.2296
      4 C           6.6708   -0.9008    0.2966 C.ar    1  UNL1        0.0593
      5 C           5.4771   -1.5202   -0.3829 C.3     1  UNL1        0.0671
      6 C           4.3926   -0.5396   -0.4262 C.2     1  UNL1        0.2230
      7 O           4.6390    0.5778    0.0889 O.2     1  UNL1       -0.2751
      8 N           3.1126   -0.7453   -0.9913 N.am    1  UNL1       -0.2852
      9 C           1.9968    0.1155   -1.0892 C.ar    1  UNL1        0.0334
     10 C           0.8641   -0.3506   -1.7142 C.ar    1  UNL1       -0.0402
     11 C          -0.2534    0.4441   -1.8348 C.ar    1  UNL1       -0.0568
     12 C          -0.3065    1.7304   -1.3470 C.ar    1  UNL1       -0.0460
     13 C          -1.5037    2.6235   -1.4575 C.3     1  UNL1       -0.0151
     14 C          -2.4163    2.4546   -0.2684 C.3     1  UNL1       -0.0000
     15 N          -2.9085    1.1074   -0.1347 N.3     1  UNL1       -0.3129
     16 C          -3.8099    0.7063   -1.1552 C.3     1  UNL1        0.0261
     17 C          -4.2398   -0.7181   -0.9200 C.3     1  UNL1        0.0926
     18 O          -5.1263   -1.0926   -1.9570 O.3     1  UNL1       -0.3859
     19 C          -4.9105   -0.9724    0.3496 C.ar    1  UNL1       -0.0179
     20 C          -5.0686   -0.2356    1.4868 C.ar    1  UNL1       -0.0561
     21 C          -5.7525   -0.6878    2.5944 C.ar    1  UNL1       -0.0614
     22 C          -6.3240   -1.9418    2.6021 C.ar    1  UNL1       -0.0617
     23 C          -6.1862   -2.7164    1.4721 C.ar    1  UNL1       -0.0614
     24 C          -5.4978   -2.2427    0.3768 C.ar    1  UNL1       -0.0561
     25 C           0.8273    2.2396   -0.7044 C.ar    1  UNL1       -0.0568
     26 C           1.9156    1.4001   -0.6130 C.ar    1  UNL1       -0.0402
     27 C           7.6348   -0.2305   -0.4714 C.ar    1  UNL1        0.0007
     28 S           8.7831    0.2811    0.8267 S.2     1  UNL1       -0.0608
     29 H           8.5589   -1.3066    3.9686 H       1  UNL1        0.1442
     30 H           7.9803    0.4022    4.1359 H       1  UNL1        0.1442
     31 H           5.1106   -2.4168    0.1184 H       1  UNL1        0.0423
     32 H           5.7419   -1.8415   -1.4280 H       1  UNL1        0.0423
     33 H           3.0453   -1.7190   -1.3862 H       1  UNL1        0.1548
     34 H           0.8484   -1.3478   -2.1152 H       1  UNL1        0.0636
     35 H          -1.1214    0.0425   -2.3317 H       1  UNL1        0.0621
     36 H          -2.0489    2.4639   -2.4084 H       1  UNL1        0.0325
     37 H          -1.1822    3.6857   -1.4689 H       1  UNL1        0.0325
     38 H          -3.2876    3.1232   -0.4108 H       1  UNL1        0.0427
     39 H          -1.8870    2.7786    0.6394 H       1  UNL1        0.0427
     40 H          -2.2010    0.4132    0.1444 H       1  UNL1        0.1220
     41 H          -4.7432    1.3292   -1.0661 H       1  UNL1        0.0453
     42 H          -3.4118    0.7385   -2.1902 H       1  UNL1        0.0453
     43 H          -3.3245   -1.3384   -1.0717 H       1  UNL1        0.0656
     44 H          -4.6129   -1.4409   -2.7348 H       1  UNL1        0.2103
     45 H          -4.6101    0.7326    1.4329 H       1  UNL1        0.0621
     46 H          -5.7967    0.0104    3.4277 H       1  UNL1        0.0618
     47 H          -6.8349   -2.1914    3.5225 H       1  UNL1        0.0618
     48 H          -6.6509   -3.6872    1.5283 H       1  UNL1        0.0618
     49 H          -5.4776   -2.9778   -0.4377 H       1  UNL1        0.0621
     50 H           0.8340    3.2442   -0.3056 H       1  UNL1        0.0621
     51 H           2.7633    1.8343   -0.1111 H       1  UNL1        0.0636
     52 H           7.6654   -0.0824   -1.4719 H       1  UNL1        0.0712
@<TRIPOS>BOND
     1     1     2    1
     2     2     3   ar
     3     3     4   ar
     4     4     5    1
     5     5     6    1
     6     6     7    2
     7     6     8   am
     8     8     9    1
     9     9    10   ar
    10    10    11   ar
    11    11    12   ar
    12    12    13    1
    13    13    14    1
    14    14    15    1
    15    15    16    1
    16    16    17    1
    17    17    18    1
    18    17    19    1
    19    19    20   ar
    20    20    21   ar
    21    21    22   ar
    22    22    23   ar
    23    23    24   ar
    24    12    25   ar
    25    25    26   ar
    26     4    27   ar
    27    27    28   ar
    28    28     2   ar
    29    26     9   ar
    30    24    19   ar
    31     1    29    1
    32     1    30    1
    33     5    31    1
    34     5    32    1
    35     8    33    1
    36    10    34    1
    37    11    35    1
    38    13    36    1
    39    13    37    1
    40    14    38    1
    41    14    39    1
    42    15    40    1
    43    16    41    1
    44    16    42    1
    45    17    43    1
    46    18    44    1
    47    20    45    1
    48    21    46    1
    49    22    47    1
    50    23    48    1
    51    24    49    1
    52    25    50    1
    53    26    51    1
    54    27    52    1
