@<TRIPOS>MOLECULE
*****
 49 50 0 0 0
SMALL
GASTEIGER

@<TRIPOS>ATOM
      1 C           7.2192   -0.4509    2.0701 C.3     1  UNL1        0.0788
      2 O           6.4094   -1.1682    1.1843 O.3     1  UNL1       -0.4951
      3 C           5.3980   -0.6224    0.4044 C.ar    1  UNL1        0.1201
      4 C           5.0678    0.7172    0.4126 C.ar    1  UNL1       -0.0197
      5 C           4.0523    1.1781   -0.3912 C.ar    1  UNL1       -0.0551
      6 C           3.3160    0.3785   -1.2306 C.ar    1  UNL1       -0.0457
      7 C           2.2150    0.8501   -2.1111 C.3     1  UNL1       -0.0125
      8 C           0.9307    0.7367   -1.2797 C.3     1  UNL1        0.0089
      9 C           1.1093    1.6057   -0.0853 C.3     1  UNL1       -0.0494
     10 N          -0.2352    0.9736   -2.0421 N.3     1  UNL1       -0.3104
     11 C          -1.4943    0.8871   -1.3848 C.3     1  UNL1        0.0264
     12 C          -1.8249   -0.5482   -0.9613 C.3     1  UNL1        0.0927
     13 O          -1.8537   -1.3486   -2.1057 O.3     1  UNL1       -0.3859
     14 C          -3.1314   -0.5915   -0.2473 C.ar    1  UNL1       -0.0160
     15 C          -3.4306   -0.7336    1.0889 C.ar    1  UNL1       -0.0312
     16 C          -4.7524   -0.7393    1.4635 C.ar    1  UNL1        0.0755
     17 N          -4.9924   -0.8903    2.8575 N.am    1  UNL1       -0.2852
     18 C          -5.0861    0.2602    3.7149 C.2     1  UNL1        0.2042
     19 O          -4.9740    1.4539    3.3546 O.2     1  UNL1       -0.2792
     20 C          -5.7930   -0.6112    0.5807 C.ar    1  UNL1        0.1380
     21 O          -7.0993   -0.6275    1.0432 O.3     1  UNL1       -0.5049
     22 C          -5.4996   -0.4685   -0.7595 C.ar    1  UNL1       -0.0180
     23 C          -4.1692   -0.4583   -1.1755 C.ar    1  UNL1       -0.0525
     24 C           3.6584   -0.9715   -1.2301 C.ar    1  UNL1       -0.0551
     25 C           4.6891   -1.4653   -0.4202 C.ar    1  UNL1       -0.0197
     26 H           6.7848   -0.3570    3.0832 H       1  UNL1        0.0660
     27 H           8.1914   -0.9831    2.1334 H       1  UNL1        0.0660
     28 H           7.4534    0.5717    1.6698 H       1  UNL1        0.0660
     29 H           5.6155    1.3975    1.0583 H       1  UNL1        0.0654
     30 H           3.8305    2.2154   -0.3556 H       1  UNL1        0.0621
     31 H           2.4019    1.9064   -2.3756 H       1  UNL1        0.0328
     32 H           2.1034    0.1782   -2.9878 H       1  UNL1        0.0328
     33 H           0.9218   -0.3333   -0.9392 H       1  UNL1        0.0461
     34 H           0.1856    1.7590    0.5062 H       1  UNL1        0.0245
     35 H           1.8057    1.0824    0.6171 H       1  UNL1        0.0245
     36 H           1.4639    2.6092   -0.3927 H       1  UNL1        0.0245
     37 H          -0.1975    0.5014   -2.9626 H       1  UNL1        0.1223
     38 H          -1.6511    1.6061   -0.5826 H       1  UNL1        0.0453
     39 H          -2.2702    1.1245   -2.1574 H       1  UNL1        0.0453
     40 H          -1.0605   -0.9771   -0.2866 H       1  UNL1        0.0656
     41 H          -2.1685   -0.8626   -2.8953 H       1  UNL1        0.2103
     42 H          -2.5504   -0.8248    1.6804 H       1  UNL1        0.0641
     43 H          -5.1068   -1.8457    3.2984 H       1  UNL1        0.1546
     44 H          -5.2688    0.0871    4.7598 H       1  UNL1        0.1255
     45 H          -7.8297   -0.8109    0.3465 H       1  UNL1        0.2922
     46 H          -6.3508   -0.3716   -1.4217 H       1  UNL1        0.0655
     47 H          -4.1005   -0.3389   -2.2480 H       1  UNL1        0.0622
     48 H           3.1278   -1.6714   -1.8629 H       1  UNL1        0.0621
     49 H           4.9400   -2.5287   -0.4355 H       1  UNL1        0.0654
@<TRIPOS>BOND
     1     1     2    1
     2     2     3    1
     3     3     4   ar
     4     4     5   ar
     5     5     6   ar
     6     6     7    1
     7     7     8    1
     8     8     9    1
     9     8    10    1
    10    10    11    1
    11    11    12    1
    12    12    13    1
    13    12    14    1
    14    14    15   ar
    15    15    16   ar
    16    16    17    1
    17    17    18   am
    18    18    19    2
    19    16    20   ar
    20    20    21    1
    21    20    22   ar
    22    22    23   ar
    23     6    24   ar
    24    24    25   ar
    25    25     3   ar
    26    23    14   ar
    27     1    26    1
    28     1    27    1
    29     1    28    1
    30     4    29    1
    31     5    30    1
    32     7    31    1
    33     7    32    1
    34     8    33    1
    35     9    34    1
    36     9    35    1
    37     9    36    1
    38    10    37    1
    39    11    38    1
    40    11    39    1
    41    12    40    1
    42    13    41    1
    43    15    42    1
    44    17    43    1
    45    18    44    1
    46    21    45    1
    47    22    46    1
    48    23    47    1
    49    24    48    1
    50    25    49    1
