
     RDKit          3D

 49 50  0  0  0  0  0  0  0  0999 V2000
    7.2192   -0.4509    2.0701 C   0  0  0  0  0  0  0  0  0  0  0  0
    6.4094   -1.1682    1.1843 O   0  0  0  0  0  0  0  0  0  0  0  0
    5.3980   -0.6224    0.4044 C   0  0  0  0  0  0  0  0  0  0  0  0
    5.0678    0.7172    0.4126 C   0  0  0  0  0  0  0  0  0  0  0  0
    4.0523    1.1781   -0.3912 C   0  0  0  0  0  0  0  0  0  0  0  0
    3.3160    0.3785   -1.2306 C   0  0  0  0  0  0  0  0  0  0  0  0
    2.2150    0.8501   -2.1111 C   0  0  0  0  0  0  0  0  0  0  0  0
    0.9307    0.7367   -1.2797 C   0  0  1  0  0  0  0  0  0  0  0  0
    1.1093    1.6057   -0.0853 C   0  0  0  0  0  0  0  0  0  0  0  0
   -0.2352    0.9736   -2.0421 N   0  0  0  0  0  0  0  0  0  0  0  0
   -1.4943    0.8871   -1.3848 C   0  0  0  0  0  0  0  0  0  0  0  0
   -1.8249   -0.5482   -0.9613 C   0  0  2  0  0  0  0  0  0  0  0  0
   -1.8537   -1.3486   -2.1057 O   0  0  0  0  0  0  0  0  0  0  0  0
   -3.1314   -0.5915   -0.2473 C   0  0  0  0  0  0  0  0  0  0  0  0
   -3.4306   -0.7336    1.0889 C   0  0  0  0  0  0  0  0  0  0  0  0
   -4.7524   -0.7393    1.4635 C   0  0  0  0  0  0  0  0  0  0  0  0
   -4.9924   -0.8903    2.8575 N   0  0  0  0  0  0  0  0  0  0  0  0
   -5.0861    0.2602    3.7149 C   0  0  0  0  0  0  0  0  0  0  0  0
   -4.9740    1.4539    3.3546 O   0  0  0  0  0  0  0  0  0  0  0  0
   -5.7930   -0.6112    0.5807 C   0  0  0  0  0  0  0  0  0  0  0  0
   -7.0993   -0.6275    1.0432 O   0  0  0  0  0  0  0  0  0  0  0  0
   -5.4996   -0.4685   -0.7595 C   0  0  0  0  0  0  0  0  0  0  0  0
   -4.1692   -0.4583   -1.1755 C   0  0  0  0  0  0  0  0  0  0  0  0
    3.6584   -0.9715   -1.2301 C   0  0  0  0  0  0  0  0  0  0  0  0
    4.6891   -1.4653   -0.4202 C   0  0  0  0  0  0  0  0  0  0  0  0
    6.7848   -0.3570    3.0832 H   0  0  0  0  0  0  0  0  0  0  0  0
    8.1914   -0.9831    2.1334 H   0  0  0  0  0  0  0  0  0  0  0  0
    7.4534    0.5717    1.6698 H   0  0  0  0  0  0  0  0  0  0  0  0
    5.6155    1.3975    1.0583 H   0  0  0  0  0  0  0  0  0  0  0  0
    3.8305    2.2154   -0.3556 H   0  0  0  0  0  0  0  0  0  0  0  0
    2.4019    1.9064   -2.3756 H   0  0  0  0  0  0  0  0  0  0  0  0
    2.1034    0.1782   -2.9878 H   0  0  0  0  0  0  0  0  0  0  0  0
    0.9218   -0.3333   -0.9392 H   0  0  0  0  0  0  0  0  0  0  0  0
    0.1856    1.7590    0.5062 H   0  0  0  0  0  0  0  0  0  0  0  0
    1.8057    1.0824    0.6171 H   0  0  0  0  0  0  0  0  0  0  0  0
    1.4639    2.6092   -0.3927 H   0  0  0  0  0  0  0  0  0  0  0  0
   -0.1975    0.5014   -2.9626 H   0  0  0  0  0  0  0  0  0  0  0  0
   -1.6511    1.6061   -0.5826 H   0  0  0  0  0  0  0  0  0  0  0  0
   -2.2702    1.1245   -2.1574 H   0  0  0  0  0  0  0  0  0  0  0  0
   -1.0605   -0.9771   -0.2866 H   0  0  0  0  0  0  0  0  0  0  0  0
   -2.1685   -0.8626   -2.8953 H   0  0  0  0  0  0  0  0  0  0  0  0
   -2.5504   -0.8248    1.6804 H   0  0  0  0  0  0  0  0  0  0  0  0
   -5.1068   -1.8457    3.2984 H   0  0  0  0  0  0  0  0  0  0  0  0
   -5.2688    0.0871    4.7598 H   0  0  0  0  0  0  0  0  0  0  0  0
   -7.8297   -0.8109    0.3465 H   0  0  0  0  0  0  0  0  0  0  0  0
   -6.3508   -0.3716   -1.4217 H   0  0  0  0  0  0  0  0  0  0  0  0
   -4.1005   -0.3389   -2.2480 H   0  0  0  0  0  0  0  0  0  0  0  0
    3.1278   -1.6714   -1.8629 H   0  0  0  0  0  0  0  0  0  0  0  0
    4.9400   -2.5287   -0.4355 H   0  0  0  0  0  0  0  0  0  0  0  0
  1  2  1  0
  2  3  1  0
  3  4  2  0
  4  5  1  0
  5  6  2  0
  6  7  1  0
  7  8  1  0
  8  9  1  0
  8 10  1  0
 10 11  1  0
 11 12  1  0
 12 13  1  0
 12 14  1  0
 14 15  2  0
 15 16  1  0
 16 17  1  0
 17 18  1  0
 18 19  2  0
 16 20  2  0
 20 21  1  0
 20 22  1  0
 22 23  2  0
  6 24  1  0
 24 25  2  0
 25  3  1  0
 23 14  1  0
  1 26  1  0
  1 27  1  0
  1 28  1  0
  4 29  1  0
  5 30  1  0
  7 31  1  0
  7 32  1  0
  8 33  1  1
  9 34  1  0
  9 35  1  0
  9 36  1  0
 10 37  1  0
 11 38  1  0
 11 39  1  0
 12 40  1  1
 13 41  1  0
 15 42  1  0
 17 43  1  0
 18 44  1  0
 21 45  1  0
 22 46  1  0
 23 47  1  0
 24 48  1  0
 25 49  1  0
M  END
$$$$
