@<TRIPOS>MOLECULE
*****
 50 53 0 0 0
SMALL
GASTEIGER

@<TRIPOS>ATOM
      1 C          -7.6932   -0.8217    1.7561 C.3     1  UNL1        0.0309
      2 N          -7.9640    0.0379    0.6370 N.ar    1  UNL1       -0.2668
      3 N          -9.1926    0.4429    0.2962 N.ar    1  UNL1       -0.1793
      4 C          -9.1219    1.2343   -0.7867 C.ar    1  UNL1        0.0500
      5 C          -7.7877    1.3139   -1.1194 C.ar    1  UNL1       -0.0163
      6 C          -7.0868    0.5545   -0.2101 C.ar    1  UNL1        0.0686
      7 C          -5.6495    0.3449   -0.1673 C.ar    1  UNL1        0.0002
      8 C          -5.1321   -0.9226    0.0314 C.ar    1  UNL1       -0.0491
      9 C          -3.7607   -1.0898    0.0678 C.ar    1  UNL1       -0.0193
     10 C          -2.8885   -0.0447   -0.0859 C.ar    1  UNL1        0.1212
     11 O          -1.5252   -0.2462   -0.0442 O.3     1  UNL1       -0.4828
     12 C          -1.0128   -1.5335    0.1581 C.3     1  UNL1        0.1655
     13 C           0.4862   -1.4834    0.1608 C.2     1  UNL1        0.2548
     14 O           1.1315   -2.5446    0.3294 O.2     1  UNL1       -0.2717
     15 N           1.2023   -0.2849   -0.0197 N.am    1  UNL1       -0.2827
     16 C           2.6246   -0.1819   -0.0258 C.ar    1  UNL1        0.0335
     17 C           3.3339    0.0536    1.1363 C.ar    1  UNL1       -0.0399
     18 C           4.7039    0.1428    1.0647 C.ar    1  UNL1       -0.0523
     19 C           5.4178    0.0100   -0.1074 C.ar    1  UNL1       -0.0178
     20 C           6.8689    0.1077   -0.1658 C.ar    1  UNL1       -0.0179
     21 C           7.5466    0.9302    0.7019 C.ar    1  UNL1       -0.0540
     22 C           8.9332    1.0160    0.6380 C.ar    1  UNL1       -0.0612
     23 C           9.6693    0.2974   -0.2759 C.ar    1  UNL1       -0.0617
     24 C           8.9826   -0.5332   -1.1520 C.ar    1  UNL1       -0.0612
     25 C           7.5935   -0.6176   -1.0862 C.ar    1  UNL1       -0.0540
     26 C           4.6917   -0.2246   -1.2558 C.ar    1  UNL1       -0.0523
     27 C           3.3163   -0.3211   -1.2283 C.ar    1  UNL1       -0.0399
     28 C          -3.3892    1.2377   -0.2868 C.ar    1  UNL1       -0.0193
     29 C          -4.7477    1.3872   -0.3204 C.ar    1  UNL1       -0.0491
     30 H          -8.4089   -0.5894    2.5932 H       1  UNL1        0.0473
     31 H          -6.6357   -0.6842    2.1028 H       1  UNL1        0.0473
     32 H          -7.8229   -1.8875    1.5408 H       1  UNL1        0.0473
     33 H          -9.9547    1.7071   -1.2859 H       1  UNL1        0.0848
     34 H          -7.4117    1.8870   -1.9584 H       1  UNL1        0.0654
     35 H          -5.7688   -1.7862    0.1586 H       1  UNL1        0.0625
     36 H          -3.3890   -2.1108    0.2275 H       1  UNL1        0.0654
     37 H          -1.3146   -1.8972    1.1622 H       1  UNL1        0.0795
     38 H          -1.3859   -2.2676   -0.5805 H       1  UNL1        0.0795
     39 H           0.6574    0.5966   -0.1600 H       1  UNL1        0.1549
     40 H           2.7768    0.1604    2.0719 H       1  UNL1        0.0636
     41 H           5.2785    0.3273    1.9669 H       1  UNL1        0.0624
     42 H           6.9700    1.4944    1.4194 H       1  UNL1        0.0624
     43 H           9.4524    1.6671    1.3268 H       1  UNL1        0.0618
     44 H          10.7511    0.3416   -0.3521 H       1  UNL1        0.0618
     45 H           9.5336   -1.1015   -1.8713 H       1  UNL1        0.0618
     46 H           7.0331   -1.2547   -1.7541 H       1  UNL1        0.0624
     47 H           5.1660   -0.3425   -2.2222 H       1  UNL1        0.0624
     48 H           2.7458   -0.5084   -2.1482 H       1  UNL1        0.0636
     49 H          -2.6774    2.0201   -0.4014 H       1  UNL1        0.0654
     50 H          -5.1455    2.3821   -0.4763 H       1  UNL1        0.0625
@<TRIPOS>BOND
     1     1     2    1
     2     2     3   ar
     3     3     4   ar
     4     4     5   ar
     5     5     6   ar
     6     6     7    1
     7     7     8   ar
     8     8     9   ar
     9     9    10   ar
    10    10    11    1
    11    11    12    1
    12    12    13    1
    13    13    14    2
    14    13    15   am
    15    15    16    1
    16    16    17   ar
    17    17    18   ar
    18    18    19   ar
    19    19    20    1
    20    20    21   ar
    21    21    22   ar
    22    22    23   ar
    23    23    24   ar
    24    24    25   ar
    25    19    26   ar
    26    26    27   ar
    27    10    28   ar
    28    28    29   ar
    29     6     2   ar
    30    29     7   ar
    31    27    16   ar
    32    25    20   ar
    33     1    30    1
    34     1    31    1
    35     1    32    1
    36     4    33    1
    37     5    34    1
    38     8    35    1
    39     9    36    1
    40    12    37    1
    41    12    38    1
    42    15    39    1
    43    17    40    1
    44    18    41    1
    45    21    42    1
    46    22    43    1
    47    23    44    1
    48    24    45    1
    49    25    46    1
    50    26    47    1
    51    27    48    1
    52    28    49    1
    53    29    50    1
