
     RDKit          3D

 50 53  0  0  0  0  0  0  0  0999 V2000
   -7.6932   -0.8217    1.7561 C   0  0  0  0  0  0  0  0  0  0  0  0
   -7.9640    0.0379    0.6370 N   0  0  0  0  0  0  0  0  0  0  0  0
   -9.1926    0.4429    0.2962 N   0  0  0  0  0  0  0  0  0  0  0  0
   -9.1219    1.2343   -0.7867 C   0  0  0  0  0  0  0  0  0  0  0  0
   -7.7877    1.3139   -1.1194 C   0  0  0  0  0  0  0  0  0  0  0  0
   -7.0868    0.5545   -0.2101 C   0  0  0  0  0  0  0  0  0  0  0  0
   -5.6495    0.3449   -0.1673 C   0  0  0  0  0  0  0  0  0  0  0  0
   -5.1321   -0.9226    0.0314 C   0  0  0  0  0  0  0  0  0  0  0  0
   -3.7607   -1.0898    0.0678 C   0  0  0  0  0  0  0  0  0  0  0  0
   -2.8885   -0.0447   -0.0859 C   0  0  0  0  0  0  0  0  0  0  0  0
   -1.5252   -0.2462   -0.0442 O   0  0  0  0  0  0  0  0  0  0  0  0
   -1.0128   -1.5335    0.1581 C   0  0  0  0  0  0  0  0  0  0  0  0
    0.4862   -1.4834    0.1608 C   0  0  0  0  0  0  0  0  0  0  0  0
    1.1315   -2.5446    0.3294 O   0  0  0  0  0  0  0  0  0  0  0  0
    1.2023   -0.2849   -0.0197 N   0  0  0  0  0  0  0  0  0  0  0  0
    2.6246   -0.1819   -0.0258 C   0  0  0  0  0  0  0  0  0  0  0  0
    3.3339    0.0536    1.1363 C   0  0  0  0  0  0  0  0  0  0  0  0
    4.7039    0.1428    1.0647 C   0  0  0  0  0  0  0  0  0  0  0  0
    5.4178    0.0100   -0.1074 C   0  0  0  0  0  0  0  0  0  0  0  0
    6.8689    0.1077   -0.1658 C   0  0  0  0  0  0  0  0  0  0  0  0
    7.5466    0.9302    0.7019 C   0  0  0  0  0  0  0  0  0  0  0  0
    8.9332    1.0160    0.6380 C   0  0  0  0  0  0  0  0  0  0  0  0
    9.6693    0.2974   -0.2759 C   0  0  0  0  0  0  0  0  0  0  0  0
    8.9826   -0.5332   -1.1520 C   0  0  0  0  0  0  0  0  0  0  0  0
    7.5935   -0.6176   -1.0862 C   0  0  0  0  0  0  0  0  0  0  0  0
    4.6917   -0.2246   -1.2558 C   0  0  0  0  0  0  0  0  0  0  0  0
    3.3163   -0.3211   -1.2283 C   0  0  0  0  0  0  0  0  0  0  0  0
   -3.3892    1.2377   -0.2868 C   0  0  0  0  0  0  0  0  0  0  0  0
   -4.7477    1.3872   -0.3204 C   0  0  0  0  0  0  0  0  0  0  0  0
   -8.4089   -0.5894    2.5932 H   0  0  0  0  0  0  0  0  0  0  0  0
   -6.6357   -0.6842    2.1028 H   0  0  0  0  0  0  0  0  0  0  0  0
   -7.8229   -1.8875    1.5408 H   0  0  0  0  0  0  0  0  0  0  0  0
   -9.9547    1.7071   -1.2859 H   0  0  0  0  0  0  0  0  0  0  0  0
   -7.4117    1.8870   -1.9584 H   0  0  0  0  0  0  0  0  0  0  0  0
   -5.7688   -1.7862    0.1586 H   0  0  0  0  0  0  0  0  0  0  0  0
   -3.3890   -2.1108    0.2275 H   0  0  0  0  0  0  0  0  0  0  0  0
   -1.3146   -1.8972    1.1622 H   0  0  0  0  0  0  0  0  0  0  0  0
   -1.3859   -2.2676   -0.5805 H   0  0  0  0  0  0  0  0  0  0  0  0
    0.6574    0.5966   -0.1600 H   0  0  0  0  0  0  0  0  0  0  0  0
    2.7768    0.1604    2.0719 H   0  0  0  0  0  0  0  0  0  0  0  0
    5.2785    0.3273    1.9669 H   0  0  0  0  0  0  0  0  0  0  0  0
    6.9700    1.4944    1.4194 H   0  0  0  0  0  0  0  0  0  0  0  0
    9.4524    1.6671    1.3268 H   0  0  0  0  0  0  0  0  0  0  0  0
   10.7511    0.3416   -0.3521 H   0  0  0  0  0  0  0  0  0  0  0  0
    9.5336   -1.1015   -1.8713 H   0  0  0  0  0  0  0  0  0  0  0  0
    7.0331   -1.2547   -1.7541 H   0  0  0  0  0  0  0  0  0  0  0  0
    5.1660   -0.3425   -2.2222 H   0  0  0  0  0  0  0  0  0  0  0  0
    2.7458   -0.5084   -2.1482 H   0  0  0  0  0  0  0  0  0  0  0  0
   -2.6774    2.0201   -0.4014 H   0  0  0  0  0  0  0  0  0  0  0  0
   -5.1455    2.3821   -0.4763 H   0  0  0  0  0  0  0  0  0  0  0  0
  1  2  1  0
  2  3  1  0
  3  4  2  0
  4  5  1  0
  5  6  2  0
  6  7  1  0
  7  8  2  0
  8  9  1  0
  9 10  2  0
 10 11  1  0
 11 12  1  0
 12 13  1  0
 13 14  2  0
 13 15  1  0
 15 16  1  0
 16 17  2  0
 17 18  1  0
 18 19  2  0
 19 20  1  0
 20 21  2  0
 21 22  1  0
 22 23  2  0
 23 24  1  0
 24 25  2  0
 19 26  1  0
 26 27  2  0
 10 28  1  0
 28 29  2  0
  6  2  1  0
 29  7  1  0
 27 16  1  0
 25 20  1  0
  1 30  1  0
  1 31  1  0
  1 32  1  0
  4 33  1  0
  5 34  1  0
  8 35  1  0
  9 36  1  0
 12 37  1  0
 12 38  1  0
 15 39  1  0
 17 40  1  0
 18 41  1  0
 21 42  1  0
 22 43  1  0
 23 44  1  0
 24 45  1  0
 25 46  1  0
 26 47  1  0
 27 48  1  0
 28 49  1  0
 29 50  1  0
M  END
$$$$
