
     RDKit          3D

 52 54  0  0  0  0  0  0  0  0999 V2000
   -5.2392   -2.7934   -0.6025 C   0  0  0  0  0  0  0  0  0  0  0  0
   -4.7644   -1.9380   -1.7596 C   0  0  0  0  0  0  0  0  0  0  0  0
   -3.9905   -0.7375   -1.2149 C   0  0  0  0  0  0  0  0  0  0  0  0
   -4.8677    0.0110   -0.3754 N   0  0  0  0  0  0  0  0  0  0  0  0
   -4.1125    1.4045    0.3094 S   0  0  0  0  0  0  0  0  0  0  0  0
   -5.1357    2.1457    1.1635 O   0  0  0  0  0  0  0  0  0  0  0  0
   -3.7046    2.3774   -0.7576 O   0  0  0  0  0  0  0  0  0  0  0  0
   -2.8058    0.9291    1.2847 N   0  0  0  0  0  0  0  0  0  0  0  0
   -1.4411    0.8158    1.6448 C   0  0  0  0  0  0  0  0  0  0  0  0
   -0.4468    1.3363    0.8460 C   0  0  0  0  0  0  0  0  0  0  0  0
    0.9299    1.2634    1.1141 C   0  0  0  0  0  0  0  0  0  0  0  0
    1.8763    1.8060    0.2735 O   0  0  0  0  0  0  0  0  0  0  0  0
    3.2514    1.7481    0.5067 C   0  0  0  0  0  0  0  0  0  0  0  0
    3.6886    0.3064    0.5385 C   0  0  0  0  0  0  0  0  0  0  0  0
    5.0812    0.1824    0.7706 O   0  0  0  0  0  0  0  0  0  0  0  0
    5.6188   -1.0948    0.8255 C   0  0  0  0  0  0  0  0  0  0  0  0
    6.9589   -1.1407    1.0511 N   0  0  0  0  0  0  0  0  0  0  0  0
    7.6112   -2.3159    1.1285 C   0  0  0  0  0  0  0  0  0  0  0  0
    6.9535   -3.5352    0.9829 C   0  0  0  0  0  0  0  0  0  0  0  0
    7.8001   -5.2175    1.0790 Br  0  0  0  0  0  0  0  0  0  0  0  0
    5.5864   -3.4541    0.7538 C   0  0  0  0  0  0  0  0  0  0  0  0
    4.9490   -2.2721    0.6791 N   0  0  0  0  0  0  0  0  0  0  0  0
    1.1735    0.6185    2.2574 N   0  0  0  0  0  0  0  0  0  0  0  0
    0.2590    0.1039    3.0550 C   0  0  0  0  0  0  0  0  0  0  0  0
   -1.0399    0.1847    2.7807 N   0  0  0  0  0  0  0  0  0  0  0  0
   -0.6955    2.0660   -0.4167 C   0  0  0  0  0  0  0  0  0  0  0  0
   -0.7929    1.3470   -1.5899 C   0  0  0  0  0  0  0  0  0  0  0  0
   -0.9972    2.1249   -2.7103 C   0  0  0  0  0  0  0  0  0  0  0  0
   -1.0931    3.5025   -2.6417 C   0  0  0  0  0  0  0  0  0  0  0  0
   -1.3767    4.4384   -4.2796 Br  0  0  0  0  0  0  0  0  0  0  0  0
   -0.9845    4.1652   -1.4150 C   0  0  0  0  0  0  0  0  0  0  0  0
   -0.7772    3.4522   -0.2338 C   0  0  0  0  0  0  0  0  0  0  0  0
   -4.3415   -3.2225   -0.1151 H   0  0  0  0  0  0  0  0  0  0  0  0
   -5.8379   -2.2024    0.1007 H   0  0  0  0  0  0  0  0  0  0  0  0
   -5.8385   -3.6234   -1.0473 H   0  0  0  0  0  0  0  0  0  0  0  0
   -5.6788   -1.5225   -2.2322 H   0  0  0  0  0  0  0  0  0  0  0  0
   -4.2100   -2.5028   -2.5072 H   0  0  0  0  0  0  0  0  0  0  0  0
   -3.4878   -0.1818   -2.0038 H   0  0  0  0  0  0  0  0  0  0  0  0
   -3.1772   -1.1369   -0.5428 H   0  0  0  0  0  0  0  0  0  0  0  0
   -5.8158    0.1953   -0.7543 H   0  0  0  0  0  0  0  0  0  0  0  0
   -3.3872    0.4274    2.0294 H   0  0  0  0  0  0  0  0  0  0  0  0
    3.5181    2.2449    1.4780 H   0  0  0  0  0  0  0  0  0  0  0  0
    3.7544    2.3180   -0.3093 H   0  0  0  0  0  0  0  0  0  0  0  0
    3.0908   -0.2282    1.2885 H   0  0  0  0  0  0  0  0  0  0  0  0
    3.3987   -0.1169   -0.4534 H   0  0  0  0  0  0  0  0  0  0  0  0
    8.6658   -2.3367    1.3063 H   0  0  0  0  0  0  0  0  0  0  0  0
    4.9687   -4.3335    0.6256 H   0  0  0  0  0  0  0  0  0  0  0  0
    0.4458   -0.4189    3.9809 H   0  0  0  0  0  0  0  0  0  0  0  0
   -0.7054    0.2775   -1.5425 H   0  0  0  0  0  0  0  0  0  0  0  0
   -1.0804    1.5936   -3.6634 H   0  0  0  0  0  0  0  0  0  0  0  0
   -1.0642    5.2435   -1.3979 H   0  0  0  0  0  0  0  0  0  0  0  0
   -0.6903    3.9200    0.7119 H   0  0  0  0  0  0  0  0  0  0  0  0
  1  2  1  0
  2  3  1  0
  3  4  1  0
  4  5  1  0
  5  6  2  0
  5  7  2  0
  5  8  1  0
  8  9  1  0
  9 10  2  0
 10 11  1  0
 11 12  1  0
 12 13  1  0
 13 14  1  0
 14 15  1  0
 15 16  1  0
 16 17  2  0
 17 18  1  0
 18 19  2  0
 19 20  1  0
 19 21  1  0
 21 22  2  0
 11 23  2  0
 23 24  1  0
 24 25  2  0
 10 26  1  0
 26 27  2  0
 27 28  1  0
 28 29  2  0
 29 30  1  0
 29 31  1  0
 31 32  2  0
 25  9  1  0
 32 26  1  0
 22 16  1  0
  1 33  1  0
  1 34  1  0
  1 35  1  0
  2 36  1  0
  2 37  1  0
  3 38  1  0
  3 39  1  0
  4 40  1  0
  8 41  1  0
 13 42  1  0
 13 43  1  0
 14 44  1  0
 14 45  1  0
 18 46  1  0
 21 47  1  0
 24 48  1  0
 27 49  1  0
 28 50  1  0
 31 51  1  0
 32 52  1  0
M  END
$$$$
