@<TRIPOS>MOLECULE
*****
 52 56 0 0 0
SMALL
GASTEIGER

@<TRIPOS>ATOM
      1 O          -1.5716    1.9990    1.2837 O.2     1  UNL1       -0.2526
      2 C          -1.4197    1.4944    0.1466 C.2     1  UNL1        0.3024
      3 N          -2.5424    1.1364   -0.6451 N.am    1  UNL1       -0.2958
      4 C          -3.9108    1.3308   -0.1906 C.3     1  UNL1        0.0320
      5 C          -4.9712    1.7339   -1.1346 C.3     1  UNL1       -0.0254
      6 C          -4.9675    0.3437   -0.5243 C.3     1  UNL1        0.0043
      7 C          -6.0865    0.0876    0.3970 C.ar    1  UNL1       -0.0425
      8 C          -6.6205    1.0566    1.2273 C.ar    1  UNL1       -0.0582
      9 C          -7.6812    0.7207    2.0673 C.ar    1  UNL1       -0.0615
     10 C          -8.2092   -0.5624    2.0857 C.ar    1  UNL1       -0.0617
     11 C          -7.6858   -1.5179    1.2698 C.ar    1  UNL1       -0.0615
     12 C          -6.6398   -1.1716    0.4470 C.ar    1  UNL1       -0.0582
     13 N          -0.0971    1.2970   -0.3141 N.am    1  UNL1       -0.2856
     14 C           0.2226    0.7253   -1.6039 C.3     1  UNL1        0.0168
     15 C           1.6482    0.2106   -1.5125 C.3     1  UNL1       -0.0257
     16 C           1.8393   -0.5407   -0.1952 C.3     1  UNL1        0.0410
     17 C           3.2009   -1.1081   -0.1640 C.ar    1  UNL1        0.2309
     18 N           4.3345   -0.4140   -0.1821 N.ar    1  UNL1       -0.1910
     19 C           5.3912   -1.2774   -0.1420 C.ar    1  UNL1        0.2035
     20 C           6.7563   -0.8334   -0.1489 C.ar    1  UNL1        0.0405
     21 C           7.7456   -1.6883   -0.5776 C.ar    1  UNL1       -0.0481
     22 C           9.0783   -1.3075   -0.6033 C.ar    1  UNL1       -0.0429
     23 C           9.3647   -0.0316   -0.1788 C.ar    1  UNL1        0.0276
     24 N           8.4147    0.8166    0.2427 N.ar    1  UNL1       -0.2626
     25 C           7.1230    0.4231    0.2588 C.ar    1  UNL1        0.0383
     26 N           4.8354   -2.4894   -0.1003 N.ar    1  UNL1       -0.0560
     27 O           3.5236   -2.3636   -0.1144 O.2     1  UNL1       -0.3374
     28 C           1.6675    0.3718    0.9903 C.3     1  UNL1       -0.0257
     29 C           1.0488    1.6677    0.5051 C.3     1  UNL1        0.0168
     30 H          -2.3340    0.7170   -1.5914 H       1  UNL1        0.1505
     31 H          -3.9772    1.7796    0.8218 H       1  UNL1        0.0505
     32 H          -5.7640    2.4501   -0.8215 H       1  UNL1        0.0290
     33 H          -4.7184    1.8426   -2.2112 H       1  UNL1        0.0290
     34 H          -4.6374   -0.5038   -1.1263 H       1  UNL1        0.0367
     35 H          -6.1922    2.0441    1.1933 H       1  UNL1        0.0620
     36 H          -8.0984    1.4752    2.7151 H       1  UNL1        0.0618
     37 H          -9.0410   -0.8079    2.7508 H       1  UNL1        0.0618
     38 H          -8.0728   -2.5445    1.2525 H       1  UNL1        0.0618
     39 H          -6.2252   -1.9466   -0.2059 H       1  UNL1        0.0620
     40 H           0.2051    1.5493   -2.3608 H       1  UNL1        0.0465
     41 H          -0.4632   -0.0670   -1.9177 H       1  UNL1        0.0465
     42 H           1.8392   -0.5524   -2.3177 H       1  UNL1        0.0288
     43 H           2.3775    1.0143   -1.6478 H       1  UNL1        0.0288
     44 H           1.0570   -1.3139   -0.1710 H       1  UNL1        0.0397
     45 H           7.4752   -2.6788   -0.9013 H       1  UNL1        0.0626
     46 H           9.8786   -1.9481   -0.9318 H       1  UNL1        0.0633
     47 H          10.3865    0.3398   -0.1700 H       1  UNL1        0.0829
     48 H           6.3672    1.1163    0.6008 H       1  UNL1        0.0837
     49 H           0.9538   -0.0561    1.7413 H       1  UNL1        0.0288
     50 H           2.6564    0.5863    1.4660 H       1  UNL1        0.0288
     51 H           1.7933    2.2128   -0.0972 H       1  UNL1        0.0465
     52 H           0.7426    2.3279    1.3410 H       1  UNL1        0.0465
@<TRIPOS>BOND
     1     1     2    2
     2     2     3   am
     3     3     4    1
     4     4     5    1
     5     5     6    1
     6     6     7    1
     7     7     8   ar
     8     8     9   ar
     9     9    10   ar
    10    10    11   ar
    11    11    12   ar
    12     2    13   am
    13    13    14    1
    14    14    15    1
    15    15    16    1
    16    16    17    1
    17    17    18   ar
    18    18    19   ar
    19    19    20    1
    20    20    21   ar
    21    21    22   ar
    22    22    23   ar
    23    23    24   ar
    24    24    25   ar
    25    19    26   ar
    26    26    27   ar
    27    16    28    1
    28    28    29    1
    29     6     4    1
    30    12     7   ar
    31    29    13    1
    32    27    17   ar
    33    25    20   ar
    34     3    30    1
    35     4    31    1
    36     5    32    1
    37     5    33    1
    38     6    34    1
    39     8    35    1
    40     9    36    1
    41    10    37    1
    42    11    38    1
    43    12    39    1
    44    14    40    1
    45    14    41    1
    46    15    42    1
    47    15    43    1
    48    16    44    1
    49    21    45    1
    50    22    46    1
    51    23    47    1
    52    25    48    1
    53    28    49    1
    54    28    50    1
    55    29    51    1
    56    29    52    1
