@<TRIPOS>MOLECULE
*****
 29 31 0 0 0
SMALL
GASTEIGER

@<TRIPOS>ATOM
      1 N           3.6259   -1.6669    2.3852 N.pl3   1  UNL1       -0.3273
      2 C           3.2090   -0.9577    1.2238 C.ar    1  UNL1        0.2174
      3 N           1.9285   -0.7112    0.9336 N.ar    1  UNL1       -0.1948
      4 C           1.5089   -0.0436   -0.1571 C.ar    1  UNL1        0.1678
      5 N           2.4696    0.3950   -0.9972 N.ar    1  UNL1       -0.1948
      6 C           3.7801    0.1807   -0.7647 C.ar    1  UNL1        0.2174
      7 N           4.7020    0.6904   -1.7216 N.pl3   1  UNL1       -0.3273
      8 N           4.1397   -0.4932    0.3427 N.ar    1  UNL1       -0.1815
      9 C           0.0825    0.1741   -0.3838 C.ar    1  UNL1        0.0339
     10 C          -0.7762   -0.3366    0.5684 C.ar    1  UNL1       -0.0423
     11 C          -2.1273   -0.1402    0.3701 C.ar    1  UNL1       -0.0171
     12 C          -3.0881   -0.6041    1.2533 C.ar    1  UNL1       -0.0540
     13 C          -4.4384   -0.3943    1.0320 C.ar    1  UNL1       -0.0612
     14 C          -4.8269    0.2945   -0.0978 C.ar    1  UNL1       -0.0612
     15 C          -3.8983    0.7805   -1.0150 C.ar    1  UNL1       -0.0540
     16 C          -2.5463    0.5464   -0.7529 C.ar    1  UNL1       -0.0168
     17 C          -1.6808    1.0668   -1.7222 C.ar    1  UNL1       -0.0393
     18 C          -0.3261    0.8612   -1.5088 C.ar    1  UNL1        0.0291
     19 BR          0.9126    1.5315   -2.7698 Br      1  UNL1       -0.0495
     20 H           3.4142   -2.6801    2.5335 H       1  UNL1        0.1452
     21 H           4.1674   -1.0697    3.0775 H       1  UNL1        0.1452
     22 H           4.9940    1.7087   -1.7512 H       1  UNL1        0.1452
     23 H           5.2783    0.3609   -2.5265 H       1  UNL1        0.1452
     24 H          -0.4334   -0.8687    1.4369 H       1  UNL1        0.0631
     25 H          -2.7451   -1.1495    2.1443 H       1  UNL1        0.0624
     26 H          -5.1107   -0.7927    1.7752 H       1  UNL1        0.0618
     27 H          -5.9038    0.4160   -0.1964 H       1  UNL1        0.0618
     28 H          -4.2694    1.3071   -1.8715 H       1  UNL1        0.0624
     29 H          -2.0416    1.5946   -2.5818 H       1  UNL1        0.0635
@<TRIPOS>BOND
     1     1     2    1
     2     2     3   ar
     3     3     4   ar
     4     4     5   ar
     5     5     6   ar
     6     6     7    1
     7     6     8   ar
     8     4     9    1
     9     9    10   ar
    10    10    11   ar
    11    11    12   ar
    12    12    13   ar
    13    13    14   ar
    14    14    15   ar
    15    15    16   ar
    16    16    17   ar
    17    17    18   ar
    18    18    19    1
    19     8     2   ar
    20    18     9   ar
    21    16    11   ar
    22     1    20    1
    23     1    21    1
    24     7    22    1
    25     7    23    1
    26    10    24    1
    27    12    25    1
    28    13    26    1
    29    14    27    1
    30    15    28    1
    31    17    29    1
