
     RDKit          3D

 29 31  0  0  0  0  0  0  0  0999 V2000
    3.6259   -1.6669    2.3852 N   0  0  0  0  0  0  0  0  0  0  0  0
    3.2090   -0.9577    1.2238 C   0  0  0  0  0  0  0  0  0  0  0  0
    1.9285   -0.7112    0.9336 N   0  0  0  0  0  0  0  0  0  0  0  0
    1.5089   -0.0436   -0.1571 C   0  0  0  0  0  0  0  0  0  0  0  0
    2.4696    0.3950   -0.9972 N   0  0  0  0  0  0  0  0  0  0  0  0
    3.7801    0.1807   -0.7647 C   0  0  0  0  0  0  0  0  0  0  0  0
    4.7020    0.6904   -1.7216 N   0  0  0  0  0  0  0  0  0  0  0  0
    4.1397   -0.4932    0.3427 N   0  0  0  0  0  0  0  0  0  0  0  0
    0.0825    0.1741   -0.3838 C   0  0  0  0  0  0  0  0  0  0  0  0
   -0.7762   -0.3366    0.5684 C   0  0  0  0  0  0  0  0  0  0  0  0
   -2.1273   -0.1402    0.3701 C   0  0  0  0  0  0  0  0  0  0  0  0
   -3.0881   -0.6041    1.2533 C   0  0  0  0  0  0  0  0  0  0  0  0
   -4.4384   -0.3943    1.0320 C   0  0  0  0  0  0  0  0  0  0  0  0
   -4.8269    0.2945   -0.0978 C   0  0  0  0  0  0  0  0  0  0  0  0
   -3.8983    0.7805   -1.0150 C   0  0  0  0  0  0  0  0  0  0  0  0
   -2.5463    0.5464   -0.7529 C   0  0  0  0  0  0  0  0  0  0  0  0
   -1.6808    1.0668   -1.7222 C   0  0  0  0  0  0  0  0  0  0  0  0
   -0.3261    0.8612   -1.5088 C   0  0  0  0  0  0  0  0  0  0  0  0
    0.9126    1.5315   -2.7698 Br  0  0  0  0  0  0  0  0  0  0  0  0
    3.4142   -2.6801    2.5335 H   0  0  0  0  0  0  0  0  0  0  0  0
    4.1674   -1.0697    3.0775 H   0  0  0  0  0  0  0  0  0  0  0  0
    4.9940    1.7087   -1.7512 H   0  0  0  0  0  0  0  0  0  0  0  0
    5.2783    0.3609   -2.5265 H   0  0  0  0  0  0  0  0  0  0  0  0
   -0.4334   -0.8687    1.4369 H   0  0  0  0  0  0  0  0  0  0  0  0
   -2.7451   -1.1495    2.1443 H   0  0  0  0  0  0  0  0  0  0  0  0
   -5.1107   -0.7927    1.7752 H   0  0  0  0  0  0  0  0  0  0  0  0
   -5.9038    0.4160   -0.1964 H   0  0  0  0  0  0  0  0  0  0  0  0
   -4.2694    1.3071   -1.8715 H   0  0  0  0  0  0  0  0  0  0  0  0
   -2.0416    1.5946   -2.5818 H   0  0  0  0  0  0  0  0  0  0  0  0
  1  2  1  0
  2  3  2  0
  3  4  1  0
  4  5  2  0
  5  6  1  0
  6  7  1  0
  6  8  2  0
  4  9  1  0
  9 10  2  0
 10 11  1  0
 11 12  2  0
 12 13  1  0
 13 14  2  0
 14 15  1  0
 15 16  2  0
 16 17  1  0
 17 18  2  0
 18 19  1  0
  8  2  1  0
 18  9  1  0
 16 11  1  0
  1 20  1  0
  1 21  1  0
  7 22  1  0
  7 23  1  0
 10 24  1  0
 12 25  1  0
 13 26  1  0
 14 27  1  0
 15 28  1  0
 17 29  1  0
M  END
$$$$
