@<TRIPOS>MOLECULE
*****
 38 40 0 0 0
SMALL
GASTEIGER

@<TRIPOS>ATOM
      1 C          -2.6804   -2.1128    0.0367 C.3     1  UNL1       -0.0365
      2 C          -2.7171   -0.6085    0.0672 C.3     1  UNL1        0.0942
      3 C          -3.5918   -0.1063   -1.0877 C.3     1  UNL1       -0.0365
      4 C          -3.3504   -0.1664    1.3460 C.3     1  UNL1       -0.0365
      5 N          -1.3721   -0.0426   -0.0947 N.ar    1  UNL1       -0.1279
      6 N          -0.2844   -0.7522    0.0892 N.ar    1  UNL1       -0.1185
      7 C           0.8262    0.0159   -0.1287 C.ar    1  UNL1        0.2507
      8 C           0.2739    1.2268   -0.4494 C.ar    1  UNL1        0.1357
      9 C          -1.0992    1.2255   -0.4394 C.ar    1  UNL1        0.2070
     10 N          -1.8268    2.3219   -0.7096 N.ar    1  UNL1       -0.2127
     11 C          -1.2275    3.4898   -1.0040 C.ar    1  UNL1        0.1205
     12 N           0.1049    3.5338   -1.0202 N.ar    1  UNL1       -0.2202
     13 C           0.8302    2.4410   -0.7515 C.ar    1  UNL1        0.1353
     14 N           2.2121    2.6757   -0.7574 N.pl3   1  UNL1       -0.3424
     15 C           2.1641   -0.4797    0.0346 C.ar    1  UNL1        0.0493
     16 C           3.3962   -0.1495   -0.4331 C.ar    1  UNL1       -0.0468
     17 C           4.6090   -0.6743   -0.0910 C.ar    1  UNL1       -0.0426
     18 C           4.6455   -1.6741    0.8449 C.ar    1  UNL1        0.0410
     19 CL          6.1681   -2.3621    1.3027 Cl      1  UNL1       -0.0835
     20 C           3.4677   -2.1125    1.4041 C.ar    1  UNL1       -0.0426
     21 C           2.3062   -1.5104    0.9843 C.ar    1  UNL1       -0.0468
     22 H          -2.3534   -2.4567    1.0413 H       1  UNL1        0.0254
     23 H          -2.0401   -2.5021   -0.7836 H       1  UNL1        0.0254
     24 H          -3.7475   -2.4480   -0.1068 H       1  UNL1        0.0254
     25 H          -4.0403    0.8778   -0.8410 H       1  UNL1        0.0254
     26 H          -2.8870    0.0021   -1.9519 H       1  UNL1        0.0254
     27 H          -4.3466   -0.8625   -1.3128 H       1  UNL1        0.0254
     28 H          -4.3599   -0.6263    1.3738 H       1  UNL1        0.0254
     29 H          -2.7965   -0.5788    2.2238 H       1  UNL1        0.0254
     30 H          -3.4992    0.9224    1.4304 H       1  UNL1        0.0254
     31 H          -0.2710   -1.7780    0.3671 H       1  UNL1        0.4875
     32 H          -1.8909    4.3221   -1.2095 H       1  UNL1        0.1048
     33 H           2.9545    2.9327   -1.4614 H       1  UNL1        0.1437
     34 H           2.5708    2.5519    0.2293 H       1  UNL1        0.1437
     35 H           3.4033    0.5863   -1.2060 H       1  UNL1        0.0626
     36 H           5.4955   -0.2974   -0.5560 H       1  UNL1        0.0632
     37 H           3.5205   -2.8918    2.1291 H       1  UNL1        0.0632
     38 H           1.4334   -1.9328    1.4910 H       1  UNL1        0.0626
@<TRIPOS>UNITY_ATOM_ATTR
6 1
charge 1
@<TRIPOS>BOND
     1     1     2    1
     2     2     3    1
     3     2     4    1
     4     2     5    1
     5     5     6   ar
     6     6     7   ar
     7     7     8   ar
     8     8     9   ar
     9     9    10   ar
    10    10    11   ar
    11    11    12   ar
    12    12    13   ar
    13    13    14    1
    14     7    15    1
    15    15    16   ar
    16    16    17   ar
    17    17    18   ar
    18    18    19    1
    19    18    20   ar
    20    20    21   ar
    21     9     5   ar
    22    21    15   ar
    23    13     8   ar
    24     1    22    1
    25     1    23    1
    26     1    24    1
    27     3    25    1
    28     3    26    1
    29     3    27    1
    30     4    28    1
    31     4    29    1
    32     4    30    1
    33     6    31    1
    34    11    32    1
    35    14    33    1
    36    14    34    1
    37    16    35    1
    38    17    36    1
    39    20    37    1
    40    21    38    1
