
     RDKit          3D

 38 40  0  0  0  0  0  0  0  0999 V2000
   -2.6804   -2.1128    0.0367 C   0  0  0  0  0  0  0  0  0  0  0  0
   -2.7171   -0.6085    0.0672 C   0  0  0  0  0  0  0  0  0  0  0  0
   -3.5918   -0.1063   -1.0877 C   0  0  0  0  0  0  0  0  0  0  0  0
   -3.3504   -0.1664    1.3460 C   0  0  0  0  0  0  0  0  0  0  0  0
   -1.3721   -0.0426   -0.0947 N   0  0  0  0  0  0  0  0  0  0  0  0
   -0.2844   -0.7522    0.0892 N   0  0  0  0  0  4  0  0  0  0  0  0
    0.8262    0.0159   -0.1287 C   0  0  0  0  0  0  0  0  0  0  0  0
    0.2739    1.2268   -0.4494 C   0  0  0  0  0  0  0  0  0  0  0  0
   -1.0992    1.2255   -0.4394 C   0  0  0  0  0  0  0  0  0  0  0  0
   -1.8268    2.3219   -0.7096 N   0  0  0  0  0  0  0  0  0  0  0  0
   -1.2275    3.4898   -1.0040 C   0  0  0  0  0  0  0  0  0  0  0  0
    0.1049    3.5338   -1.0202 N   0  0  0  0  0  0  0  0  0  0  0  0
    0.8302    2.4410   -0.7515 C   0  0  0  0  0  0  0  0  0  0  0  0
    2.2121    2.6757   -0.7574 N   0  0  0  0  0  0  0  0  0  0  0  0
    2.1641   -0.4797    0.0346 C   0  0  0  0  0  0  0  0  0  0  0  0
    3.3962   -0.1495   -0.4331 C   0  0  0  0  0  0  0  0  0  0  0  0
    4.6090   -0.6743   -0.0910 C   0  0  0  0  0  0  0  0  0  0  0  0
    4.6455   -1.6741    0.8449 C   0  0  0  0  0  0  0  0  0  0  0  0
    6.1681   -2.3621    1.3027 Cl  0  0  0  0  0  0  0  0  0  0  0  0
    3.4677   -2.1125    1.4041 C   0  0  0  0  0  0  0  0  0  0  0  0
    2.3062   -1.5104    0.9843 C   0  0  0  0  0  0  0  0  0  0  0  0
   -2.3534   -2.4567    1.0413 H   0  0  0  0  0  0  0  0  0  0  0  0
   -2.0401   -2.5021   -0.7836 H   0  0  0  0  0  0  0  0  0  0  0  0
   -3.7475   -2.4480   -0.1068 H   0  0  0  0  0  0  0  0  0  0  0  0
   -4.0403    0.8778   -0.8410 H   0  0  0  0  0  0  0  0  0  0  0  0
   -2.8870    0.0021   -1.9519 H   0  0  0  0  0  0  0  0  0  0  0  0
   -4.3466   -0.8625   -1.3128 H   0  0  0  0  0  0  0  0  0  0  0  0
   -4.3599   -0.6263    1.3738 H   0  0  0  0  0  0  0  0  0  0  0  0
   -2.7965   -0.5788    2.2238 H   0  0  0  0  0  0  0  0  0  0  0  0
   -3.4992    0.9224    1.4304 H   0  0  0  0  0  0  0  0  0  0  0  0
   -0.2710   -1.7780    0.3671 H   0  0  0  0  0  0  0  0  0  0  0  0
   -1.8909    4.3221   -1.2095 H   0  0  0  0  0  0  0  0  0  0  0  0
    2.9545    2.9327   -1.4614 H   0  0  0  0  0  0  0  0  0  0  0  0
    2.5708    2.5519    0.2293 H   0  0  0  0  0  0  0  0  0  0  0  0
    3.4033    0.5863   -1.2060 H   0  0  0  0  0  0  0  0  0  0  0  0
    5.4955   -0.2974   -0.5560 H   0  0  0  0  0  0  0  0  0  0  0  0
    3.5205   -2.8918    2.1291 H   0  0  0  0  0  0  0  0  0  0  0  0
    1.4334   -1.9328    1.4910 H   0  0  0  0  0  0  0  0  0  0  0  0
  1  2  1  0
  2  3  1  0
  2  4  1  0
  2  5  1  0
  5  6  1  0
  6  7  2  0
  7  8  1  0
  8  9  2  0
  9 10  1  0
 10 11  2  0
 11 12  1  0
 12 13  2  0
 13 14  1  0
  7 15  1  0
 15 16  2  0
 16 17  1  0
 17 18  2  0
 18 19  1  0
 18 20  1  0
 20 21  2  0
  9  5  1  0
 21 15  1  0
 13  8  1  0
  1 22  1  0
  1 23  1  0
  1 24  1  0
  3 25  1  0
  3 26  1  0
  3 27  1  0
  4 28  1  0
  4 29  1  0
  4 30  1  0
  6 31  1  0
 11 32  1  0
 14 33  1  0
 14 34  1  0
 16 35  1  0
 17 36  1  0
 20 37  1  0
 21 38  1  0
M  CHG  1   6   1
M  END
$$$$
