@<TRIPOS>MOLECULE
*****
 43 44 0 0 0
SMALL
GASTEIGER

@<TRIPOS>ATOM
      1 C           6.2535   -1.4476   -0.4747 C.3     1  UNL1        0.0788
      2 O           5.4553   -0.6965   -1.3983 O.3     1  UNL1       -0.4951
      3 C           4.2039   -0.2447   -0.9375 C.ar    1  UNL1        0.1202
      4 C           3.7555   -0.4986    0.3213 C.ar    1  UNL1       -0.0181
      5 C           2.5279   -0.0536    0.7691 C.ar    1  UNL1       -0.0319
      6 C           1.7254    0.6682   -0.0720 C.ar    1  UNL1        0.1057
      7 S           0.1664    1.2562    0.4363 S.O2    1  UNL1        0.0618
      8 O           0.2722    1.4903    1.9435 O.2     1  UNL1       -0.1528
      9 O          -0.1261    2.6138   -0.1392 O.2     1  UNL1       -0.1528
     10 N          -1.0924    0.1745    0.1352 N.3     1  UNL1       -0.1611
     11 C          -1.0475   -1.0811    0.7728 C.3     1  UNL1        0.0224
     12 C          -0.7443   -2.2449   -0.1508 C.3     1  UNL1       -0.0295
     13 C          -1.8891   -2.6001   -1.0408 C.3     1  UNL1       -0.0050
     14 S          -2.6738   -1.1829   -1.8188 S.3     1  UNL1       -0.1583
     15 C          -3.4233   -0.1783   -0.5019 C.3     1  UNL1        0.0221
     16 C          -2.3384    0.8084   -0.0520 C.3     1  UNL1        0.1266
     17 C          -2.2411    1.8259   -1.1893 C.3     1  UNL1       -0.0356
     18 C          -2.9080    1.4588    1.1570 C.2     1  UNL1        0.2580
     19 O          -2.2988    1.3620    2.2389 O.2     1  UNL1       -0.2716
     20 N          -4.1245    2.1790    1.0860 N.am    1  UNL1       -0.1959
     21 O          -4.6512    2.7798    2.2010 O.3     1  UNL1       -0.2951
     22 C           2.1585    0.9343   -1.3427 C.ar    1  UNL1       -0.0319
     23 C           3.4039    0.4836   -1.7989 C.ar    1  UNL1       -0.0181
     24 H           7.0747   -1.8967   -1.0515 H       1  UNL1        0.0660
     25 H           5.6694   -2.2981   -0.0493 H       1  UNL1        0.0660
     26 H           6.6227   -0.8289    0.3534 H       1  UNL1        0.0660
     27 H           4.4023   -1.0729    0.9795 H       1  UNL1        0.0655
     28 H           2.2269   -0.2952    1.8012 H       1  UNL1        0.0638
     29 H          -1.9457   -1.3211    1.3900 H       1  UNL1        0.0444
     30 H          -0.1971   -1.0642    1.5163 H       1  UNL1        0.0444
     31 H           0.1848   -2.0309   -0.6854 H       1  UNL1        0.0286
     32 H          -0.5763   -3.1295    0.5310 H       1  UNL1        0.0286
     33 H          -2.6655   -3.1436   -0.4405 H       1  UNL1        0.0377
     34 H          -1.5150   -3.2990   -1.8141 H       1  UNL1        0.0377
     35 H          -3.8013   -0.7828    0.3293 H       1  UNL1        0.0400
     36 H          -4.2358    0.4495   -0.9308 H       1  UNL1        0.0400
     37 H          -1.3711    1.5880   -1.8024 H       1  UNL1        0.0253
     38 H          -2.3127    2.8685   -0.8309 H       1  UNL1        0.0253
     39 H          -3.1290    1.7181   -1.8789 H       1  UNL1        0.0253
     40 H          -4.6713    2.2877    0.2012 H       1  UNL1        0.1823
     41 H          -5.4785    2.2670    2.4110 H       1  UNL1        0.2414
     42 H           1.5908    1.4984   -2.0785 H       1  UNL1        0.0638
     43 H           3.7637    0.6793   -2.7879 H       1  UNL1        0.0655
@<TRIPOS>BOND
     1     1     2    1
     2     2     3    1
     3     3     4   ar
     4     4     5   ar
     5     5     6   ar
     6     6     7    1
     7     7     8    2
     8     7     9    2
     9     7    10    1
    10    10    11    1
    11    11    12    1
    12    12    13    1
    13    13    14    1
    14    14    15    1
    15    15    16    1
    16    16    17    1
    17    16    18    1
    18    18    19    2
    19    18    20   am
    20    20    21    1
    21     6    22   ar
    22    22    23   ar
    23    23     3   ar
    24    16    10    1
    25     1    24    1
    26     1    25    1
    27     1    26    1
    28     4    27    1
    29     5    28    1
    30    11    29    1
    31    11    30    1
    32    12    31    1
    33    12    32    1
    34    13    33    1
    35    13    34    1
    36    15    35    1
    37    15    36    1
    38    17    37    1
    39    17    38    1
    40    17    39    1
    41    20    40    1
    42    21    41    1
    43    22    42    1
    44    23    43    1
