
     RDKit          3D

 43 44  0  0  0  0  0  0  0  0999 V2000
    6.2535   -1.4476   -0.4747 C   0  0  0  0  0  0  0  0  0  0  0  0
    5.4553   -0.6965   -1.3983 O   0  0  0  0  0  0  0  0  0  0  0  0
    4.2039   -0.2447   -0.9375 C   0  0  0  0  0  0  0  0  0  0  0  0
    3.7555   -0.4986    0.3213 C   0  0  0  0  0  0  0  0  0  0  0  0
    2.5279   -0.0536    0.7691 C   0  0  0  0  0  0  0  0  0  0  0  0
    1.7254    0.6682   -0.0720 C   0  0  0  0  0  0  0  0  0  0  0  0
    0.1664    1.2562    0.4363 S   0  0  0  0  0  6  0  0  0  0  0  0
    0.2722    1.4903    1.9435 O   0  0  0  0  0  0  0  0  0  0  0  0
   -0.1261    2.6138   -0.1392 O   0  0  0  0  0  0  0  0  0  0  0  0
   -1.0924    0.1745    0.1352 N   0  0  0  0  0  0  0  0  0  0  0  0
   -1.0475   -1.0811    0.7728 C   0  0  0  0  0  0  0  0  0  0  0  0
   -0.7443   -2.2449   -0.1508 C   0  0  0  0  0  0  0  0  0  0  0  0
   -1.8891   -2.6001   -1.0408 C   0  0  0  0  0  0  0  0  0  0  0  0
   -2.6738   -1.1829   -1.8188 S   0  0  0  0  0  0  0  0  0  0  0  0
   -3.4233   -0.1783   -0.5019 C   0  0  0  0  0  0  0  0  0  0  0  0
   -2.3384    0.8084   -0.0520 C   0  0  2  0  0  0  0  0  0  0  0  0
   -2.2411    1.8259   -1.1893 C   0  0  0  0  0  0  0  0  0  0  0  0
   -2.9080    1.4588    1.1570 C   0  0  0  0  0  0  0  0  0  0  0  0
   -2.2988    1.3620    2.2389 O   0  0  0  0  0  0  0  0  0  0  0  0
   -4.1245    2.1790    1.0860 N   0  0  0  0  0  0  0  0  0  0  0  0
   -4.6512    2.7798    2.2010 O   0  0  0  0  0  0  0  0  0  0  0  0
    2.1585    0.9343   -1.3427 C   0  0  0  0  0  0  0  0  0  0  0  0
    3.4039    0.4836   -1.7989 C   0  0  0  0  0  0  0  0  0  0  0  0
    7.0747   -1.8967   -1.0515 H   0  0  0  0  0  0  0  0  0  0  0  0
    5.6694   -2.2981   -0.0493 H   0  0  0  0  0  0  0  0  0  0  0  0
    6.6227   -0.8289    0.3534 H   0  0  0  0  0  0  0  0  0  0  0  0
    4.4023   -1.0729    0.9795 H   0  0  0  0  0  0  0  0  0  0  0  0
    2.2269   -0.2952    1.8012 H   0  0  0  0  0  0  0  0  0  0  0  0
   -1.9457   -1.3211    1.3900 H   0  0  0  0  0  0  0  0  0  0  0  0
   -0.1971   -1.0642    1.5163 H   0  0  0  0  0  0  0  0  0  0  0  0
    0.1848   -2.0309   -0.6854 H   0  0  0  0  0  0  0  0  0  0  0  0
   -0.5763   -3.1295    0.5310 H   0  0  0  0  0  0  0  0  0  0  0  0
   -2.6655   -3.1436   -0.4405 H   0  0  0  0  0  0  0  0  0  0  0  0
   -1.5150   -3.2990   -1.8141 H   0  0  0  0  0  0  0  0  0  0  0  0
   -3.8013   -0.7828    0.3293 H   0  0  0  0  0  0  0  0  0  0  0  0
   -4.2358    0.4495   -0.9308 H   0  0  0  0  0  0  0  0  0  0  0  0
   -1.3711    1.5880   -1.8024 H   0  0  0  0  0  0  0  0  0  0  0  0
   -2.3127    2.8685   -0.8309 H   0  0  0  0  0  0  0  0  0  0  0  0
   -3.1290    1.7181   -1.8789 H   0  0  0  0  0  0  0  0  0  0  0  0
   -4.6713    2.2877    0.2012 H   0  0  0  0  0  0  0  0  0  0  0  0
   -5.4785    2.2670    2.4110 H   0  0  0  0  0  0  0  0  0  0  0  0
    1.5908    1.4984   -2.0785 H   0  0  0  0  0  0  0  0  0  0  0  0
    3.7637    0.6793   -2.7879 H   0  0  0  0  0  0  0  0  0  0  0  0
  1  2  1  0
  2  3  1  0
  3  4  2  0
  4  5  1  0
  5  6  2  0
  6  7  1  0
  7  8  2  0
  7  9  2  0
  7 10  1  0
 10 11  1  0
 11 12  1  0
 12 13  1  0
 13 14  1  0
 14 15  1  0
 15 16  1  0
 16 17  1  6
 16 18  1  0
 18 19  2  0
 18 20  1  0
 20 21  1  0
  6 22  1  0
 22 23  2  0
 23  3  1  0
 16 10  1  0
  1 24  1  0
  1 25  1  0
  1 26  1  0
  4 27  1  0
  5 28  1  0
 11 29  1  0
 11 30  1  0
 12 31  1  0
 12 32  1  0
 13 33  1  0
 13 34  1  0
 15 35  1  0
 15 36  1  0
 17 37  1  0
 17 38  1  0
 17 39  1  0
 20 40  1  0
 21 41  1  0
 22 42  1  0
 23 43  1  0
M  END
$$$$
