
     RDKit          3D

 47 50  0  0  0  0  0  0  0  0999 V2000
    1.7477   -1.4374    0.3961 C   0  0  2  0  0  0  0  0  0  0  0  0
    3.2050   -1.3529    0.7660 C   0  0  0  0  0  0  0  0  0  0  0  0
    3.9599   -0.3068    0.0838 C   0  0  0  0  0  0  0  0  0  0  0  0
    5.3013   -0.1046   -0.1519 C   0  0  0  0  0  0  0  0  0  0  0  0
    5.4239    1.0584   -0.8515 N   0  0  0  0  0  0  0  0  0  0  0  0
    4.2247    1.6146   -1.0776 C   0  0  0  0  0  0  0  0  0  0  0  0
    3.6481    2.7134   -1.6797 C   0  0  0  0  0  0  0  0  0  0  0  0
    2.2741    2.9181   -1.6829 C   0  0  0  0  0  0  0  0  0  0  0  0
    1.4104    2.0024   -1.0652 C   0  0  0  0  0  0  0  0  0  0  0  0
    1.9392    0.8866   -0.4484 C   0  0  0  0  0  0  0  0  0  0  0  0
    3.3117    0.7623   -0.4936 C   0  0  0  0  0  0  0  0  0  0  0  0
    1.1156   -0.1163    0.2175 C   0  0  0  0  0  0  0  0  0  0  0  0
   -0.0868    0.2981    0.5656 C   0  0  0  0  0  0  0  0  0  0  0  0
   -0.9894   -0.6942    1.2528 C   0  0  2  0  0  0  0  0  0  0  0  0
   -0.4242   -2.0835    1.1317 C   0  0  0  0  0  0  0  0  0  0  0  0
    0.9762   -2.1626    1.3747 N   0  0  0  0  0  0  0  0  0  0  0  0
    1.3542   -3.5712    1.2759 C   0  0  0  0  0  0  0  0  0  0  0  0
   -2.3462   -0.6810    0.6550 C   0  0  0  0  0  0  0  0  0  0  0  0
   -2.8566   -1.7201    0.1227 O   0  0  0  0  0  0  0  0  0  0  0  0
   -3.1210    0.5177    0.6644 N   0  0  0  0  0  0  0  0  0  0  0  0
   -4.4582    0.5065    0.0682 C   0  0  1  0  0  0  0  0  0  0  0  0
   -5.4168    0.8539    1.1791 C   0  0  0  0  0  0  0  0  0  0  0  0
   -4.5207    1.5758   -1.0198 C   0  0  0  0  0  0  0  0  0  0  0  0
   -5.7764    1.5761   -1.5912 O   0  0  0  0  0  0  0  0  0  0  0  0
    1.6936   -1.9323   -0.6165 H   0  0  0  0  0  0  0  0  0  0  0  0
    3.2843   -1.1566    1.8712 H   0  0  0  0  0  0  0  0  0  0  0  0
    3.7282   -2.3142    0.6060 H   0  0  0  0  0  0  0  0  0  0  0  0
    6.1080   -0.7500    0.1610 H   0  0  0  0  0  0  0  0  0  0  0  0
    6.2910    1.5190   -1.1994 H   0  0  0  0  0  0  0  0  0  0  0  0
    4.3543    3.4085   -2.1529 H   0  0  0  0  0  0  0  0  0  0  0  0
    1.8636    3.8022   -2.1726 H   0  0  0  0  0  0  0  0  0  0  0  0
    0.3502    2.1990   -1.0944 H   0  0  0  0  0  0  0  0  0  0  0  0
   -0.5138    1.2525    0.4280 H   0  0  0  0  0  0  0  0  0  0  0  0
   -0.9715   -0.4161    2.3268 H   0  0  0  0  0  0  0  0  0  0  0  0
   -0.9261   -2.7479    1.8647 H   0  0  0  0  0  0  0  0  0  0  0  0
   -0.7222   -2.4880    0.1268 H   0  0  0  0  0  0  0  0  0  0  0  0
    2.2043   -3.8104    1.9748 H   0  0  0  0  0  0  0  0  0  0  0  0
    1.5409   -3.8740    0.2405 H   0  0  0  0  0  0  0  0  0  0  0  0
    0.5107   -4.2218    1.6470 H   0  0  0  0  0  0  0  0  0  0  0  0
   -2.7953    1.4014    1.0692 H   0  0  0  0  0  0  0  0  0  0  0  0
   -4.7274   -0.4868   -0.3407 H   0  0  0  0  0  0  0  0  0  0  0  0
   -4.9100    1.3499    2.0524 H   0  0  0  0  0  0  0  0  0  0  0  0
   -6.1712    1.5932    0.8270 H   0  0  0  0  0  0  0  0  0  0  0  0
   -5.9552   -0.0326    1.5792 H   0  0  0  0  0  0  0  0  0  0  0  0
   -4.3383    2.5599   -0.5107 H   0  0  0  0  0  0  0  0  0  0  0  0
   -3.7246    1.4456   -1.7614 H   0  0  0  0  0  0  0  0  0  0  0  0
   -6.0692    0.6460   -1.7947 H   0  0  0  0  0  0  0  0  0  0  0  0
  1  2  1  0
  2  3  1  0
  3  4  2  0
  4  5  1  0
  5  6  1  0
  6  7  2  0
  7  8  1  0
  8  9  2  0
  9 10  1  0
 10 11  2  0
 10 12  1  0
 12 13  2  0
 13 14  1  0
 14 15  1  0
 15 16  1  0
 16 17  1  0
 14 18  1  0
 18 19  2  0
 18 20  1  0
 20 21  1  0
 21 22  1  0
 21 23  1  0
 23 24  1  0
 12  1  1  0
 16  1  1  0
 11  3  1  0
 11  6  1  0
  1 25  1  6
  2 26  1  0
  2 27  1  0
  4 28  1  0
  5 29  1  0
  7 30  1  0
  8 31  1  0
  9 32  1  0
 13 33  1  0
 14 34  1  1
 15 35  1  0
 15 36  1  0
 17 37  1  0
 17 38  1  0
 17 39  1  0
 20 40  1  0
 21 41  1  6
 22 42  1  0
 22 43  1  0
 22 44  1  0
 23 45  1  0
 23 46  1  0
 24 47  1  0
M  END
$$$$
