@<TRIPOS>MOLECULE
*****
 83 85 0 0 0
SMALL
GASTEIGER

@<TRIPOS>ATOM
      1 C           9.6252   -4.1143    0.2337 C.3     1  UNL1       -0.0653
      2 C          10.0916   -3.0646    1.2464 C.3     1  UNL1       -0.0559
      3 C           9.1464   -1.8723    1.2369 C.3     1  UNL1       -0.0533
      4 C           9.0909   -1.2244   -0.1069 C.3     1  UNL1       -0.0531
      5 C           8.1672   -0.0239   -0.1776 C.3     1  UNL1       -0.0526
      6 C           6.7399   -0.3616    0.1474 C.3     1  UNL1       -0.0455
      7 C           5.8755    0.8916    0.0729 C.3     1  UNL1        0.0162
      8 C           5.8965    1.5150   -1.2880 C.2     1  UNL1        0.1894
      9 O           6.9058    2.0435   -1.7037 O.2     1  UNL1       -0.2852
     10 S           4.4763    1.5087   -2.3252 S.3     1  UNL1       -0.0878
     11 C           2.9943    1.0808   -1.4099 C.3     1  UNL1        0.0044
     12 C           2.5852    2.1846   -0.4623 C.3     1  UNL1       -0.0252
     13 C           1.3508    1.8348    0.2494 C.2     1  UNL1       -0.0837
     14 C           0.7070    0.6859    0.0438 C.2     1  UNL1       -0.0474
     15 C          -0.5368    0.3686    0.7835 C.3     1  UNL1        0.1295
     16 C          -0.7162   -1.2303    0.8674 C.3     1  UNL1        0.0647
     17 C          -1.8493   -1.4532    1.7545 C.2     1  UNL1        0.2172
     18 O          -1.8059   -0.6086    2.7835 O.2     1  UNL1       -0.2757
     19 N          -2.9809   -2.2155    1.9294 N.am    1  UNL1       -0.3091
     20 C          -3.8553   -2.0022    3.1105 C.3     1  UNL1        0.0604
     21 C          -5.2482   -2.4215    2.8660 C.ar    1  UNL1        0.0961
     22 N          -5.9413   -1.7392    2.0305 N.ar    1  UNL1       -0.2404
     23 C          -7.1783   -1.9170    1.7434 C.ar    1  UNL1        0.1027
     24 C          -7.8356   -2.9708    2.4191 C.ar    1  UNL1        0.0054
     25 S          -6.4039   -3.5749    3.4459 S.2     1  UNL1       -0.0783
     26 C          -7.9014   -1.0530    0.7951 C.2     1  UNL1        0.1187
     27 N          -7.7132   -0.8856   -0.4486 N.2     1  UNL1       -0.2585
     28 C          -7.5766    0.5379   -0.8347 C.3     1  UNL1        0.1448
     29 C          -8.2437    0.5731   -2.2253 C.3     1  UNL1       -0.0304
     30 C          -8.4060    1.4088    0.0115 C.3     1  UNL1        0.0333
     31 S          -9.2692    0.1226    1.0625 S.3     1  UNL1       -0.1013
     32 C          -6.1622    0.8696   -0.9020 C.2     1  UNL1        0.2419
     33 O          -5.5305   -0.0791   -1.6696 O.2     1  UNL1       -0.2731
     34 N          -5.1274    1.7070   -0.5542 N.am    1  UNL1       -0.3001
     35 C          -3.7158    1.4540   -0.9626 C.3     1  UNL1        0.1228
     36 C          -3.3347    2.6701   -1.8082 C.3     1  UNL1       -0.0179
     37 C          -4.2080    2.8222   -3.0095 C.3     1  UNL1       -0.0605
     38 C          -1.8878    2.6111   -2.2133 C.3     1  UNL1       -0.0605
     39 C          -2.7815    1.3135    0.1545 C.2     1  UNL1        0.3285
     40 O          -3.0590    1.7594    1.2761 O.2     1  UNL1       -0.2487
     41 O          -1.6098    0.6772   -0.0470 O.3     1  UNL1       -0.4554
     42 H           8.5214   -4.2680    0.2907 H       1  UNL1        0.0230
     43 H          10.1667   -5.0764    0.4184 H       1  UNL1        0.0230
     44 H           9.8795   -3.8009   -0.7957 H       1  UNL1        0.0230
     45 H          11.0991   -2.7315    0.8939 H       1  UNL1        0.0263
     46 H          10.0921   -3.5386    2.2322 H       1  UNL1        0.0263
     47 H           8.1392   -2.1196    1.5816 H       1  UNL1        0.0265
     48 H           9.5798   -1.1271    1.9495 H       1  UNL1        0.0265
     49 H           8.7659   -1.9497   -0.8908 H       1  UNL1        0.0265
     50 H          10.1081   -0.8143   -0.3756 H       1  UNL1        0.0265
     51 H           8.2002    0.3193   -1.2440 H       1  UNL1        0.0265
     52 H           8.5203    0.7585    0.5139 H       1  UNL1        0.0265
     53 H           6.6473   -0.8186    1.1594 H       1  UNL1        0.0270
     54 H           6.3965   -1.0845   -0.6450 H       1  UNL1        0.0270
     55 H           4.8360    0.6459    0.3282 H       1  UNL1        0.0350
     56 H           6.2166    1.6590    0.7868 H       1  UNL1        0.0350
     57 H           2.2020    0.8696   -2.1521 H       1  UNL1        0.0384
     58 H           3.1322    0.1409   -0.8013 H       1  UNL1        0.0384
     59 H           3.3990    2.4837    0.2286 H       1  UNL1        0.0315
     60 H           2.3608    3.0695   -1.1537 H       1  UNL1        0.0315
     61 H           0.9037    2.5313    0.9963 H       1  UNL1        0.0570
     62 H           1.1393    0.0082   -0.6871 H       1  UNL1        0.0605
     63 H          -0.5879    0.7485    1.7802 H       1  UNL1        0.0784
     64 H           0.2123   -1.5379    1.3716 H       1  UNL1        0.0398
     65 H          -0.7184   -1.5067   -0.1568 H       1  UNL1        0.0398
     66 H          -3.3336   -2.9444    1.3559 H       1  UNL1        0.1491
     67 H          -3.8357   -0.8943    3.3538 H       1  UNL1        0.0532
     68 H          -3.4921   -2.5060    3.9963 H       1  UNL1        0.0532
     69 H          -8.7965   -3.3403    2.4203 H       1  UNL1        0.0716
     70 H          -8.5628    1.6226   -2.3856 H       1  UNL1        0.0258
     71 H          -9.1629   -0.0179   -2.1356 H       1  UNL1        0.0258
     72 H          -7.5874    0.1945   -3.0110 H       1  UNL1        0.0258
     73 H          -9.2073    1.9507   -0.5189 H       1  UNL1        0.0409
     74 H          -7.8283    2.0917    0.6832 H       1  UNL1        0.0409
     75 H          -5.1897    2.5467   -0.0210 H       1  UNL1        0.1496
     76 H          -3.5839    0.5860   -1.5951 H       1  UNL1        0.0617
     77 H          -3.4653    3.5848   -1.1608 H       1  UNL1        0.0319
     78 H          -4.1672    1.8748   -3.5843 H       1  UNL1        0.0233
     79 H          -5.2537    2.9494   -2.6970 H       1  UNL1        0.0233
     80 H          -3.8829    3.7081   -3.5895 H       1  UNL1        0.0233
     81 H          -1.2925    3.0899   -1.4041 H       1  UNL1        0.0233
     82 H          -1.5521    1.5723   -2.4213 H       1  UNL1        0.0233
     83 H          -1.7913    3.2426   -3.1385 H       1  UNL1        0.0233
@<TRIPOS>BOND
     1     1     2    1
     2     2     3    1
     3     3     4    1
     4     4     5    1
     5     5     6    1
     6     6     7    1
     7     7     8    1
     8     8     9    2
     9     8    10    1
    10    10    11    1
    11    11    12    1
    12    12    13    1
    13    13    14    2
    14    14    15    1
    15    15    16    1
    16    16    17    1
    17    17    18    2
    18    17    19   am
    19    19    20    1
    20    20    21    1
    21    21    22   ar
    22    22    23   ar
    23    23    24   ar
    24    24    25   ar
    25    23    26    1
    26    26    27    2
    27    27    28    1
    28    28    29    1
    29    28    30    1
    30    30    31    1
    31    28    32    1
    32    32    33    2
    33    32    34   am
    34    34    35    1
    35    35    36    1
    36    36    37    1
    37    36    38    1
    38    35    39    1
    39    39    40    2
    40    39    41    1
    41    41    15    1
    42    25    21   ar
    43    31    26    1
    44     1    42    1
    45     1    43    1
    46     1    44    1
    47     2    45    1
    48     2    46    1
    49     3    47    1
    50     3    48    1
    51     4    49    1
    52     4    50    1
    53     5    51    1
    54     5    52    1
    55     6    53    1
    56     6    54    1
    57     7    55    1
    58     7    56    1
    59    11    57    1
    60    11    58    1
    61    12    59    1
    62    12    60    1
    63    13    61    1
    64    14    62    1
    65    15    63    1
    66    16    64    1
    67    16    65    1
    68    19    66    1
    69    20    67    1
    70    20    68    1
    71    24    69    1
    72    29    70    1
    73    29    71    1
    74    29    72    1
    75    30    73    1
    76    30    74    1
    77    34    75    1
    78    35    76    1
    79    36    77    1
    80    37    78    1
    81    37    79    1
    82    37    80    1
    83    38    81    1
    84    38    82    1
    85    38    83    1
