
     RDKit          3D

 83 85  0  0  0  0  0  0  0  0999 V2000
    9.6252   -4.1143    0.2337 C   0  0  0  0  0  0  0  0  0  0  0  0
   10.0916   -3.0646    1.2464 C   0  0  0  0  0  0  0  0  0  0  0  0
    9.1464   -1.8723    1.2369 C   0  0  0  0  0  0  0  0  0  0  0  0
    9.0909   -1.2244   -0.1069 C   0  0  0  0  0  0  0  0  0  0  0  0
    8.1672   -0.0239   -0.1776 C   0  0  0  0  0  0  0  0  0  0  0  0
    6.7399   -0.3616    0.1474 C   0  0  0  0  0  0  0  0  0  0  0  0
    5.8755    0.8916    0.0729 C   0  0  0  0  0  0  0  0  0  0  0  0
    5.8965    1.5150   -1.2880 C   0  0  0  0  0  0  0  0  0  0  0  0
    6.9058    2.0435   -1.7037 O   0  0  0  0  0  0  0  0  0  0  0  0
    4.4763    1.5087   -2.3252 S   0  0  0  0  0  0  0  0  0  0  0  0
    2.9943    1.0808   -1.4099 C   0  0  0  0  0  0  0  0  0  0  0  0
    2.5852    2.1846   -0.4623 C   0  0  0  0  0  0  0  0  0  0  0  0
    1.3508    1.8348    0.2494 C   0  0  0  0  0  0  0  0  0  0  0  0
    0.7070    0.6859    0.0438 C   0  0  0  0  0  0  0  0  0  0  0  0
   -0.5368    0.3686    0.7835 C   0  0  2  0  0  0  0  0  0  0  0  0
   -0.7162   -1.2303    0.8674 C   0  0  0  0  0  0  0  0  0  0  0  0
   -1.8493   -1.4532    1.7545 C   0  0  0  0  0  0  0  0  0  0  0  0
   -1.8059   -0.6086    2.7835 O   0  0  0  0  0  0  0  0  0  0  0  0
   -2.9809   -2.2155    1.9294 N   0  0  0  0  0  0  0  0  0  0  0  0
   -3.8553   -2.0022    3.1105 C   0  0  0  0  0  0  0  0  0  0  0  0
   -5.2482   -2.4215    2.8660 C   0  0  0  0  0  0  0  0  0  0  0  0
   -5.9413   -1.7392    2.0305 N   0  0  0  0  0  0  0  0  0  0  0  0
   -7.1783   -1.9170    1.7434 C   0  0  0  0  0  0  0  0  0  0  0  0
   -7.8356   -2.9708    2.4191 C   0  0  0  0  0  0  0  0  0  0  0  0
   -6.4039   -3.5749    3.4459 S   0  0  0  0  0  0  0  0  0  0  0  0
   -7.9014   -1.0530    0.7951 C   0  0  0  0  0  0  0  0  0  0  0  0
   -7.7132   -0.8856   -0.4486 N   0  0  0  0  0  0  0  0  0  0  0  0
   -7.5766    0.5379   -0.8347 C   0  0  1  0  0  0  0  0  0  0  0  0
   -8.2437    0.5731   -2.2253 C   0  0  0  0  0  0  0  0  0  0  0  0
   -8.4060    1.4088    0.0115 C   0  0  0  0  0  0  0  0  0  0  0  0
   -9.2692    0.1226    1.0625 S   0  0  0  0  0  0  0  0  0  0  0  0
   -6.1622    0.8696   -0.9020 C   0  0  0  0  0  0  0  0  0  0  0  0
   -5.5305   -0.0791   -1.6696 O   0  0  0  0  0  0  0  0  0  0  0  0
   -5.1274    1.7070   -0.5542 N   0  0  0  0  0  0  0  0  0  0  0  0
   -3.7158    1.4540   -0.9626 C   0  0  1  0  0  0  0  0  0  0  0  0
   -3.3347    2.6701   -1.8082 C   0  0  0  0  0  0  0  0  0  0  0  0
   -4.2080    2.8222   -3.0095 C   0  0  0  0  0  0  0  0  0  0  0  0
   -1.8878    2.6111   -2.2133 C   0  0  0  0  0  0  0  0  0  0  0  0
   -2.7815    1.3135    0.1545 C   0  0  0  0  0  0  0  0  0  0  0  0
   -3.0590    1.7594    1.2761 O   0  0  0  0  0  0  0  0  0  0  0  0
   -1.6098    0.6772   -0.0470 O   0  0  0  0  0  0  0  0  0  0  0  0
    8.5214   -4.2680    0.2907 H   0  0  0  0  0  0  0  0  0  0  0  0
   10.1667   -5.0764    0.4184 H   0  0  0  0  0  0  0  0  0  0  0  0
    9.8795   -3.8009   -0.7957 H   0  0  0  0  0  0  0  0  0  0  0  0
   11.0991   -2.7315    0.8939 H   0  0  0  0  0  0  0  0  0  0  0  0
   10.0921   -3.5386    2.2322 H   0  0  0  0  0  0  0  0  0  0  0  0
    8.1392   -2.1196    1.5816 H   0  0  0  0  0  0  0  0  0  0  0  0
    9.5798   -1.1271    1.9495 H   0  0  0  0  0  0  0  0  0  0  0  0
    8.7659   -1.9497   -0.8908 H   0  0  0  0  0  0  0  0  0  0  0  0
   10.1081   -0.8143   -0.3756 H   0  0  0  0  0  0  0  0  0  0  0  0
    8.2002    0.3193   -1.2440 H   0  0  0  0  0  0  0  0  0  0  0  0
    8.5203    0.7585    0.5139 H   0  0  0  0  0  0  0  0  0  0  0  0
    6.6473   -0.8186    1.1594 H   0  0  0  0  0  0  0  0  0  0  0  0
    6.3965   -1.0845   -0.6450 H   0  0  0  0  0  0  0  0  0  0  0  0
    4.8360    0.6459    0.3282 H   0  0  0  0  0  0  0  0  0  0  0  0
    6.2166    1.6590    0.7868 H   0  0  0  0  0  0  0  0  0  0  0  0
    2.2020    0.8696   -2.1521 H   0  0  0  0  0  0  0  0  0  0  0  0
    3.1322    0.1409   -0.8013 H   0  0  0  0  0  0  0  0  0  0  0  0
    3.3990    2.4837    0.2286 H   0  0  0  0  0  0  0  0  0  0  0  0
    2.3608    3.0695   -1.1537 H   0  0  0  0  0  0  0  0  0  0  0  0
    0.9037    2.5313    0.9963 H   0  0  0  0  0  0  0  0  0  0  0  0
    1.1393    0.0082   -0.6871 H   0  0  0  0  0  0  0  0  0  0  0  0
   -0.5879    0.7485    1.7802 H   0  0  0  0  0  0  0  0  0  0  0  0
    0.2123   -1.5379    1.3716 H   0  0  0  0  0  0  0  0  0  0  0  0
   -0.7184   -1.5067   -0.1568 H   0  0  0  0  0  0  0  0  0  0  0  0
   -3.3336   -2.9444    1.3559 H   0  0  0  0  0  0  0  0  0  0  0  0
   -3.8357   -0.8943    3.3538 H   0  0  0  0  0  0  0  0  0  0  0  0
   -3.4921   -2.5060    3.9963 H   0  0  0  0  0  0  0  0  0  0  0  0
   -8.7965   -3.3403    2.4203 H   0  0  0  0  0  0  0  0  0  0  0  0
   -8.5628    1.6226   -2.3856 H   0  0  0  0  0  0  0  0  0  0  0  0
   -9.1629   -0.0179   -2.1356 H   0  0  0  0  0  0  0  0  0  0  0  0
   -7.5874    0.1945   -3.0110 H   0  0  0  0  0  0  0  0  0  0  0  0
   -9.2073    1.9507   -0.5189 H   0  0  0  0  0  0  0  0  0  0  0  0
   -7.8283    2.0917    0.6832 H   0  0  0  0  0  0  0  0  0  0  0  0
   -5.1897    2.5467   -0.0210 H   0  0  0  0  0  0  0  0  0  0  0  0
   -3.5839    0.5860   -1.5951 H   0  0  0  0  0  0  0  0  0  0  0  0
   -3.4653    3.5848   -1.1608 H   0  0  0  0  0  0  0  0  0  0  0  0
   -4.1672    1.8748   -3.5843 H   0  0  0  0  0  0  0  0  0  0  0  0
   -5.2537    2.9494   -2.6970 H   0  0  0  0  0  0  0  0  0  0  0  0
   -3.8829    3.7081   -3.5895 H   0  0  0  0  0  0  0  0  0  0  0  0
   -1.2925    3.0899   -1.4041 H   0  0  0  0  0  0  0  0  0  0  0  0
   -1.5521    1.5723   -2.4213 H   0  0  0  0  0  0  0  0  0  0  0  0
   -1.7913    3.2426   -3.1385 H   0  0  0  0  0  0  0  0  0  0  0  0
  1  2  1  0
  2  3  1  0
  3  4  1  0
  4  5  1  0
  5  6  1  0
  6  7  1  0
  7  8  1  0
  8  9  2  0
  8 10  1  0
 10 11  1  0
 11 12  1  0
 12 13  1  0
 13 14  2  0
 14 15  1  0
 15 16  1  0
 16 17  1  0
 17 18  2  0
 17 19  1  0
 19 20  1  0
 20 21  1  0
 21 22  2  0
 22 23  1  0
 23 24  2  0
 24 25  1  0
 23 26  1  0
 26 27  2  0
 27 28  1  0
 28 29  1  6
 28 30  1  0
 30 31  1  0
 28 32  1  0
 32 33  2  0
 32 34  1  0
 34 35  1  0
 35 36  1  0
 36 37  1  0
 36 38  1  0
 35 39  1  0
 39 40  2  0
 39 41  1  0
 41 15  1  0
 25 21  1  0
 31 26  1  0
  1 42  1  0
  1 43  1  0
  1 44  1  0
  2 45  1  0
  2 46  1  0
  3 47  1  0
  3 48  1  0
  4 49  1  0
  4 50  1  0
  5 51  1  0
  5 52  1  0
  6 53  1  0
  6 54  1  0
  7 55  1  0
  7 56  1  0
 11 57  1  0
 11 58  1  0
 12 59  1  0
 12 60  1  0
 13 61  1  0
 14 62  1  0
 15 63  1  1
 16 64  1  0
 16 65  1  0
 19 66  1  0
 20 67  1  0
 20 68  1  0
 24 69  1  0
 29 70  1  0
 29 71  1  0
 29 72  1  0
 30 73  1  0
 30 74  1  0
 34 75  1  0
 35 76  1  6
 36 77  1  0
 37 78  1  0
 37 79  1  0
 37 80  1  0
 38 81  1  0
 38 82  1  0
 38 83  1  0
M  END
$$$$
