
     RDKit          3D

 49 52  0  0  0  0  0  0  0  0999 V2000
   -4.3303    2.0046    4.3975 N   0  0  0  0  0  0  0  0  0  0  0  0
   -4.3454    1.0494    3.7102 C   0  0  0  0  0  0  0  0  0  0  0  0
   -4.3874   -0.1267    2.8760 C   0  0  2  0  0  0  0  0  0  0  0  0
   -5.3225   -1.1822    3.4885 C   0  0  0  0  0  0  0  0  0  0  0  0
   -4.9324   -2.3718    2.6403 C   0  0  2  0  0  0  0  0  0  0  0  0
   -5.3654   -3.5748    3.1708 F   0  0  0  0  0  0  0  0  0  0  0  0
   -3.4345   -2.2633    2.6156 C   0  0  0  0  0  0  0  0  0  0  0  0
   -3.1478   -0.7981    2.7474 N   0  0  0  0  0  0  0  0  0  0  0  0
   -1.8307   -0.2904    2.7463 C   0  0  0  0  0  0  0  0  0  0  0  0
   -0.8537   -1.1580    2.6867 O   0  0  0  0  0  0  0  0  0  0  0  0
   -1.4336    1.1139    2.8007 C   0  0  0  0  0  0  0  0  0  0  0  0
   -0.0016    1.2936    2.8037 N   0  0  0  0  0  0  0  0  0  0  0  0
    0.5649    0.9129    1.5459 C   0  0  1  0  0  0  0  0  0  0  0  0
    0.1275    1.6153    0.3039 C   0  0  2  0  0  0  0  0  0  0  0  0
    0.3594    0.9947   -1.0391 C   0  0  0  0  0  0  0  0  0  0  0  0
    1.7651    0.8687   -1.2305 N   0  0  0  0  0  0  0  0  0  0  0  0
    2.3808    0.4132   -2.4553 C   0  0  0  0  0  0  0  0  0  0  0  0
    3.7378    0.5977   -2.5713 C   0  0  0  0  0  0  0  0  0  0  0  0
    4.3676    0.1464   -3.7651 C   0  0  0  0  0  0  0  0  0  0  0  0
    3.5989   -0.4424   -4.7229 C   0  0  0  0  0  0  0  0  0  0  0  0
    4.2418   -0.8946   -5.9370 C   0  0  0  0  0  0  0  0  0  0  0  0
    5.6429   -0.7076   -6.1151 N   0  0  0  0  0  0  0  0  0  0  0  0
    3.5638   -1.4671   -6.8582 O   0  0  0  0  0  0  0  0  0  0  0  0
    2.2165   -0.6346   -4.6144 C   0  0  0  0  0  0  0  0  0  0  0  0
    1.6348   -0.1834   -3.4422 C   0  0  0  0  0  0  0  0  0  0  0  0
    2.4953    1.2455   -0.0661 C   0  0  0  0  0  0  0  0  0  0  0  0
    1.4751    1.8667    0.8410 C   0  0  2  0  0  0  0  0  0  0  0  0
   -4.7516    0.1005    1.8406 H   0  0  0  0  0  0  0  0  0  0  0  0
   -6.3802   -0.9443    3.2604 H   0  0  0  0  0  0  0  0  0  0  0  0
   -5.0831   -1.3130    4.5431 H   0  0  0  0  0  0  0  0  0  0  0  0
   -5.3466   -2.1867    1.6156 H   0  0  0  0  0  0  0  0  0  0  0  0
   -3.0447   -2.5717    1.6034 H   0  0  0  0  0  0  0  0  0  0  0  0
   -2.9492   -2.8211    3.4323 H   0  0  0  0  0  0  0  0  0  0  0  0
   -1.7890    1.5800    3.7520 H   0  0  0  0  0  0  0  0  0  0  0  0
   -1.8895    1.6508    1.9304 H   0  0  0  0  0  0  0  0  0  0  0  0
    0.3764    0.7552    3.6103 H   0  0  0  0  0  0  0  0  0  0  0  0
    0.8379   -0.1689    1.4966 H   0  0  0  0  0  0  0  0  0  0  0  0
   -0.6836    2.3785    0.3824 H   0  0  0  0  0  0  0  0  0  0  0  0
   -0.1374   -0.0053   -1.1679 H   0  0  0  0  0  0  0  0  0  0  0  0
   -0.1206    1.6348   -1.8279 H   0  0  0  0  0  0  0  0  0  0  0  0
    4.3695    1.0535   -1.8340 H   0  0  0  0  0  0  0  0  0  0  0  0
    5.4347    0.2920   -3.8578 H   0  0  0  0  0  0  0  0  0  0  0  0
    5.9567   -0.3518   -7.0204 H   0  0  0  0  0  0  0  0  0  0  0  0
    6.2943   -0.9248   -5.3485 H   0  0  0  0  0  0  0  0  0  0  0  0
    1.6124   -1.0907   -5.3605 H   0  0  0  0  0  0  0  0  0  0  0  0
    0.5573   -0.2883   -3.2442 H   0  0  0  0  0  0  0  0  0  0  0  0
    2.9556    0.3503    0.4381 H   0  0  0  0  0  0  0  0  0  0  0  0
    3.3199    1.9755   -0.2987 H   0  0  0  0  0  0  0  0  0  0  0  0
    1.6742    2.8676    1.2801 H   0  0  0  0  0  0  0  0  0  0  0  0
  1  2  3  0
  2  3  1  0
  3  4  1  0
  4  5  1  0
  5  6  1  0
  5  7  1  0
  7  8  1  0
  8  9  1  0
  9 10  2  0
  9 11  1  0
 11 12  1  0
 12 13  1  0
 13 14  1  0
 14 15  1  0
 15 16  1  0
 16 17  1  0
 17 18  2  0
 18 19  1  0
 19 20  2  0
 20 21  1  0
 21 22  1  0
 21 23  2  0
 20 24  1  0
 24 25  2  0
 16 26  1  0
 26 27  1  0
  8  3  1  0
 27 13  1  0
 27 14  1  0
 25 17  1  0
  3 28  1  6
  4 29  1  0
  4 30  1  0
  5 31  1  6
  7 32  1  0
  7 33  1  0
 11 34  1  0
 11 35  1  0
 12 36  1  0
 13 37  1  6
 14 38  1  1
 15 39  1  0
 15 40  1  0
 18 41  1  0
 19 42  1  0
 22 43  1  0
 22 44  1  0
 24 45  1  0
 25 46  1  0
 26 47  1  0
 26 48  1  0
 27 49  1  1
M  END
$$$$
