@<TRIPOS>MOLECULE
*****
 49 52 0 0 0
SMALL
GASTEIGER

@<TRIPOS>ATOM
      1 N          -4.3303    2.0046    4.3975 N.1     1  UNL1       -0.1946
      2 C          -4.3454    1.0494    3.7102 C.1     1  UNL1        0.0852
      3 C          -4.3874   -0.1267    2.8760 C.3     1  UNL1        0.1157
      4 C          -5.3225   -1.1822    3.4885 C.3     1  UNL1        0.0117
      5 C          -4.9324   -2.3718    2.6403 C.3     1  UNL1        0.1193
      6 F          -5.3654   -3.5748    3.1708 F       1  UNL1       -0.2438
      7 C          -3.4345   -2.2633    2.6156 C.3     1  UNL1        0.0472
      8 N          -3.1478   -0.7981    2.7474 N.am    1  UNL1       -0.2818
      9 C          -1.8307   -0.2904    2.7463 C.2     1  UNL1        0.2305
     10 O          -0.8537   -1.1580    2.6867 O.2     1  UNL1       -0.2742
     11 C          -1.4336    1.1139    2.8007 C.3     1  UNL1        0.0737
     12 N          -0.0016    1.2936    2.8037 N.3     1  UNL1       -0.3048
     13 C           0.5649    0.9129    1.5459 C.3     1  UNL1        0.0172
     14 C           0.1275    1.6153    0.3039 C.3     1  UNL1       -0.0039
     15 C           0.3594    0.9947   -1.0391 C.3     1  UNL1        0.0168
     16 N           1.7651    0.8687   -1.2305 N.pl3   1  UNL1       -0.3292
     17 C           2.3808    0.4132   -2.4553 C.ar    1  UNL1        0.0297
     18 C           3.7378    0.5977   -2.5713 C.ar    1  UNL1       -0.0399
     19 C           4.3676    0.1464   -3.7651 C.ar    1  UNL1       -0.0479
     20 C           3.5989   -0.4424   -4.7229 C.ar    1  UNL1        0.0366
     21 C           4.2418   -0.8946   -5.9370 C.2     1  UNL1        0.2415
     22 N           5.6429   -0.7076   -6.1151 N.am    1  UNL1       -0.3253
     23 O           3.5638   -1.4671   -6.8582 O.2     1  UNL1       -0.2704
     24 C           2.2165   -0.6346   -4.6144 C.ar    1  UNL1       -0.0479
     25 C           1.6348   -0.1834   -3.4422 C.ar    1  UNL1       -0.0399
     26 C           2.4953    1.2455   -0.0661 C.3     1  UNL1        0.0168
     27 C           1.4751    1.8667    0.8410 C.3     1  UNL1       -0.0039
     28 H          -4.7516    0.1005    1.8406 H       1  UNL1        0.0660
     29 H          -6.3802   -0.9443    3.2604 H       1  UNL1        0.0322
     30 H          -5.0831   -1.3130    4.5431 H       1  UNL1        0.0322
     31 H          -5.3466   -2.1867    1.6156 H       1  UNL1        0.0668
     32 H          -3.0447   -2.5717    1.6034 H       1  UNL1        0.0493
     33 H          -2.9492   -2.8211    3.4323 H       1  UNL1        0.0493
     34 H          -1.7890    1.5800    3.7520 H       1  UNL1        0.0520
     35 H          -1.8895    1.6508    1.9304 H       1  UNL1        0.0520
     36 H           0.3764    0.7552    3.6103 H       1  UNL1        0.1227
     37 H           0.8379   -0.1689    1.4966 H       1  UNL1        0.0467
     38 H          -0.6836    2.3785    0.3824 H       1  UNL1        0.0335
     39 H          -0.1374   -0.0053   -1.1679 H       1  UNL1        0.0467
     40 H          -0.1206    1.6348   -1.8279 H       1  UNL1        0.0467
     41 H           4.3695    1.0535   -1.8340 H       1  UNL1        0.0636
     42 H           5.4347    0.2920   -3.8578 H       1  UNL1        0.0626
     43 H           5.9567   -0.3518   -7.0204 H       1  UNL1        0.1453
     44 H           6.2943   -0.9248   -5.3485 H       1  UNL1        0.1453
     45 H           1.6124   -1.0907   -5.3605 H       1  UNL1        0.0626
     46 H           0.5573   -0.2883   -3.2442 H       1  UNL1        0.0636
     47 H           2.9556    0.3503    0.4381 H       1  UNL1        0.0467
     48 H           3.3199    1.9755   -0.2987 H       1  UNL1        0.0467
     49 H           1.6742    2.8676    1.2801 H       1  UNL1        0.0335
@<TRIPOS>BOND
     1     1     2    3
     2     2     3    1
     3     3     4    1
     4     4     5    1
     5     5     6    1
     6     5     7    1
     7     7     8    1
     8     8     9   am
     9     9    10    2
    10     9    11    1
    11    11    12    1
    12    12    13    1
    13    13    14    1
    14    14    15    1
    15    15    16    1
    16    16    17    1
    17    17    18   ar
    18    18    19   ar
    19    19    20   ar
    20    20    21    1
    21    21    22   am
    22    21    23    2
    23    20    24   ar
    24    24    25   ar
    25    16    26    1
    26    26    27    1
    27     8     3    1
    28    27    13    1
    29    27    14    1
    30    25    17   ar
    31     3    28    1
    32     4    29    1
    33     4    30    1
    34     5    31    1
    35     7    32    1
    36     7    33    1
    37    11    34    1
    38    11    35    1
    39    12    36    1
    40    13    37    1
    41    14    38    1
    42    15    39    1
    43    15    40    1
    44    18    41    1
    45    19    42    1
    46    22    43    1
    47    22    44    1
    48    24    45    1
    49    25    46    1
    50    26    47    1
    51    26    48    1
    52    27    49    1
