
     RDKit          3D

 52 54  0  0  0  0  0  0  0  0999 V2000
    4.6668    1.8594    2.6202 N   0  0  0  0  0  0  0  0  0  0  0  0
    5.1164    2.0411    1.3049 C   0  0  0  0  0  0  0  0  0  0  0  0
    5.5860    2.2242   -0.0561 C   0  0  0  0  0  0  0  0  0  0  0  0
    6.9258    2.2745   -0.1017 C   0  0  0  0  0  0  0  0  0  0  0  0
    7.3730    2.6424   -1.4227 C   0  0  0  0  0  0  0  0  0  0  0  0
    6.4194    2.8758   -2.4022 C   0  0  0  0  0  0  0  0  0  0  0  0
    5.0589    2.7841   -2.1772 C   0  0  0  0  0  0  0  0  0  0  0  0
    4.5504    2.4257   -0.8852 C   0  0  0  0  0  0  0  0  0  0  0  0
    3.2105    2.5280   -0.4693 C   0  0  0  0  0  0  0  0  0  0  0  0
    2.7986    3.8172   -0.5501 O   0  0  0  0  0  0  0  0  0  0  0  0
    2.2279    1.6893    0.0076 N   0  0  0  0  0  0  0  0  0  0  0  0
    2.2635    0.2871    0.1697 C   0  0  0  0  0  0  0  0  0  0  0  0
    1.0095   -0.4510    0.5159 C   0  0  0  0  0  0  0  0  0  0  0  0
   -0.1641    0.3315    1.0561 C   0  0  0  0  0  0  0  0  0  0  0  0
   -1.4148   -0.4140    0.9053 C   0  0  0  0  0  0  0  0  0  0  0  0
   -2.1675   -0.1808   -0.2645 C   0  0  0  0  0  0  0  0  0  0  0  0
   -3.3360   -0.8419   -0.5378 C   0  0  0  0  0  0  0  0  0  0  0  0
   -3.7817   -1.8152    0.4539 C   0  0  0  0  0  0  0  0  0  0  0  0
   -5.0223   -2.5027    0.1126 C   0  0  0  0  0  0  0  0  0  0  0  0
   -5.7646   -2.8566    1.1116 O   0  0  0  0  0  0  0  0  0  0  0  0
   -5.4255   -2.7749   -1.1758 N   0  0  0  0  0  0  0  0  0  0  0  0
   -6.6829   -3.4072   -1.4871 C   0  0  0  0  0  0  0  0  0  0  0  0
   -7.4499   -3.6443   -0.4793 N   0  0  0  0  0  0  0  0  0  0  0  0
   -7.0283   -3.6927   -2.8257 N   0  0  0  0  0  0  0  0  0  0  0  0
   -3.0317   -1.9961    1.5470 C   0  0  0  0  0  0  0  0  0  0  0  0
   -1.8433   -1.3053    1.8045 C   0  0  0  0  0  0  0  0  0  0  0  0
   -1.1480   -1.5721    3.1041 C   0  0  0  0  0  0  0  0  0  0  0  0
   -1.9398   -2.4523    3.8429 F   0  0  0  0  0  0  0  0  0  0  0  0
   -1.0612   -0.4055    3.8365 F   0  0  0  0  0  0  0  0  0  0  0  0
    0.0466   -2.2466    2.9947 F   0  0  0  0  0  0  0  0  0  0  0  0
   -0.1535    1.5352    0.0414 C   0  0  0  0  0  0  0  0  0  0  0  0
    1.0123    2.3612    0.5330 C   0  0  0  0  0  0  0  0  0  0  0  0
    7.6441    2.1144    0.6587 H   0  0  0  0  0  0  0  0  0  0  0  0
    8.4081    2.7339   -1.5983 H   0  0  0  0  0  0  0  0  0  0  0  0
    6.8069    3.1379   -3.3987 H   0  0  0  0  0  0  0  0  0  0  0  0
    4.3841    2.9844   -2.9667 H   0  0  0  0  0  0  0  0  0  0  0  0
    3.0404    0.0081    0.9549 H   0  0  0  0  0  0  0  0  0  0  0  0
    2.7403   -0.1690   -0.7746 H   0  0  0  0  0  0  0  0  0  0  0  0
    0.6045   -0.7043   -0.5749 H   0  0  0  0  0  0  0  0  0  0  0  0
    1.2426   -1.4039    0.9751 H   0  0  0  0  0  0  0  0  0  0  0  0
    0.0478    0.7808    2.0125 H   0  0  0  0  0  0  0  0  0  0  0  0
   -1.8408    0.5528   -1.0136 H   0  0  0  0  0  0  0  0  0  0  0  0
   -3.9377   -0.6853   -1.3905 H   0  0  0  0  0  0  0  0  0  0  0  0
   -4.8313   -2.5656   -2.0072 H   0  0  0  0  0  0  0  0  0  0  0  0
   -8.4062   -4.1599   -0.9335 H   0  0  0  0  0  0  0  0  0  0  0  0
   -6.3851   -3.8417   -3.5817 H   0  0  0  0  0  0  0  0  0  0  0  0
   -8.0766   -3.7382   -3.0284 H   0  0  0  0  0  0  0  0  0  0  0  0
   -3.3791   -2.7830    2.2859 H   0  0  0  0  0  0  0  0  0  0  0  0
   -1.1184    1.9868    0.0523 H   0  0  0  0  0  0  0  0  0  0  0  0
    0.1309    1.0409   -0.9512 H   0  0  0  0  0  0  0  0  0  0  0  0
    1.1021    2.1824    1.6427 H   0  0  0  0  0  0  0  0  0  0  0  0
    0.9728    3.4112    0.2726 H   0  0  0  0  0  0  0  0  0  0  0  0
  1  2  3  0
  2  3  1  0
  3  4  2  0
  4  5  1  0
  5  6  2  0
  6  7  1  0
  7  8  2  0
  8  9  1  0
  9 10  2  0
  9 11  1  0
 11 12  1  0
 12 13  1  0
 13 14  1  0
 14 15  1  0
 15 16  2  0
 16 17  1  0
 17 18  2  0
 18 19  1  0
 19 20  2  0
 19 21  1  0
 21 22  1  0
 22 23  2  3
 22 24  1  0
 18 25  1  0
 25 26  2  0
 26 27  1  0
 27 28  1  0
 27 29  1  0
 27 30  1  0
 14 31  1  0
 31 32  1  0
  8  3  1  0
 32 11  1  0
 26 15  1  0
  4 33  1  0
  5 34  1  0
  6 35  1  0
  7 36  1  0
 12 37  1  0
 12 38  1  0
 13 39  1  0
 13 40  1  0
 14 41  1  0
 16 42  1  0
 17 43  1  0
 21 44  1  0
 23 45  1  0
 24 46  1  0
 24 47  1  0
 25 48  1  0
 31 49  1  0
 31 50  1  0
 32 51  1  0
 32 52  1  0
M  END
$$$$
