@<TRIPOS>MOLECULE
*****
 52 54 0 0 0
SMALL
GASTEIGER

@<TRIPOS>ATOM
      1 N           4.6668    1.8594    2.6202 N.1     1  UNL1       -0.1908
      2 C           5.1164    2.0411    1.3049 C.1     1  UNL1        0.0999
      3 C           5.5860    2.2242   -0.0561 C.ar    1  UNL1        0.0639
      4 C           6.9258    2.2745   -0.1017 C.ar    1  UNL1       -0.0436
      5 C           7.3730    2.6424   -1.4227 C.ar    1  UNL1       -0.0605
      6 C           6.4194    2.8758   -2.4022 C.ar    1  UNL1       -0.0610
      7 C           5.0589    2.7841   -2.1772 C.ar    1  UNL1       -0.0484
      8 C           4.5504    2.4257   -0.8852 C.ar    1  UNL1        0.0542
      9 C           3.2105    2.5280   -0.4693 C.2     1  UNL1        0.2479
     10 O           2.7986    3.8172   -0.5501 O.2     1  UNL1       -0.2699
     11 N           2.2279    1.6893    0.0076 N.am    1  UNL1       -0.2975
     12 C           2.2635    0.2871    0.1697 C.3     1  UNL1        0.0155
     13 C           1.0095   -0.4510    0.5159 C.3     1  UNL1       -0.0302
     14 C          -0.1641    0.3315    1.0561 C.3     1  UNL1       -0.0125
     15 C          -1.4148   -0.4140    0.9053 C.ar    1  UNL1       -0.0325
     16 C          -2.1675   -0.1808   -0.2645 C.ar    1  UNL1       -0.0570
     17 C          -3.3360   -0.8419   -0.5378 C.ar    1  UNL1       -0.0479
     18 C          -3.7817   -1.8152    0.4539 C.ar    1  UNL1        0.0536
     19 C          -5.0223   -2.5027    0.1126 C.2     1  UNL1        0.3066
     20 O          -5.7646   -2.8566    1.1116 O.2     1  UNL1       -0.2516
     21 N          -5.4255   -2.7749   -1.1758 N.am    1  UNL1       -0.1709
     22 C          -6.6829   -3.4072   -1.4871 C.2     1  UNL1        0.3751
     23 N          -7.4499   -3.6443   -0.4793 N.pl3   1  UNL1       -0.1313
     24 N          -7.0283   -3.6927   -2.8257 N.pl3   1  UNL1       -0.2906
     25 C          -3.0317   -1.9961    1.5470 C.ar    1  UNL1       -0.0363
     26 C          -1.8433   -1.3053    1.8045 C.ar    1  UNL1        0.0590
     27 C          -1.1480   -1.5721    3.1041 C.3     1  UNL1        0.4177
     28 F          -1.9398   -2.4523    3.8429 F       1  UNL1       -0.1659
     29 F          -1.0612   -0.4055    3.8365 F       1  UNL1       -0.1659
     30 F           0.0466   -2.2466    2.9947 F       1  UNL1       -0.1659
     31 C          -0.1535    1.5352    0.0414 C.3     1  UNL1       -0.0302
     32 C           1.0123    2.3612    0.5330 C.3     1  UNL1        0.0155
     33 H           7.6441    2.1144    0.6587 H       1  UNL1        0.0631
     34 H           8.4081    2.7339   -1.5983 H       1  UNL1        0.0618
     35 H           6.8069    3.1379   -3.3987 H       1  UNL1        0.0618
     36 H           4.3841    2.9844   -2.9667 H       1  UNL1        0.0625
     37 H           3.0404    0.0081    0.9549 H       1  UNL1        0.0465
     38 H           2.7403   -0.1690   -0.7746 H       1  UNL1        0.0465
     39 H           0.6045   -0.7043   -0.5749 H       1  UNL1        0.0286
     40 H           1.2426   -1.4039    0.9751 H       1  UNL1        0.0286
     41 H           0.0478    0.7808    2.0125 H       1  UNL1        0.0350
     42 H          -1.8408    0.5528   -1.0136 H       1  UNL1        0.0621
     43 H          -3.9377   -0.6853   -1.3905 H       1  UNL1        0.0626
     44 H          -4.8313   -2.5656   -2.0072 H       1  UNL1        0.2545
     45 H          -8.4062   -4.1599   -0.9335 H       1  UNL1        0.3060
     46 H          -6.3851   -3.8417   -3.5817 H       1  UNL1        0.2545
     47 H          -8.0766   -3.7382   -3.0284 H       1  UNL1        0.2545
     48 H          -3.3791   -2.7830    2.2859 H       1  UNL1        0.0631
     49 H          -1.1184    1.9868    0.0523 H       1  UNL1        0.0286
     50 H           0.1309    1.0409   -0.9512 H       1  UNL1        0.0286
     51 H           1.1021    2.1824    1.6427 H       1  UNL1        0.0465
     52 H           0.9728    3.4112    0.2726 H       1  UNL1        0.0465
@<TRIPOS>BOND
     1     1     2    3
     2     2     3    1
     3     3     4   ar
     4     4     5   ar
     5     5     6   ar
     6     6     7   ar
     7     7     8   ar
     8     8     9    1
     9     9    10    2
    10     9    11   am
    11    11    12    1
    12    12    13    1
    13    13    14    1
    14    14    15    1
    15    15    16   ar
    16    16    17   ar
    17    17    18   ar
    18    18    19    1
    19    19    20    2
    20    19    21   am
    21    21    22    1
    22    22    23    2
    23    22    24    1
    24    18    25   ar
    25    25    26   ar
    26    26    27    1
    27    27    28    1
    28    27    29    1
    29    27    30    1
    30    14    31    1
    31    31    32    1
    32     8     3   ar
    33    32    11    1
    34    26    15   ar
    35     4    33    1
    36     5    34    1
    37     6    35    1
    38     7    36    1
    39    12    37    1
    40    12    38    1
    41    13    39    1
    42    13    40    1
    43    14    41    1
    44    16    42    1
    45    17    43    1
    46    21    44    1
    47    23    45    1
    48    24    46    1
    49    24    47    1
    50    25    48    1
    51    31    49    1
    52    31    50    1
    53    32    51    1
    54    32    52    1
