@<TRIPOS>MOLECULE
*****
 54 54 0 0 0
SMALL
GASTEIGER

@<TRIPOS>ATOM
      1 CA         -4.6080    3.0384    0.1327 C.3     1  PHE1        0.1174
      2 CB         -4.9123    3.6612   -1.2357 C.3     1  PHE1       -0.0362
      3 N          -3.8329    1.8256   -0.1574 N.am    1  PHE1       -0.3010
      4 C          -2.4917    1.8139    0.3222 C.2     1  PHE1        0.2343
      5 O          -1.8875    2.7229    0.9681 O.2     1  PHE1       -0.2738
      6 CA         -1.6837    0.5749    0.0317 C.3     1  PHE1        0.1033
      7 CB         -2.3518   -0.6087    0.6339 C.3     1  PHE1       -0.0007
      8 CG         -1.6959   -1.9010    0.4450 C.ar    1  PHE1       -0.0451
      9 CD1        -1.9037   -2.7765   -0.5999 C.ar    1  PHE1       -0.0585
     10 CE1        -1.2134   -3.9740   -0.6590 C.ar    1  PHE1       -0.0615
     11 CZ         -0.3094   -4.3055    0.3271 C.ar    1  PHE1       -0.0617
     12 CE2        -0.0617   -3.4666    1.3968 C.ar    1  PHE1       -0.0615
     13 CD2        -0.7765   -2.2759    1.4156 C.ar    1  PHE1       -0.0585
     14 N          -0.3497    0.6954    0.5707 N.am    1  PHE1       -0.3028
     15 C           0.7549    0.7420   -0.3094 C.2     0  UNK0        0.2263
     16 O           0.7392    0.6907   -1.5599 O.2     0  UNK0       -0.2746
     17 C           2.1679    0.8681    0.2233 C.3     0  UNK0        0.0784
     18 S           2.4868   -0.3652    1.4792 S.3     0  UNK0       -0.1655
     19 C           3.1244    0.8936   -0.9171 C.3     0  UNK0       -0.0330
     20 C           4.5639    1.0263   -0.5954 C.3     0  UNK0       -0.0516
     21 C           5.1868   -0.0353    0.2349 C.3     0  UNK0       -0.0533
     22 C           5.1074   -1.4195   -0.3672 C.3     0  UNK0       -0.0559
     23 C           5.7662   -2.4114    0.5623 C.3     0  UNK0       -0.0653
     24 C          -5.8501    2.7518    0.8541 C.2     1  PHE1        0.3250
     25 O          -6.6490    3.8246    1.1734 O.3     1  PHE1       -0.4793
     26 OXT        -6.2431    1.6053    1.2038 O.2     1  PHE1       -0.2489
     27 HA         -3.9506    3.7305    0.6958 H       1  PHE1        0.0611
     28 HB1        -5.4321    2.9560   -1.8900 H       1  PHE1        0.0253
     29 HB2        -5.5127    4.5808   -1.1309 H       1  PHE1        0.0253
     30 HB3        -3.9569    3.9067   -1.7411 H       1  PHE1        0.0253
     31 H          -4.2085    1.0216   -0.6713 H       1  PHE1        0.1496
     32 HA         -1.5984    0.5371   -1.0683 H       1  PHE1        0.0598
     33 HB1        -2.5358   -0.4031    1.7058 H       1  PHE1        0.0336
     34 HB2        -3.3817   -0.6568    0.1748 H       1  PHE1        0.0336
     35 HD1        -2.6342   -2.4433   -1.3407 H       1  PHE1        0.0620
     36 HE1        -1.4220   -4.6115   -1.5004 H       1  PHE1        0.0618
     37 HZ          0.2157   -5.2652    0.2403 H       1  PHE1        0.0618
     38 HE2         0.6403   -3.7158    2.1696 H       1  PHE1        0.0618
     39 HD2        -0.5648   -1.6301    2.2685 H       1  PHE1        0.0620
     40 H          -0.1438    0.7517    1.5950 H       1  PHE1        0.1495
     41 H           2.1938    1.8665    0.7152 H       0  UNK0        0.0504
     42 H           2.2839   -1.6728    1.0604 H       0  UNK0        0.1024
     43 H           2.9309    0.0539   -1.6521 H       0  UNK0        0.0280
     44 H           2.8623    1.8058   -1.5372 H       0  UNK0        0.0280
     45 H           5.1188    1.2114   -1.5420 H       0  UNK0        0.0266
     46 H           4.6752    1.9862   -0.0120 H       0  UNK0        0.0266
     47 H           4.9279    0.0296    1.2872 H       0  UNK0        0.0265
     48 H           6.3063    0.1974    0.2163 H       0  UNK0        0.0265
     49 H           4.1065   -1.7704   -0.6003 H       0  UNK0        0.0263
     50 H           5.7098   -1.4692   -1.3201 H       0  UNK0        0.0263
     51 H           6.7486   -2.0319    0.9233 H       0  UNK0        0.0230
     52 H           5.8635   -3.3677   -0.0013 H       0  UNK0        0.0230
     53 H           5.0761   -2.5350    1.4373 H       0  UNK0        0.0230
     54 H          -7.3952    3.7427    1.8661 H       1  PHE1        0.2951
@<TRIPOS>BOND
     1     1     2    1
     2     1     3    1
     3     3     4   am
     4     4     5    2
     5     4     6    1
     6     6     7    1
     7     7     8    1
     8     8     9   ar
     9     9    10   ar
    10    10    11   ar
    11    11    12   ar
    12    12    13   ar
    13     6    14    1
    14    14    15   am
    15    15    16    2
    16    15    17    1
    17    17    18    1
    18    17    19    1
    19    19    20    1
    20    20    21    1
    21    21    22    1
    22    22    23    1
    23     1    24    1
    24    24    25    1
    25    24    26    2
    26    13     8   ar
    27     1    27    1
    28     2    28    1
    29     2    29    1
    30     2    30    1
    31     3    31    1
    32     6    32    1
    33     7    33    1
    34     7    34    1
    35     9    35    1
    36    10    36    1
    37    11    37    1
    38    12    38    1
    39    13    39    1
    40    14    40    1
    41    17    41    1
    42    18    42    1
    43    19    43    1
    44    19    44    1
    45    20    45    1
    46    20    46    1
    47    21    47    1
    48    21    48    1
    49    22    49    1
    50    22    50    1
    51    23    51    1
    52    23    52    1
    53    23    53    1
    54    25    54    1
