@<TRIPOS>MOLECULE
*****
 43 45 0 0 0
SMALL
GASTEIGER

@<TRIPOS>ATOM
      1 C          -0.1000   -0.5419    2.0668 C.3     1  UNL1       -0.0606
      2 C          -0.0140    0.5883    1.0591 C.3     1  UNL1       -0.0224
      3 C          -1.1614    1.5474    1.3761 C.3     1  UNL1       -0.0328
      4 C          -1.9999    1.8612    0.1357 C.3     1  UNL1        0.0151
      5 N          -2.4935    0.6654   -0.4670 N.am    1  UNL1       -0.2989
      6 C          -3.6988    0.5668   -1.1569 C.2     1  UNL1        0.2295
      7 O          -3.9292   -0.7158   -1.5122 O.2     1  UNL1       -0.2745
      8 C          -4.7071    1.4539   -1.5657 C.3     1  UNL1        0.1112
      9 C          -5.3120    2.4014   -0.7149 C.1     1  UNL1        0.0719
     10 N          -5.8205    3.2076    0.0173 N.1     1  UNL1       -0.1961
     11 C          -1.5832   -0.5117   -0.3951 C.3     1  UNL1        0.0335
     12 C          -0.1766    0.0851   -0.3491 C.3     1  UNL1        0.0429
     13 N           0.7789   -0.8272   -0.8549 N.pl3   1  UNL1       -0.3128
     14 C           0.6759   -1.2824   -2.2711 C.3     1  UNL1        0.0024
     15 C           1.8493   -1.3692   -0.1358 C.ar    1  UNL1        0.1338
     16 N           1.8153   -2.6632    0.3132 N.ar    1  UNL1       -0.2200
     17 C           2.8143   -3.2512    0.9714 C.ar    1  UNL1        0.1204
     18 N           3.9596   -2.5721    1.2372 N.ar    1  UNL1       -0.2178
     19 C           4.0620   -1.3150    0.8307 C.ar    1  UNL1        0.1432
     20 N           5.1121   -0.4545    0.9705 N.ar    1  UNL1       -0.3457
     21 C           4.7258    0.6814    0.3843 C.ar    1  UNL1        0.0042
     22 C           3.4521    0.5758   -0.1345 C.ar    1  UNL1       -0.0318
     23 C           3.0232   -0.6995    0.1494 C.ar    1  UNL1        0.0585
     24 H          -0.9585   -0.4190    2.7800 H       1  UNL1        0.0233
     25 H           0.8175   -0.6009    2.6832 H       1  UNL1        0.0233
     26 H          -0.3065   -1.5377    1.5939 H       1  UNL1        0.0233
     27 H           0.9219    1.1480    1.1445 H       1  UNL1        0.0317
     28 H          -0.7776    2.4662    1.7969 H       1  UNL1        0.0284
     29 H          -1.8559    1.0767    2.0853 H       1  UNL1        0.0284
     30 H          -1.4729    2.5229   -0.5735 H       1  UNL1        0.0465
     31 H          -2.8484    2.4564    0.5127 H       1  UNL1        0.0465
     32 H          -4.2699    2.0969   -2.4506 H       1  UNL1        0.0513
     33 H          -5.4980    0.8685   -2.1681 H       1  UNL1        0.0513
     34 H          -1.7553   -1.0247   -1.3640 H       1  UNL1        0.0483
     35 H          -1.8400   -1.0809    0.4916 H       1  UNL1        0.0483
     36 H          -0.2231    0.9571   -1.0492 H       1  UNL1        0.0518
     37 H           1.4796   -2.0026   -2.4885 H       1  UNL1        0.0428
     38 H           0.6711   -0.4210   -2.9481 H       1  UNL1        0.0428
     39 H          -0.2736   -1.8429   -2.3940 H       1  UNL1        0.0428
     40 H           2.7085   -4.2860    1.2947 H       1  UNL1        0.1048
     41 H           6.0298   -0.6798    1.4390 H       1  UNL1        0.1668
     42 H           5.3326    1.5743    0.3217 H       1  UNL1        0.0807
     43 H           2.8463    1.2982   -0.6620 H       1  UNL1        0.0640
@<TRIPOS>BOND
     1     1     2    1
     2     2     3    1
     3     3     4    1
     4     4     5    1
     5     5     6   am
     6     6     7    2
     7     6     8    1
     8     8     9    1
     9     9    10    3
    10     5    11    1
    11    11    12    1
    12    12    13    1
    13    13    14    1
    14    13    15    1
    15    15    16   ar
    16    16    17   ar
    17    17    18   ar
    18    18    19   ar
    19    19    20   ar
    20    20    21   ar
    21    21    22   ar
    22    22    23   ar
    23    12     2    1
    24    23    15   ar
    25    23    19   ar
    26     1    24    1
    27     1    25    1
    28     1    26    1
    29     2    27    1
    30     3    28    1
    31     3    29    1
    32     4    30    1
    33     4    31    1
    34     8    32    1
    35     8    33    1
    36    11    34    1
    37    11    35    1
    38    12    36    1
    39    14    37    1
    40    14    38    1
    41    14    39    1
    42    17    40    1
    43    20    41    1
    44    21    42    1
    45    22    43    1
