
     RDKit          3D

 43 45  0  0  0  0  0  0  0  0999 V2000
   -0.1000   -0.5419    2.0668 C   0  0  0  0  0  0  0  0  0  0  0  0
   -0.0140    0.5883    1.0591 C   0  0  2  0  0  0  0  0  0  0  0  0
   -1.1614    1.5474    1.3761 C   0  0  0  0  0  0  0  0  0  0  0  0
   -1.9999    1.8612    0.1357 C   0  0  0  0  0  0  0  0  0  0  0  0
   -2.4935    0.6654   -0.4670 N   0  0  0  0  0  0  0  0  0  0  0  0
   -3.6988    0.5668   -1.1569 C   0  0  0  0  0  0  0  0  0  0  0  0
   -3.9292   -0.7158   -1.5122 O   0  0  0  0  0  0  0  0  0  0  0  0
   -4.7071    1.4539   -1.5657 C   0  0  0  0  0  0  0  0  0  0  0  0
   -5.3120    2.4014   -0.7149 C   0  0  0  0  0  0  0  0  0  0  0  0
   -5.8205    3.2076    0.0173 N   0  0  0  0  0  0  0  0  0  0  0  0
   -1.5832   -0.5117   -0.3951 C   0  0  0  0  0  0  0  0  0  0  0  0
   -0.1766    0.0851   -0.3491 C   0  0  2  0  0  0  0  0  0  0  0  0
    0.7789   -0.8272   -0.8549 N   0  0  0  0  0  0  0  0  0  0  0  0
    0.6759   -1.2824   -2.2711 C   0  0  0  0  0  0  0  0  0  0  0  0
    1.8493   -1.3692   -0.1358 C   0  0  0  0  0  0  0  0  0  0  0  0
    1.8153   -2.6632    0.3132 N   0  0  0  0  0  0  0  0  0  0  0  0
    2.8143   -3.2512    0.9714 C   0  0  0  0  0  0  0  0  0  0  0  0
    3.9596   -2.5721    1.2372 N   0  0  0  0  0  0  0  0  0  0  0  0
    4.0620   -1.3150    0.8307 C   0  0  0  0  0  0  0  0  0  0  0  0
    5.1121   -0.4545    0.9705 N   0  0  0  0  0  0  0  0  0  0  0  0
    4.7258    0.6814    0.3843 C   0  0  0  0  0  0  0  0  0  0  0  0
    3.4521    0.5758   -0.1345 C   0  0  0  0  0  0  0  0  0  0  0  0
    3.0232   -0.6995    0.1494 C   0  0  0  0  0  0  0  0  0  0  0  0
   -0.9585   -0.4190    2.7800 H   0  0  0  0  0  0  0  0  0  0  0  0
    0.8175   -0.6009    2.6832 H   0  0  0  0  0  0  0  0  0  0  0  0
   -0.3065   -1.5377    1.5939 H   0  0  0  0  0  0  0  0  0  0  0  0
    0.9219    1.1480    1.1445 H   0  0  0  0  0  0  0  0  0  0  0  0
   -0.7776    2.4662    1.7969 H   0  0  0  0  0  0  0  0  0  0  0  0
   -1.8559    1.0767    2.0853 H   0  0  0  0  0  0  0  0  0  0  0  0
   -1.4729    2.5229   -0.5735 H   0  0  0  0  0  0  0  0  0  0  0  0
   -2.8484    2.4564    0.5127 H   0  0  0  0  0  0  0  0  0  0  0  0
   -4.2699    2.0969   -2.4506 H   0  0  0  0  0  0  0  0  0  0  0  0
   -5.4980    0.8685   -2.1681 H   0  0  0  0  0  0  0  0  0  0  0  0
   -1.7553   -1.0247   -1.3640 H   0  0  0  0  0  0  0  0  0  0  0  0
   -1.8400   -1.0809    0.4916 H   0  0  0  0  0  0  0  0  0  0  0  0
   -0.2231    0.9571   -1.0492 H   0  0  0  0  0  0  0  0  0  0  0  0
    1.4796   -2.0026   -2.4885 H   0  0  0  0  0  0  0  0  0  0  0  0
    0.6711   -0.4210   -2.9481 H   0  0  0  0  0  0  0  0  0  0  0  0
   -0.2736   -1.8429   -2.3940 H   0  0  0  0  0  0  0  0  0  0  0  0
    2.7085   -4.2860    1.2947 H   0  0  0  0  0  0  0  0  0  0  0  0
    6.0298   -0.6798    1.4390 H   0  0  0  0  0  0  0  0  0  0  0  0
    5.3326    1.5743    0.3217 H   0  0  0  0  0  0  0  0  0  0  0  0
    2.8463    1.2982   -0.6620 H   0  0  0  0  0  0  0  0  0  0  0  0
  1  2  1  0
  2  3  1  0
  3  4  1  0
  4  5  1  0
  5  6  1  0
  6  7  2  0
  6  8  1  0
  8  9  1  0
  9 10  3  0
  5 11  1  0
 11 12  1  0
 12 13  1  0
 13 14  1  0
 13 15  1  0
 15 16  2  0
 16 17  1  0
 17 18  2  0
 18 19  1  0
 19 20  1  0
 20 21  1  0
 21 22  2  0
 22 23  1  0
 12  2  1  0
 23 15  1  0
 23 19  2  0
  1 24  1  0
  1 25  1  0
  1 26  1  0
  2 27  1  6
  3 28  1  0
  3 29  1  0
  4 30  1  0
  4 31  1  0
  8 32  1  0
  8 33  1  0
 11 34  1  0
 11 35  1  0
 12 36  1  6
 14 37  1  0
 14 38  1  0
 14 39  1  0
 17 40  1  0
 20 41  1  0
 21 42  1  0
 22 43  1  0
M  END
$$$$
