
     RDKit          3D

 58 63  0  0  0  0  0  0  0  0999 V2000
  -10.0764    1.6341   -0.9360 C   0  0  0  0  0  0  0  0  0  0  0  0
   -9.3101    1.1610    0.1740 O   0  0  0  0  0  0  0  0  0  0  0  0
   -8.0013    0.7103   -0.0741 C   0  0  0  0  0  0  0  0  0  0  0  0
   -7.2427    0.2496    0.9791 C   0  0  0  0  0  0  0  0  0  0  0  0
   -5.9963   -0.1870    0.7866 N   0  0  0  0  0  0  0  0  0  0  0  0
   -5.4767   -0.1769   -0.4462 C   0  0  0  0  0  0  0  0  0  0  0  0
   -4.1039   -0.6546   -0.6775 C   0  0  0  0  0  0  0  0  0  0  0  0
   -3.6016   -0.6512   -1.8309 O   0  0  0  0  0  0  0  0  0  0  0  0
   -3.3038   -1.1325    0.3846 N   0  0  0  0  0  0  0  0  0  0  0  0
   -1.9561   -1.6036    0.1701 C   0  0  0  0  0  0  0  0  0  0  0  0
   -1.7465   -2.9358   -0.1156 C   0  0  0  0  0  0  0  0  0  0  0  0
   -0.4593   -3.3467   -0.3126 C   0  0  0  0  0  0  0  0  0  0  0  0
    0.6466   -2.5082   -0.2430 C   0  0  0  0  0  0  0  0  0  0  0  0
    0.4341   -1.1908    0.0399 C   0  0  0  0  0  0  0  0  0  0  0  0
   -0.8833   -0.7553    0.2445 C   0  0  0  0  0  0  0  0  0  0  0  0
    1.5153   -0.1709    0.1448 C   0  0  0  0  0  0  0  0  0  0  0  0
    1.2493    0.9763   -0.7929 C   0  0  0  0  0  0  0  0  0  0  0  0
    1.2619    2.3151   -0.1758 C   0  0  0  0  0  0  0  0  0  0  0  0
    0.6399    2.3213    1.0940 O   0  0  0  0  0  0  0  0  0  0  0  0
    1.1037    1.3633    1.9991 C   0  0  0  0  0  0  0  0  0  0  0  0
    1.1299    1.6560    3.4064 N   0  0  0  0  0  0  0  0  0  0  0  0
    1.4828    0.2668    1.5173 N   0  0  0  0  0  0  0  0  0  0  0  0
    2.8340   -0.7827   -0.0910 C   0  0  0  0  0  0  0  0  0  0  0  0
    3.9860    0.0309   -0.0289 C   0  0  0  0  0  0  0  0  0  0  0  0
    5.2540   -0.4389   -0.2346 C   0  0  0  0  0  0  0  0  0  0  0  0
    6.4383    0.4133   -0.1677 C   0  0  0  0  0  0  0  0  0  0  0  0
    7.6875   -0.1453   -0.3896 C   0  0  0  0  0  0  0  0  0  0  0  0
    8.8042    0.6087   -0.3364 N   0  0  0  0  0  0  0  0  0  0  0  0
    8.7933    1.9264   -0.0710 C   0  0  0  0  0  0  0  0  0  0  0  0
    7.5724    2.5228    0.1560 C   0  0  0  0  0  0  0  0  0  0  0  0
    7.5352    3.8467    0.4250 F   0  0  0  0  0  0  0  0  0  0  0  0
    6.4041    1.7547    0.1045 C   0  0  0  0  0  0  0  0  0  0  0  0
    5.3580   -1.7577   -0.5084 N   0  0  0  0  0  0  0  0  0  0  0  0
    4.2899   -2.5614   -0.5757 C   0  0  0  0  0  0  0  0  0  0  0  0
    4.4174   -3.9006   -0.8557 F   0  0  0  0  0  0  0  0  0  0  0  0
    2.9735   -2.1071   -0.3688 C   0  0  0  0  0  0  0  0  0  0  0  0
    1.9265   -3.0231   -0.4597 O   0  0  0  0  0  0  0  0  0  0  0  0
   -6.2275    0.2806   -1.4982 C   0  0  0  0  0  0  0  0  0  0  0  0
   -7.4880    0.7234   -1.3114 N   0  0  0  0  0  0  0  0  0  0  0  0
   -9.9879    0.9748   -1.8129 H   0  0  0  0  0  0  0  0  0  0  0  0
   -9.6383    2.6187   -1.2104 H   0  0  0  0  0  0  0  0  0  0  0  0
  -11.1140    1.7248   -0.6017 H   0  0  0  0  0  0  0  0  0  0  0  0
   -7.7041    0.2572    1.9744 H   0  0  0  0  0  0  0  0  0  0  0  0
   -3.6741   -1.1540    1.3484 H   0  0  0  0  0  0  0  0  0  0  0  0
   -2.6006   -3.5959   -0.1719 H   0  0  0  0  0  0  0  0  0  0  0  0
   -0.3006   -4.4117   -0.5401 H   0  0  0  0  0  0  0  0  0  0  0  0
   -1.1006    0.2920    0.4736 H   0  0  0  0  0  0  0  0  0  0  0  0
    0.2106    0.8222   -1.2118 H   0  0  0  0  0  0  0  0  0  0  0  0
    1.9008    0.9181   -1.6930 H   0  0  0  0  0  0  0  0  0  0  0  0
    0.6286    3.0163   -0.8068 H   0  0  0  0  0  0  0  0  0  0  0  0
    2.2502    2.8005   -0.0563 H   0  0  0  0  0  0  0  0  0  0  0  0
    1.9440    2.1745    3.8083 H   0  0  0  0  0  0  0  0  0  0  0  0
    0.3707    1.3735    4.0473 H   0  0  0  0  0  0  0  0  0  0  0  0
    3.8514    1.0634    0.1917 H   0  0  0  0  0  0  0  0  0  0  0  0
    7.7300   -1.2074   -0.6065 H   0  0  0  0  0  0  0  0  0  0  0  0
    9.7246    2.4765   -0.0425 H   0  0  0  0  0  0  0  0  0  0  0  0
    5.4667    2.2469    0.2857 H   0  0  0  0  0  0  0  0  0  0  0  0
   -5.8220    0.2950   -2.4996 H   0  0  0  0  0  0  0  0  0  0  0  0
  1  2  1  0
  2  3  1  0
  3  4  2  0
  4  5  1  0
  5  6  2  0
  6  7  1  0
  7  8  2  0
  7  9  1  0
  9 10  1  0
 10 11  2  0
 11 12  1  0
 12 13  2  0
 13 14  1  0
 14 15  2  0
 14 16  1  0
 16 17  1  0
 17 18  1  0
 18 19  1  0
 19 20  1  0
 20 21  1  0
 20 22  2  0
 16 23  1  0
 23 24  2  0
 24 25  1  0
 25 26  1  0
 26 27  2  0
 27 28  1  0
 28 29  2  0
 29 30  1  0
 30 31  1  0
 30 32  2  0
 25 33  2  0
 33 34  1  0
 34 35  1  0
 34 36  2  0
 36 37  1  0
  6 38  1  0
 38 39  2  0
 39  3  1  0
 15 10  1  0
 22 16  1  0
 36 23  1  0
 37 13  1  0
 32 26  1  0
  1 40  1  0
  1 41  1  0
  1 42  1  0
  4 43  1  0
  9 44  1  0
 11 45  1  0
 12 46  1  0
 15 47  1  0
 17 48  1  0
 17 49  1  0
 18 50  1  0
 18 51  1  0
 21 52  1  0
 21 53  1  0
 24 54  1  0
 27 55  1  0
 29 56  1  0
 32 57  1  0
 38 58  1  0
M  END
$$$$
