@<TRIPOS>MOLECULE
*****
 58 63 0 0 0
SMALL
GASTEIGER

@<TRIPOS>ATOM
      1 C         -10.0764    1.6341   -0.9360 C.3     1  UNL1        0.0805
      2 O          -9.3101    1.1610    0.1740 O.3     1  UNL1       -0.4786
      3 C          -8.0013    0.7103   -0.0741 C.ar    1  UNL1        0.2332
      4 C          -7.2427    0.2496    0.9791 C.ar    1  UNL1        0.0899
      5 N          -5.9963   -0.1870    0.7866 N.ar    1  UNL1       -0.2435
      6 C          -5.4767   -0.1769   -0.4462 C.ar    1  UNL1        0.1439
      7 C          -4.1039   -0.6546   -0.6775 C.2     1  UNL1        0.2681
      8 O          -3.6016   -0.6512   -1.8309 O.2     1  UNL1       -0.2681
      9 N          -3.3038   -1.1325    0.3846 N.am    1  UNL1       -0.2802
     10 C          -1.9561   -1.6036    0.1701 C.ar    1  UNL1        0.0343
     11 C          -1.7465   -2.9358   -0.1156 C.ar    1  UNL1       -0.0370
     12 C          -0.4593   -3.3467   -0.3126 C.ar    1  UNL1       -0.0172
     13 C           0.6466   -2.5082   -0.2430 C.ar    1  UNL1        0.1346
     14 C           0.4341   -1.1908    0.0399 C.ar    1  UNL1        0.0287
     15 C          -0.8833   -0.7553    0.2445 C.ar    1  UNL1       -0.0312
     16 C           1.5153   -0.1709    0.1448 C.3     1  UNL1        0.1265
     17 C           1.2493    0.9763   -0.7929 C.3     1  UNL1        0.0155
     18 C           1.2619    2.3151   -0.1758 C.3     1  UNL1        0.0953
     19 O           0.6399    2.3213    1.0940 O.2     1  UNL1       -0.4658
     20 C           1.1037    1.3633    1.9991 C.2     1  UNL1        0.2763
     21 N           1.1299    1.6560    3.4064 N.pl3   1  UNL1       -0.3134
     22 N           1.4828    0.2668    1.5173 N.2     1  UNL1       -0.2205
     23 C           2.8340   -0.7827   -0.0910 C.ar    1  UNL1        0.0334
     24 C           3.9860    0.0309   -0.0289 C.ar    1  UNL1       -0.0261
     25 C           5.2540   -0.4389   -0.2346 C.ar    1  UNL1        0.0762
     26 C           6.4383    0.4133   -0.1677 C.ar    1  UNL1        0.0213
     27 C           7.6875   -0.1453   -0.3896 C.ar    1  UNL1        0.0369
     28 N           8.8042    0.6087   -0.3364 N.ar    1  UNL1       -0.2598
     29 C           8.7933    1.9264   -0.0710 C.ar    1  UNL1        0.0628
     30 C           7.5724    2.5228    0.1560 C.ar    1  UNL1        0.1420
     31 F           7.5352    3.8467    0.4250 F       1  UNL1       -0.2039
     32 C           6.4041    1.7547    0.1045 C.ar    1  UNL1       -0.0143
     33 N           5.3580   -1.7577   -0.5084 N.ar    1  UNL1       -0.2160
     34 C           4.2899   -2.5614   -0.5757 C.ar    1  UNL1        0.2567
     35 F           4.4174   -3.9006   -0.8557 F       1  UNL1       -0.1799
     36 C           2.9735   -2.1071   -0.3688 C.ar    1  UNL1        0.1883
     37 O           1.9265   -3.0231   -0.4597 O.3     1  UNL1       -0.4508
     38 C          -6.2275    0.2806   -1.4982 C.ar    1  UNL1        0.0619
     39 N          -7.4880    0.7234   -1.3114 N.ar    1  UNL1       -0.2178
     40 H          -9.9879    0.9748   -1.8129 H       1  UNL1        0.0660
     41 H          -9.6383    2.6187   -1.2104 H       1  UNL1        0.0660
     42 H         -11.1140    1.7248   -0.6017 H       1  UNL1        0.0660
     43 H          -7.7041    0.2572    1.9744 H       1  UNL1        0.0884
     44 H          -3.6741   -1.1540    1.3484 H       1  UNL1        0.1552
     45 H          -2.6006   -3.5959   -0.1719 H       1  UNL1        0.0637
     46 H          -0.3006   -4.4117   -0.5401 H       1  UNL1        0.0655
     47 H          -1.1006    0.2920    0.4736 H       1  UNL1        0.0641
     48 H           0.2106    0.8222   -1.2118 H       1  UNL1        0.0328
     49 H           1.9008    0.9181   -1.6930 H       1  UNL1        0.0328
     50 H           0.6286    3.0163   -0.8068 H       1  UNL1        0.0698
     51 H           2.2502    2.8005   -0.0563 H       1  UNL1        0.0698
     52 H           1.9440    2.1745    3.8083 H       1  UNL1        0.1466
     53 H           0.3707    1.3735    4.0473 H       1  UNL1        0.1466
     54 H           3.8514    1.0634    0.1917 H       1  UNL1        0.0644
     55 H           7.7300   -1.2074   -0.6065 H       1  UNL1        0.0836
     56 H           9.7246    2.4765   -0.0425 H       1  UNL1        0.0859
     57 H           5.4667    2.2469    0.2857 H       1  UNL1        0.0654
     58 H          -5.8220    0.2950   -2.4996 H       1  UNL1        0.0854
@<TRIPOS>BOND
     1     1     2    1
     2     2     3    1
     3     3     4   ar
     4     4     5   ar
     5     5     6   ar
     6     6     7    1
     7     7     8    2
     8     7     9   am
     9     9    10    1
    10    10    11   ar
    11    11    12   ar
    12    12    13   ar
    13    13    14   ar
    14    14    15   ar
    15    14    16    1
    16    16    17    1
    17    17    18    1
    18    18    19    1
    19    19    20    1
    20    20    21    1
    21    20    22    2
    22    16    23    1
    23    23    24   ar
    24    24    25   ar
    25    25    26    1
    26    26    27   ar
    27    27    28   ar
    28    28    29   ar
    29    29    30   ar
    30    30    31    1
    31    30    32   ar
    32    25    33   ar
    33    33    34   ar
    34    34    35    1
    35    34    36   ar
    36    36    37    1
    37     6    38   ar
    38    38    39   ar
    39    39     3   ar
    40    15    10   ar
    41    22    16    1
    42    36    23   ar
    43    37    13    1
    44    32    26   ar
    45     1    40    1
    46     1    41    1
    47     1    42    1
    48     4    43    1
    49     9    44    1
    50    11    45    1
    51    12    46    1
    52    15    47    1
    53    17    48    1
    54    17    49    1
    55    18    50    1
    56    18    51    1
    57    21    52    1
    58    21    53    1
    59    24    54    1
    60    27    55    1
    61    29    56    1
    62    32    57    1
    63    38    58    1
