@<TRIPOS>MOLECULE
*****
 36 37 0 0 0
SMALL
GASTEIGER

@<TRIPOS>ATOM
      1 O           4.6461    1.5576    1.2752 O.2     1  UNL1       -0.2737
      2 C           4.0116    1.5082    0.1792 C.2     1  UNL1        0.2354
      3 C           3.5195    0.1686   -0.2477 C.3     1  UNL1        0.0263
      4 C           3.8716   -0.9058    0.7184 C.3     1  UNL1       -0.0393
      5 C           3.3536   -2.2305    0.2379 C.3     1  UNL1       -0.0094
      6 C           1.8367   -2.2451    0.1187 C.ar    1  UNL1        0.0491
      7 C           1.2764   -3.4796   -0.3473 C.ar    1  UNL1       -0.0010
      8 S          -0.4786   -3.0146   -0.3197 S.2     1  UNL1       -0.0760
      9 C          -0.2170   -1.3023    0.2878 C.ar    1  UNL1        0.1014
     10 C          -1.3081   -0.3543    0.5311 C.2     1  UNL1       -0.0290
     11 C          -2.5664   -0.7014    0.3173 C.2     1  UNL1       -0.0521
     12 C          -3.7048    0.1695    0.5305 C.ar    1  UNL1       -0.0249
     13 C          -3.5971    1.4591    0.9813 C.ar    1  UNL1       -0.0546
     14 C          -4.7742    2.1877    1.1427 C.ar    1  UNL1       -0.0612
     15 C          -6.0137    1.6894    0.8783 C.ar    1  UNL1       -0.0617
     16 C          -6.0899    0.3906    0.4267 C.ar    1  UNL1       -0.0612
     17 C          -4.9592   -0.3668    0.2519 C.ar    1  UNL1       -0.0546
     18 N           1.0248   -1.3084    0.3792 N.ar    1  UNL1       -0.2446
     19 N           3.7870    2.6707   -0.5923 N.am    1  UNL1       -0.1975
     20 O           4.2431    3.8581   -0.1789 O.3     1  UNL1       -0.2952
     21 H           2.4691    0.2700   -0.4933 H       1  UNL1        0.0359
     22 H           4.0825   -0.0481   -1.2041 H       1  UNL1        0.0359
     23 H           3.4338   -0.7490    1.7317 H       1  UNL1        0.0273
     24 H           4.9678   -1.0039    0.8490 H       1  UNL1        0.0273
     25 H           3.6979   -3.0447    0.8932 H       1  UNL1        0.0328
     26 H           3.8036   -2.4138   -0.7707 H       1  UNL1        0.0328
     27 H           1.6908   -4.3497   -0.6148 H       1  UNL1        0.0712
     28 H          -1.1252    0.6376    0.8854 H       1  UNL1        0.0644
     29 H          -2.7156   -1.7070   -0.0392 H       1  UNL1        0.0624
     30 H          -2.6437    1.8884    1.2005 H       1  UNL1        0.0623
     31 H          -4.6723    3.2068    1.5002 H       1  UNL1        0.0618
     32 H          -6.9311    2.2477    1.0008 H       1  UNL1        0.0618
     33 H          -7.0531   -0.0511    0.2025 H       1  UNL1        0.0618
     34 H          -5.0624   -1.3690   -0.0999 H       1  UNL1        0.0623
     35 H           3.2488    2.5473   -1.4955 H       1  UNL1        0.1822
     36 H           4.9478    4.1878   -0.7918 H       1  UNL1        0.2414
@<TRIPOS>BOND
     1     1     2    2
     2     2     3    1
     3     3     4    1
     4     4     5    1
     5     5     6    1
     6     6     7   ar
     7     7     8   ar
     8     8     9   ar
     9     9    10    1
    10    10    11    2
    11    11    12    1
    12    12    13   ar
    13    13    14   ar
    14    14    15   ar
    15    15    16   ar
    16    16    17   ar
    17     9    18   ar
    18     2    19   am
    19    19    20    1
    20    18     6   ar
    21    17    12   ar
    22     3    21    1
    23     3    22    1
    24     4    23    1
    25     4    24    1
    26     5    25    1
    27     5    26    1
    28     7    27    1
    29    10    28    1
    30    11    29    1
    31    13    30    1
    32    14    31    1
    33    15    32    1
    34    16    33    1
    35    17    34    1
    36    19    35    1
    37    20    36    1
