
     RDKit          3D

 36 37  0  0  0  0  0  0  0  0999 V2000
    4.6461    1.5576    1.2752 O   0  0  0  0  0  0  0  0  0  0  0  0
    4.0116    1.5082    0.1792 C   0  0  0  0  0  0  0  0  0  0  0  0
    3.5195    0.1686   -0.2477 C   0  0  0  0  0  0  0  0  0  0  0  0
    3.8716   -0.9058    0.7184 C   0  0  0  0  0  0  0  0  0  0  0  0
    3.3536   -2.2305    0.2379 C   0  0  0  0  0  0  0  0  0  0  0  0
    1.8367   -2.2451    0.1187 C   0  0  0  0  0  0  0  0  0  0  0  0
    1.2764   -3.4796   -0.3473 C   0  0  0  0  0  0  0  0  0  0  0  0
   -0.4786   -3.0146   -0.3197 S   0  0  0  0  0  0  0  0  0  0  0  0
   -0.2170   -1.3023    0.2878 C   0  0  0  0  0  0  0  0  0  0  0  0
   -1.3081   -0.3543    0.5311 C   0  0  0  0  0  0  0  0  0  0  0  0
   -2.5664   -0.7014    0.3173 C   0  0  0  0  0  0  0  0  0  0  0  0
   -3.7048    0.1695    0.5305 C   0  0  0  0  0  0  0  0  0  0  0  0
   -3.5971    1.4591    0.9813 C   0  0  0  0  0  0  0  0  0  0  0  0
   -4.7742    2.1877    1.1427 C   0  0  0  0  0  0  0  0  0  0  0  0
   -6.0137    1.6894    0.8783 C   0  0  0  0  0  0  0  0  0  0  0  0
   -6.0899    0.3906    0.4267 C   0  0  0  0  0  0  0  0  0  0  0  0
   -4.9592   -0.3668    0.2519 C   0  0  0  0  0  0  0  0  0  0  0  0
    1.0248   -1.3084    0.3792 N   0  0  0  0  0  0  0  0  0  0  0  0
    3.7870    2.6707   -0.5923 N   0  0  0  0  0  0  0  0  0  0  0  0
    4.2431    3.8581   -0.1789 O   0  0  0  0  0  0  0  0  0  0  0  0
    2.4691    0.2700   -0.4933 H   0  0  0  0  0  0  0  0  0  0  0  0
    4.0825   -0.0481   -1.2041 H   0  0  0  0  0  0  0  0  0  0  0  0
    3.4338   -0.7490    1.7317 H   0  0  0  0  0  0  0  0  0  0  0  0
    4.9678   -1.0039    0.8490 H   0  0  0  0  0  0  0  0  0  0  0  0
    3.6979   -3.0447    0.8932 H   0  0  0  0  0  0  0  0  0  0  0  0
    3.8036   -2.4138   -0.7707 H   0  0  0  0  0  0  0  0  0  0  0  0
    1.6908   -4.3497   -0.6148 H   0  0  0  0  0  0  0  0  0  0  0  0
   -1.1252    0.6376    0.8854 H   0  0  0  0  0  0  0  0  0  0  0  0
   -2.7156   -1.7070   -0.0392 H   0  0  0  0  0  0  0  0  0  0  0  0
   -2.6437    1.8884    1.2005 H   0  0  0  0  0  0  0  0  0  0  0  0
   -4.6723    3.2068    1.5002 H   0  0  0  0  0  0  0  0  0  0  0  0
   -6.9311    2.2477    1.0008 H   0  0  0  0  0  0  0  0  0  0  0  0
   -7.0531   -0.0511    0.2025 H   0  0  0  0  0  0  0  0  0  0  0  0
   -5.0624   -1.3690   -0.0999 H   0  0  0  0  0  0  0  0  0  0  0  0
    3.2488    2.5473   -1.4955 H   0  0  0  0  0  0  0  0  0  0  0  0
    4.9478    4.1878   -0.7918 H   0  0  0  0  0  0  0  0  0  0  0  0
  1  2  2  0
  2  3  1  0
  3  4  1  0
  4  5  1  0
  5  6  1  0
  6  7  2  0
  7  8  1  0
  8  9  1  0
  9 10  1  0
 10 11  2  0
 11 12  1  0
 12 13  2  0
 13 14  1  0
 14 15  2  0
 15 16  1  0
 16 17  2  0
  9 18  2  0
  2 19  1  0
 19 20  1  0
 18  6  1  0
 17 12  1  0
  3 21  1  0
  3 22  1  0
  4 23  1  0
  4 24  1  0
  5 25  1  0
  5 26  1  0
  7 27  1  0
 10 28  1  0
 11 29  1  0
 13 30  1  0
 14 31  1  0
 15 32  1  0
 16 33  1  0
 17 34  1  0
 19 35  1  0
 20 36  1  0
M  END
$$$$
