@<TRIPOS>MOLECULE
*****
 56 59 0 0 0
SMALL
GASTEIGER

@<TRIPOS>ATOM
      1 C          -7.2282    1.8851   -2.4611 C.3     1  UNL1       -0.0396
      2 C          -6.3995    0.8139   -1.8284 C.ar    1  UNL1       -0.0469
      3 C          -6.9033   -0.4559   -1.6976 C.ar    1  UNL1       -0.0578
      4 C          -6.1339   -1.4290   -1.1185 C.ar    1  UNL1       -0.0439
      5 C          -4.8349   -1.1418   -0.6572 C.ar    1  UNL1        0.1010
      6 C          -4.0479   -2.2425   -0.1370 C.2     1  UNL1        0.3404
      7 O          -4.6213   -3.3812   -0.0223 O.2     1  UNL1       -0.2450
      8 O          -2.7421   -2.1676    0.2388 O.3     1  UNL1       -0.4770
      9 C          -4.3179    0.1165   -0.7761 C.ar    1  UNL1        0.1447
     10 O          -3.0670    0.4258   -0.3389 O.3     1  UNL1       -0.4348
     11 C          -2.6195    0.4776    0.9693 C.ar    1  UNL1        0.2598
     12 N          -1.3174    0.7030    1.2622 N.ar    1  UNL1       -0.1722
     13 C          -0.8794    0.7586    2.5253 C.ar    1  UNL1        0.2598
     14 O           0.4589    0.9901    2.8461 O.3     1  UNL1       -0.4337
     15 C           1.3793    1.1781    1.7973 C.ar    1  UNL1        0.1515
     16 C           2.4608    0.3410    1.6340 C.ar    1  UNL1       -0.0097
     17 C           3.3880    0.4907    0.6176 C.ar    1  UNL1       -0.0143
     18 C           4.5038   -0.4333    0.5158 C.ar    1  UNL1       -0.0175
     19 C           5.0696   -1.0086    1.6318 C.ar    1  UNL1       -0.0540
     20 C           6.1415   -1.9011    1.5532 C.ar    1  UNL1       -0.0609
     21 C           6.6223   -2.1927    0.3075 C.ar    1  UNL1       -0.0573
     22 C           6.0985   -1.6504   -0.8358 C.ar    1  UNL1       -0.0332
     23 C           6.6790   -2.0215   -2.1529 C.3     1  UNL1        0.0186
     24 N           7.7451   -1.0934   -2.4788 N.3     1  UNL1       -0.3261
     25 C           5.0369   -0.7706   -0.7098 C.ar    1  UNL1       -0.0496
     26 C           3.1818    1.5432   -0.2535 C.ar    1  UNL1       -0.0521
     27 C           2.1056    2.3868   -0.1016 C.ar    1  UNL1       -0.0369
     28 C           1.1867    2.2278    0.9165 C.ar    1  UNL1        0.0675
     29 N           0.0730    3.1044    1.0701 N.pl3   1  UNL1       -0.3551
     30 C          -1.7520    0.5854    3.6013 C.ar    1  UNL1        0.1879
     31 F          -1.2469    0.6520    4.8615 F       1  UNL1       -0.1998
     32 C          -3.0856    0.3543    3.3507 C.ar    1  UNL1        0.0194
     33 C          -3.4862    0.3067    2.0221 C.ar    1  UNL1        0.1879
     34 F          -4.7981    0.0991    1.7902 F       1  UNL1       -0.1998
     35 C          -5.1217    1.0902   -1.3710 C.ar    1  UNL1       -0.0155
     36 H          -8.2777    1.7353   -2.0949 H       1  UNL1        0.0278
     37 H          -6.9085    2.8979   -2.1346 H       1  UNL1        0.0278
     38 H          -7.1683    1.7594   -3.5477 H       1  UNL1        0.0278
     39 H          -7.9200   -0.6606   -2.0647 H       1  UNL1        0.0620
     40 H          -6.5581   -2.4138   -1.0310 H       1  UNL1        0.0627
     41 H          -2.2177   -2.9522    0.6543 H       1  UNL1        0.2954
     42 H           2.6176   -0.4937    2.3309 H       1  UNL1        0.0661
     43 H           4.6595   -0.7512    2.6040 H       1  UNL1        0.0624
     44 H           6.5646   -2.3345    2.4315 H       1  UNL1        0.0618
     45 H           7.4586   -2.8881    0.2365 H       1  UNL1        0.0621
     46 H           5.9030   -1.9550   -2.9336 H       1  UNL1        0.0471
     47 H           7.1039   -3.0470   -2.1374 H       1  UNL1        0.0471
     48 H           7.4104   -0.1225   -2.5897 H       1  UNL1        0.1185
     49 H           8.5249   -1.1514   -1.7986 H       1  UNL1        0.1185
     50 H           4.6405   -0.3574   -1.6063 H       1  UNL1        0.0627
     51 H           3.8645    1.7062   -1.0555 H       1  UNL1        0.0624
     52 H           1.9125    3.2339   -0.7767 H       1  UNL1        0.0637
     53 H          -0.2035    3.4732    2.0056 H       1  UNL1        0.1424
     54 H          -0.4797    3.3858    0.2316 H       1  UNL1        0.1424
     55 H          -3.7705    0.2193    4.1753 H       1  UNL1        0.0678
     56 H          -4.6837    2.0757   -1.4529 H       1  UNL1        0.0657
@<TRIPOS>BOND
     1     1     2    1
     2     2     3   ar
     3     3     4   ar
     4     4     5   ar
     5     5     6    1
     6     6     7    2
     7     6     8    1
     8     5     9   ar
     9     9    10    1
    10    10    11    1
    11    11    12   ar
    12    12    13   ar
    13    13    14    1
    14    14    15    1
    15    15    16   ar
    16    16    17   ar
    17    17    18    1
    18    18    19   ar
    19    19    20   ar
    20    20    21   ar
    21    21    22   ar
    22    22    23    1
    23    23    24    1
    24    22    25   ar
    25    17    26   ar
    26    26    27   ar
    27    27    28   ar
    28    28    29    1
    29    13    30   ar
    30    30    31    1
    31    30    32   ar
    32    32    33   ar
    33    33    34    1
    34     9    35   ar
    35    35     2   ar
    36    33    11   ar
    37    28    15   ar
    38    25    18   ar
    39     1    36    1
    40     1    37    1
    41     1    38    1
    42     3    39    1
    43     4    40    1
    44     8    41    1
    45    16    42    1
    46    19    43    1
    47    20    44    1
    48    21    45    1
    49    23    46    1
    50    23    47    1
    51    24    48    1
    52    24    49    1
    53    25    50    1
    54    26    51    1
    55    27    52    1
    56    29    53    1
    57    29    54    1
    58    32    55    1
    59    35    56    1
