@<TRIPOS>MOLECULE
*****
 49 52 0 0 0
SMALL
GASTEIGER

@<TRIPOS>ATOM
      1 C           8.2857   -1.5910   -0.7698 C.3     1  UNL1        0.0788
      2 O           7.5687   -1.7214    0.4201 O.3     1  UNL1       -0.4951
      3 C           6.2718   -1.2747    0.5612 C.ar    1  UNL1        0.1201
      4 C           5.6473   -0.6779   -0.4957 C.ar    1  UNL1       -0.0192
      5 C           4.3578   -0.2350   -0.3515 C.ar    1  UNL1       -0.0461
      6 C           3.6854   -0.3780    0.8253 C.ar    1  UNL1        0.0384
      7 C           2.2929    0.1011    0.9785 C.2     1  UNL1        0.2601
      8 O           1.6960   -0.0455    2.0820 O.2     1  UNL1       -0.2687
      9 N           1.5639    0.7302   -0.0561 N.am    1  UNL1       -0.2313
     10 N           0.2505    1.1790    0.0976 N.pl3   1  UNL1       -0.2467
     11 C          -0.8547    0.3294   -0.1898 C.ar    1  UNL1        0.1574
     12 N          -0.6328   -0.9252   -0.6161 N.ar    1  UNL1       -0.2274
     13 C          -1.6315   -1.7812   -0.9058 C.ar    1  UNL1        0.0914
     14 C          -1.4147   -3.0610   -1.3406 C.ar    1  UNL1       -0.0342
     15 C          -2.4638   -3.8934   -1.6222 C.ar    1  UNL1       -0.0596
     16 C          -3.7464   -3.4364   -1.4657 C.ar    1  UNL1       -0.0596
     17 C          -3.9628   -2.1504   -1.0288 C.ar    1  UNL1       -0.0342
     18 C          -2.9278   -1.3167   -0.7467 C.ar    1  UNL1        0.0896
     19 N          -3.1478   -0.0419   -0.3136 N.ar    1  UNL1       -0.2463
     20 C          -2.1363    0.7984   -0.0293 C.ar    1  UNL1        0.0872
     21 C          -2.3199    2.1786    0.4396 C.3     1  UNL1        0.0182
     22 C          -3.7113    2.5920    0.5814 C.ar    1  UNL1       -0.0415
     23 C          -4.3704    3.1704   -0.4787 C.ar    1  UNL1       -0.0582
     24 C          -5.7059    3.5709   -0.3537 C.ar    1  UNL1       -0.0615
     25 C          -6.3789    3.3945    0.8239 C.ar    1  UNL1       -0.0617
     26 C          -5.7294    2.8164    1.8925 C.ar    1  UNL1       -0.0615
     27 C          -4.4013    2.4204    1.7613 C.ar    1  UNL1       -0.0582
     28 C           4.3056   -0.9773    1.8944 C.ar    1  UNL1       -0.0461
     29 C           5.5979   -1.4200    1.7466 C.ar    1  UNL1       -0.0192
     30 H           8.5039   -0.5337   -1.0357 H       1  UNL1        0.0660
     31 H           7.6808   -2.0029   -1.6123 H       1  UNL1        0.0660
     32 H           9.2222   -2.1590   -0.6993 H       1  UNL1        0.0660
     33 H           6.1903   -0.5599   -1.4537 H       1  UNL1        0.0654
     34 H           3.9037    0.2350   -1.2259 H       1  UNL1        0.0626
     35 H           2.0129    0.8731   -0.9823 H       1  UNL1        0.1731
     36 H           0.0923    2.1561    0.4296 H       1  UNL1        0.1716
     37 H          -0.4128   -3.4172   -1.4625 H       1  UNL1        0.0639
     38 H          -2.2974   -4.8993   -1.9639 H       1  UNL1        0.0618
     39 H          -4.5565   -4.1134   -1.6948 H       1  UNL1        0.0618
     40 H          -4.9752   -1.7848   -0.9036 H       1  UNL1        0.0639
     41 H          -1.7786    2.2608    1.4218 H       1  UNL1        0.0378
     42 H          -1.7619    2.8520   -0.2660 H       1  UNL1        0.0378
     43 H          -3.8618    3.3208   -1.4190 H       1  UNL1        0.0620
     44 H          -6.2341    4.0322   -1.1967 H       1  UNL1        0.0618
     45 H          -7.4172    3.7215    0.8751 H       1  UNL1        0.0618
     46 H          -6.2891    2.6923    2.8053 H       1  UNL1        0.0618
     47 H          -3.9200    1.9716    2.6134 H       1  UNL1        0.0620
     48 H           3.7885   -1.0958    2.8248 H       1  UNL1        0.0626
     49 H           6.1225   -1.9038    2.5827 H       1  UNL1        0.0654
@<TRIPOS>BOND
     1     1     2    1
     2     2     3    1
     3     3     4   ar
     4     4     5   ar
     5     5     6   ar
     6     6     7    1
     7     7     8    2
     8     7     9   am
     9     9    10    1
    10    10    11    1
    11    11    12   ar
    12    12    13   ar
    13    13    14   ar
    14    14    15   ar
    15    15    16   ar
    16    16    17   ar
    17    17    18   ar
    18    18    19   ar
    19    19    20   ar
    20    20    21    1
    21    21    22    1
    22    22    23   ar
    23    23    24   ar
    24    24    25   ar
    25    25    26   ar
    26    26    27   ar
    27     6    28   ar
    28    28    29   ar
    29    29     3   ar
    30    20    11   ar
    31    27    22   ar
    32    18    13   ar
    33     1    30    1
    34     1    31    1
    35     1    32    1
    36     4    33    1
    37     5    34    1
    38     9    35    1
    39    10    36    1
    40    14    37    1
    41    15    38    1
    42    16    39    1
    43    17    40    1
    44    21    41    1
    45    21    42    1
    46    23    43    1
    47    24    44    1
    48    25    45    1
    49    26    46    1
    50    27    47    1
    51    28    48    1
    52    29    49    1
