
     RDKit          3D

 49 52  0  0  0  0  0  0  0  0999 V2000
    8.2857   -1.5910   -0.7698 C   0  0  0  0  0  0  0  0  0  0  0  0
    7.5687   -1.7214    0.4201 O   0  0  0  0  0  0  0  0  0  0  0  0
    6.2718   -1.2747    0.5612 C   0  0  0  0  0  0  0  0  0  0  0  0
    5.6473   -0.6779   -0.4957 C   0  0  0  0  0  0  0  0  0  0  0  0
    4.3578   -0.2350   -0.3515 C   0  0  0  0  0  0  0  0  0  0  0  0
    3.6854   -0.3780    0.8253 C   0  0  0  0  0  0  0  0  0  0  0  0
    2.2929    0.1011    0.9785 C   0  0  0  0  0  0  0  0  0  0  0  0
    1.6960   -0.0455    2.0820 O   0  0  0  0  0  0  0  0  0  0  0  0
    1.5639    0.7302   -0.0561 N   0  0  0  0  0  0  0  0  0  0  0  0
    0.2505    1.1790    0.0976 N   0  0  0  0  0  0  0  0  0  0  0  0
   -0.8547    0.3294   -0.1898 C   0  0  0  0  0  0  0  0  0  0  0  0
   -0.6328   -0.9252   -0.6161 N   0  0  0  0  0  0  0  0  0  0  0  0
   -1.6315   -1.7812   -0.9058 C   0  0  0  0  0  0  0  0  0  0  0  0
   -1.4147   -3.0610   -1.3406 C   0  0  0  0  0  0  0  0  0  0  0  0
   -2.4638   -3.8934   -1.6222 C   0  0  0  0  0  0  0  0  0  0  0  0
   -3.7464   -3.4364   -1.4657 C   0  0  0  0  0  0  0  0  0  0  0  0
   -3.9628   -2.1504   -1.0288 C   0  0  0  0  0  0  0  0  0  0  0  0
   -2.9278   -1.3167   -0.7467 C   0  0  0  0  0  0  0  0  0  0  0  0
   -3.1478   -0.0419   -0.3136 N   0  0  0  0  0  0  0  0  0  0  0  0
   -2.1363    0.7984   -0.0293 C   0  0  0  0  0  0  0  0  0  0  0  0
   -2.3199    2.1786    0.4396 C   0  0  0  0  0  0  0  0  0  0  0  0
   -3.7113    2.5920    0.5814 C   0  0  0  0  0  0  0  0  0  0  0  0
   -4.3704    3.1704   -0.4787 C   0  0  0  0  0  0  0  0  0  0  0  0
   -5.7059    3.5709   -0.3537 C   0  0  0  0  0  0  0  0  0  0  0  0
   -6.3789    3.3945    0.8239 C   0  0  0  0  0  0  0  0  0  0  0  0
   -5.7294    2.8164    1.8925 C   0  0  0  0  0  0  0  0  0  0  0  0
   -4.4013    2.4204    1.7613 C   0  0  0  0  0  0  0  0  0  0  0  0
    4.3056   -0.9773    1.8944 C   0  0  0  0  0  0  0  0  0  0  0  0
    5.5979   -1.4200    1.7466 C   0  0  0  0  0  0  0  0  0  0  0  0
    8.5039   -0.5337   -1.0357 H   0  0  0  0  0  0  0  0  0  0  0  0
    7.6808   -2.0029   -1.6123 H   0  0  0  0  0  0  0  0  0  0  0  0
    9.2222   -2.1590   -0.6993 H   0  0  0  0  0  0  0  0  0  0  0  0
    6.1903   -0.5599   -1.4537 H   0  0  0  0  0  0  0  0  0  0  0  0
    3.9037    0.2350   -1.2259 H   0  0  0  0  0  0  0  0  0  0  0  0
    2.0129    0.8731   -0.9823 H   0  0  0  0  0  0  0  0  0  0  0  0
    0.0923    2.1561    0.4296 H   0  0  0  0  0  0  0  0  0  0  0  0
   -0.4128   -3.4172   -1.4625 H   0  0  0  0  0  0  0  0  0  0  0  0
   -2.2974   -4.8993   -1.9639 H   0  0  0  0  0  0  0  0  0  0  0  0
   -4.5565   -4.1134   -1.6948 H   0  0  0  0  0  0  0  0  0  0  0  0
   -4.9752   -1.7848   -0.9036 H   0  0  0  0  0  0  0  0  0  0  0  0
   -1.7786    2.2608    1.4218 H   0  0  0  0  0  0  0  0  0  0  0  0
   -1.7619    2.8520   -0.2660 H   0  0  0  0  0  0  0  0  0  0  0  0
   -3.8618    3.3208   -1.4190 H   0  0  0  0  0  0  0  0  0  0  0  0
   -6.2341    4.0322   -1.1967 H   0  0  0  0  0  0  0  0  0  0  0  0
   -7.4172    3.7215    0.8751 H   0  0  0  0  0  0  0  0  0  0  0  0
   -6.2891    2.6923    2.8053 H   0  0  0  0  0  0  0  0  0  0  0  0
   -3.9200    1.9716    2.6134 H   0  0  0  0  0  0  0  0  0  0  0  0
    3.7885   -1.0958    2.8248 H   0  0  0  0  0  0  0  0  0  0  0  0
    6.1225   -1.9038    2.5827 H   0  0  0  0  0  0  0  0  0  0  0  0
  1  2  1  0
  2  3  1  0
  3  4  2  0
  4  5  1  0
  5  6  2  0
  6  7  1  0
  7  8  2  0
  7  9  1  0
  9 10  1  0
 10 11  1  0
 11 12  2  0
 12 13  1  0
 13 14  2  0
 14 15  1  0
 15 16  2  0
 16 17  1  0
 17 18  2  0
 18 19  1  0
 19 20  2  0
 20 21  1  0
 21 22  1  0
 22 23  2  0
 23 24  1  0
 24 25  2  0
 25 26  1  0
 26 27  2  0
  6 28  1  0
 28 29  2  0
 29  3  1  0
 20 11  1  0
 27 22  1  0
 18 13  1  0
  1 30  1  0
  1 31  1  0
  1 32  1  0
  4 33  1  0
  5 34  1  0
  9 35  1  0
 10 36  1  0
 14 37  1  0
 15 38  1  0
 16 39  1  0
 17 40  1  0
 21 41  1  0
 21 42  1  0
 23 43  1  0
 24 44  1  0
 25 45  1  0
 26 46  1  0
 27 47  1  0
 28 48  1  0
 29 49  1  0
M  END
$$$$
