@<TRIPOS>MOLECULE
*****
 51 54 0 0 0
SMALL
GASTEIGER

@<TRIPOS>ATOM
      1 O          -2.5544   -0.3895   -1.1944 O.3     1  UNL1       -0.3839
      2 C          -2.2241    0.0714    0.0754 C.3     1  UNL1        0.1124
      3 C          -0.8948    0.7961    0.1069 C.3     1  UNL1        0.0469
      4 N          -0.2671   -0.4897    0.3224 N.am    1  UNL1       -0.2918
      5 C          -1.5079   -0.9271    0.9244 C.3     1  UNL1        0.0469
      6 C           1.0475   -0.8315   -0.0364 C.2     1  UNL1        0.2487
      7 O           0.9652    0.3529   -0.4154 O.2     1  UNL1       -0.2699
      8 C           1.8720   -2.0176    0.0739 C.ar    1  UNL1        0.0610
      9 C           3.1480   -1.9327   -0.4255 C.ar    1  UNL1        0.0822
     10 N           3.7395   -0.8034   -1.0429 N.pl3   1  UNL1       -0.3094
     11 C           4.4084    0.3747   -0.6728 C.ar    1  UNL1        0.0671
     12 C           5.5717    0.4505    0.0624 C.ar    1  UNL1        0.1454
     13 F           6.1506   -0.7014    0.4752 F       1  UNL1       -0.2035
     14 C           6.2176    1.6117    0.4286 C.ar    1  UNL1       -0.0115
     15 C           5.6315    2.7854    0.0129 C.ar    1  UNL1        0.0162
     16 I           6.5706    4.5930    0.5411 I       1  UNL1       -0.0437
     17 C           4.4676    2.8115   -0.7266 C.ar    1  UNL1       -0.0467
     18 C           3.8920    1.5996   -1.0465 C.ar    1  UNL1       -0.0368
     19 C           3.8996   -3.0915   -0.2984 C.ar    1  UNL1        0.1801
     20 F           5.1674   -3.2336   -0.7240 F       1  UNL1       -0.2005
     21 C           3.3836   -4.2253    0.2873 C.ar    1  UNL1        0.1603
     22 F           4.0790   -5.3808    0.4343 F       1  UNL1       -0.2024
     23 C           2.0890   -4.2164    0.7611 C.ar    1  UNL1       -0.0228
     24 C           1.2863   -3.1053    0.6691 C.ar    1  UNL1       -0.0449
     25 C          -3.3634    0.8354    0.7549 C.3     1  UNL1        0.0394
     26 C          -4.4894   -0.1244    0.9216 C.3     1  UNL1       -0.0347
     27 C          -5.8585    0.4770    1.0076 C.3     1  UNL1       -0.0504
     28 C          -6.0312    1.7829    0.3146 C.3     1  UNL1       -0.0404
     29 C          -4.9530    1.9219   -0.7189 C.3     1  UNL1       -0.0038
     30 N          -3.6495    1.9512   -0.1045 N.3     1  UNL1       -0.3105
     31 H          -1.7335   -0.5152   -1.7347 H       1  UNL1        0.2104
     32 H          -0.8191    1.4535    0.9973 H       1  UNL1        0.0494
     33 H          -0.6600    1.3304   -0.8225 H       1  UNL1        0.0494
     34 H          -1.8004   -1.9750    0.7826 H       1  UNL1        0.0494
     35 H          -1.5027   -0.5999    1.9962 H       1  UNL1        0.0494
     36 H           3.6573   -0.8564   -2.0825 H       1  UNL1        0.1523
     37 H           7.1345    1.5935    1.0109 H       1  UNL1        0.0657
     38 H           4.0685    3.7732   -1.0158 H       1  UNL1        0.0628
     39 H           2.9744    1.7307   -1.6385 H       1  UNL1        0.0637
     40 H           1.6746   -5.1130    1.2268 H       1  UNL1        0.0647
     41 H           0.2781   -3.1133    1.0438 H       1  UNL1        0.0627
     42 H          -2.9950    1.2243    1.7143 H       1  UNL1        0.0490
     43 H          -4.3107   -0.6783    1.8681 H       1  UNL1        0.0281
     44 H          -4.4335   -0.9147    0.1209 H       1  UNL1        0.0281
     45 H          -6.5557   -0.2631    0.5154 H       1  UNL1        0.0266
     46 H          -6.2465    0.5680    2.0507 H       1  UNL1        0.0266
     47 H          -6.0173    2.6608    0.9947 H       1  UNL1        0.0277
     48 H          -7.0014    1.8159   -0.2373 H       1  UNL1        0.0277
     49 H          -5.0809    2.9447   -1.1796 H       1  UNL1        0.0424
     50 H          -5.0417    1.1136   -1.4438 H       1  UNL1        0.0424
     51 H          -3.3827    2.8752    0.2786 H       1  UNL1        0.1223
@<TRIPOS>BOND
     1     1     2    1
     2     2     3    1
     3     3     4    1
     4     4     5    1
     5     4     6   am
     6     6     7    2
     7     6     8    1
     8     8     9   ar
     9     9    10    1
    10    10    11    1
    11    11    12   ar
    12    12    13    1
    13    12    14   ar
    14    14    15   ar
    15    15    16    1
    16    15    17   ar
    17    17    18   ar
    18     9    19   ar
    19    19    20    1
    20    19    21   ar
    21    21    22    1
    22    21    23   ar
    23    23    24   ar
    24     2    25    1
    25    25    26    1
    26    26    27    1
    27    27    28    1
    28    28    29    1
    29    29    30    1
    30     5     2    1
    31    24     8   ar
    32    30    25    1
    33    18    11   ar
    34     1    31    1
    35     3    32    1
    36     3    33    1
    37     5    34    1
    38     5    35    1
    39    10    36    1
    40    14    37    1
    41    17    38    1
    42    18    39    1
    43    23    40    1
    44    24    41    1
    45    25    42    1
    46    26    43    1
    47    26    44    1
    48    27    45    1
    49    27    46    1
    50    28    47    1
    51    28    48    1
    52    29    49    1
    53    29    50    1
    54    30    51    1
