@<TRIPOS>MOLECULE
*****
 56 59 0 0 0
SMALL
GASTEIGER

@<TRIPOS>ATOM
      1 C          -3.1998    2.9616   -1.0798 C.3     1  UNL1       -0.0220
      2 C          -1.7947    2.7738   -1.4810 C.ar    1  UNL1        0.0471
      3 C          -0.9554    1.8163   -0.9484 C.ar    1  UNL1        0.0643
      4 C          -1.1340    0.8253    0.0298 C.ar    1  UNL1        0.1324
      5 O          -2.2476    0.6574    0.6374 O.3     1  UNL1       -0.4880
      6 C          -3.3763    0.4873    1.2533 C.3     1  UNL1        0.1021
      7 C          -3.3649    0.7610    2.7693 C.3     1  UNL1       -0.0275
      8 C          -4.0468   -0.8749    1.1290 C.3     1  UNL1        0.0195
      9 C          -4.3776   -1.2625   -0.2742 C.3     1  UNL1        0.0182
     10 N          -4.5779   -2.7074   -0.1408 N.am    1  UNL1       -0.3149
     11 C          -3.9254   -3.1717    1.0292 C.2     1  UNL1        0.2135
     12 O          -3.9409   -4.3301    1.5034 O.2     1  UNL1       -0.2758
     13 C          -3.2025   -2.0090    1.6054 C.3     1  UNL1        0.0315
     14 C           0.0155    0.0458    0.2738 C.ar    1  UNL1       -0.0113
     15 C           1.1990    0.1995   -0.3488 C.ar    1  UNL1       -0.0094
     16 C           2.3474   -0.6643   -0.0278 C.ar    1  UNL1        0.0198
     17 C           2.3014   -1.9779    0.3668 C.ar    1  UNL1        0.0571
     18 N           3.5859   -2.3816    0.5589 N.ar    1  UNL1       -0.1776
     19 N           4.4281   -1.3963    0.3067 N.ar    1  UNL1       -0.2514
     20 C           5.8702   -1.4965    0.4187 C.3     1  UNL1        0.1431
     21 C           6.4970   -1.8498   -0.9008 C.3     1  UNL1       -0.0267
     22 C           6.2180   -2.5565    1.4275 C.3     1  UNL1       -0.0267
     23 C           6.3823   -0.2151    0.9342 C.1     1  UNL1        0.0921
     24 N           6.7851    0.8045    1.3277 N.1     1  UNL1       -0.1940
     25 C           3.6778   -0.3200   -0.0598 C.ar    1  UNL1        0.0350
     26 C           1.3127    1.1860   -1.2964 C.ar    1  UNL1       -0.0259
     27 C           0.2568    1.9826   -1.5943 C.ar    1  UNL1        0.0971
     28 N           0.1376    3.0052   -2.4797 N.ar    1  UNL1       -0.1711
     29 N          -1.0896    3.4782   -2.4117 N.ar    1  UNL1       -0.2704
     30 C          -1.6254    4.5646   -3.1866 C.3     1  UNL1        0.0305
     31 H          -3.2878    3.2274   -0.0081 H       1  UNL1        0.0293
     32 H          -3.5875    3.8569   -1.6362 H       1  UNL1        0.0293
     33 H          -3.8627    2.1261   -1.3832 H       1  UNL1        0.0293
     34 H          -4.1919    1.1964    0.8941 H       1  UNL1        0.0733
     35 H          -2.6841    0.0959    3.3040 H       1  UNL1        0.0265
     36 H          -3.1830    1.8362    2.9692 H       1  UNL1        0.0265
     37 H          -4.4011    0.5390    3.1251 H       1  UNL1        0.0265
     38 H          -4.9649   -0.8309    1.7258 H       1  UNL1        0.0356
     39 H          -5.2552   -0.7612   -0.6975 H       1  UNL1        0.0466
     40 H          -3.4814   -1.1424   -0.9523 H       1  UNL1        0.0466
     41 H          -5.1228   -3.2772   -0.8200 H       1  UNL1        0.1487
     42 H          -3.1040   -2.0601    2.7070 H       1  UNL1        0.0363
     43 H          -2.1890   -2.0078    1.1087 H       1  UNL1        0.0363
     44 H          -0.0915   -0.7262    1.0216 H       1  UNL1        0.0660
     45 H           1.3912   -2.5565    0.4918 H       1  UNL1        0.0854
     46 H           5.6880   -2.1285   -1.6292 H       1  UNL1        0.0263
     47 H           7.1681   -2.7287   -0.8056 H       1  UNL1        0.0263
     48 H           7.0997   -1.0225   -1.3238 H       1  UNL1        0.0263
     49 H           6.9676   -2.1941    2.1436 H       1  UNL1        0.0263
     50 H           6.6223   -3.4505    0.9058 H       1  UNL1        0.0263
     51 H           5.2844   -2.8876    1.9575 H       1  UNL1        0.0263
     52 H           4.1105    0.6422   -0.3275 H       1  UNL1        0.0833
     53 H           2.2383    1.3406   -1.8145 H       1  UNL1        0.0646
     54 H          -2.1129    4.1569   -4.1100 H       1  UNL1        0.0473
     55 H          -0.8148    5.2659   -3.5312 H       1  UNL1        0.0473
     56 H          -2.3916    5.1556   -2.6562 H       1  UNL1        0.0473
@<TRIPOS>BOND
     1     1     2    1
     2     2     3   ar
     3     3     4   ar
     4     4     5    1
     5     5     6    1
     6     6     7    1
     7     6     8    1
     8     8     9    1
     9     9    10    1
    10    10    11   am
    11    11    12    2
    12    11    13    1
    13     4    14   ar
    14    14    15   ar
    15    15    16    1
    16    16    17   ar
    17    17    18   ar
    18    18    19   ar
    19    19    20    1
    20    20    21    1
    21    20    22    1
    22    20    23    1
    23    23    24    3
    24    19    25   ar
    25    15    26   ar
    26    26    27   ar
    27    27    28   ar
    28    28    29   ar
    29    29    30    1
    30    29     2   ar
    31    27     3   ar
    32    13     8    1
    33    25    16   ar
    34     1    31    1
    35     1    32    1
    36     1    33    1
    37     6    34    1
    38     7    35    1
    39     7    36    1
    40     7    37    1
    41     8    38    1
    42     9    39    1
    43     9    40    1
    44    10    41    1
    45    13    42    1
    46    13    43    1
    47    14    44    1
    48    17    45    1
    49    21    46    1
    50    21    47    1
    51    21    48    1
    52    22    49    1
    53    22    50    1
    54    22    51    1
    55    25    52    1
    56    26    53    1
    57    30    54    1
    58    30    55    1
    59    30    56    1
