
     RDKit          3D

 47 50  0  0  0  0  0  0  0  0999 V2000
   -3.9123   -2.3100   -2.1605 C   0  0  0  0  0  0  0  0  0  0  0  0
   -4.5110   -1.3161   -1.3906 O   0  0  0  0  0  0  0  0  0  0  0  0
   -3.8128   -0.3934   -0.6246 C   0  0  0  0  0  0  0  0  0  0  0  0
   -2.4399   -0.3854   -0.5621 C   0  0  0  0  0  0  0  0  0  0  0  0
   -1.6693    0.4837    0.1639 C   0  0  0  0  0  0  0  0  0  0  0  0
   -0.2564    0.5049    0.2386 N   0  0  0  0  0  0  0  0  0  0  0  0
    0.6496   -0.3631   -0.4183 C   0  0  0  0  0  0  0  0  0  0  0  0
    0.3450   -1.3705   -1.2361 N   0  0  0  0  0  0  0  0  0  0  0  0
    1.2129   -2.1837   -1.8507 C   0  0  0  0  0  0  0  0  0  0  0  0
    2.5518   -1.9899   -1.6411 C   0  0  0  0  0  0  0  0  0  0  0  0
    3.7474   -2.5475   -2.0379 C   0  0  0  0  0  0  0  0  0  0  0  0
    4.7762   -1.8393   -1.4298 C   0  0  0  0  0  0  0  0  0  0  0  0
    4.2465   -0.8719   -0.6780 N   0  0  0  0  0  0  0  0  0  0  0  0
    2.9093   -0.9583   -0.8017 C   0  0  0  0  0  0  0  0  0  0  0  0
    1.9678   -0.1948   -0.2299 N   0  0  0  0  0  0  0  0  0  0  0  0
    5.0762    0.0139    0.0640 C   0  0  0  0  0  0  0  0  0  0  0  0
    6.2509    0.5441   -0.4259 C   0  0  0  0  0  0  0  0  0  0  0  0
    6.9412    1.3902    0.4239 C   0  0  0  0  0  0  0  0  0  0  0  0
    6.5318    1.7215    1.6930 C   0  0  0  0  0  0  0  0  0  0  0  0
    5.3469    1.1526    2.1147 C   0  0  0  0  0  0  0  0  0  0  0  0
    4.6405    0.3138    1.3028 N   0  0  0  0  0  0  0  0  0  0  0  0
   -2.4107    1.4035    0.8688 C   0  0  0  0  0  0  0  0  0  0  0  0
   -3.7861    1.4510    0.8506 C   0  0  0  0  0  0  0  0  0  0  0  0
   -4.4811    2.4018    1.5822 O   0  0  0  0  0  0  0  0  0  0  0  0
   -3.7811    3.3427    2.3627 C   0  0  0  0  0  0  0  0  0  0  0  0
   -4.5016    0.5486    0.1002 C   0  0  0  0  0  0  0  0  0  0  0  0
   -5.8876    0.5634    0.0553 O   0  0  0  0  0  0  0  0  0  0  0  0
   -6.5963   -0.2153    1.0169 C   0  0  0  0  0  0  0  0  0  0  0  0
   -3.0296   -2.7929   -1.7298 H   0  0  0  0  0  0  0  0  0  0  0  0
   -4.6846   -3.1243   -2.2754 H   0  0  0  0  0  0  0  0  0  0  0  0
   -3.6955   -1.9733   -3.2069 H   0  0  0  0  0  0  0  0  0  0  0  0
   -1.9616   -1.1496   -1.1534 H   0  0  0  0  0  0  0  0  0  0  0  0
    0.1586    1.2481    0.8497 H   0  0  0  0  0  0  0  0  0  0  0  0
    0.9121   -2.9784   -2.4983 H   0  0  0  0  0  0  0  0  0  0  0  0
    3.7950   -3.3930   -2.7120 H   0  0  0  0  0  0  0  0  0  0  0  0
    5.7994   -2.1521   -1.6380 H   0  0  0  0  0  0  0  0  0  0  0  0
    6.5738    0.2889   -1.4140 H   0  0  0  0  0  0  0  0  0  0  0  0
    7.8768    1.8221    0.0541 H   0  0  0  0  0  0  0  0  0  0  0  0
    7.0884    2.3861    2.3407 H   0  0  0  0  0  0  0  0  0  0  0  0
    4.9986    1.3983    3.1175 H   0  0  0  0  0  0  0  0  0  0  0  0
   -1.9291    2.1540    1.4884 H   0  0  0  0  0  0  0  0  0  0  0  0
   -3.2350    2.7981    3.1588 H   0  0  0  0  0  0  0  0  0  0  0  0
   -3.0258    3.8537    1.7527 H   0  0  0  0  0  0  0  0  0  0  0  0
   -4.5331    4.0676    2.7853 H   0  0  0  0  0  0  0  0  0  0  0  0
   -7.4764    0.3516    1.3575 H   0  0  0  0  0  0  0  0  0  0  0  0
   -5.9236   -0.5178    1.8559 H   0  0  0  0  0  0  0  0  0  0  0  0
   -6.8563   -1.1833    0.5168 H   0  0  0  0  0  0  0  0  0  0  0  0
  1  2  1  0
  2  3  1  0
  3  4  2  0
  4  5  1  0
  5  6  1  0
  6  7  1  0
  7  8  2  0
  8  9  1  0
  9 10  2  0
 10 11  1  0
 11 12  2  0
 12 13  1  0
 13 14  1  0
 14 15  2  0
 13 16  1  0
 16 17  2  0
 17 18  1  0
 18 19  2  0
 19 20  1  0
 20 21  2  0
  5 22  2  0
 22 23  1  0
 23 24  1  0
 24 25  1  0
 23 26  2  0
 26 27  1  0
 27 28  1  0
 26  3  1  0
 15  7  1  0
 21 16  1  0
 14 10  1  0
  1 29  1  0
  1 30  1  0
  1 31  1  0
  4 32  1  0
  6 33  1  0
  9 34  1  0
 11 35  1  0
 12 36  1  0
 17 37  1  0
 18 38  1  0
 19 39  1  0
 20 40  1  0
 22 41  1  0
 25 42  1  0
 25 43  1  0
 25 44  1  0
 28 45  1  0
 28 46  1  0
 28 47  1  0
M  END
$$$$
