@<TRIPOS>MOLECULE
*****
 47 50 0 0 0
SMALL
GASTEIGER

@<TRIPOS>ATOM
      1 C          -3.9123   -2.3100   -2.1605 C.3     1  UNL1        0.0790
      2 O          -4.5110   -1.3161   -1.3906 O.3     1  UNL1       -0.4913
      3 C          -3.8128   -0.3934   -0.6246 C.ar    1  UNL1        0.1669
      4 C          -2.4399   -0.3854   -0.5621 C.ar    1  UNL1        0.0052
      5 C          -1.6693    0.4837    0.1639 C.ar    1  UNL1        0.0407
      6 N          -0.2564    0.5049    0.2386 N.pl3   1  UNL1       -0.2833
      7 C           0.6496   -0.3631   -0.4183 C.ar    1  UNL1        0.2214
      8 N           0.3450   -1.3705   -1.2361 N.ar    1  UNL1       -0.2219
      9 C           1.2129   -2.1837   -1.8507 C.ar    1  UNL1        0.0419
     10 C           2.5518   -1.9899   -1.6411 C.ar    1  UNL1        0.0375
     11 C           3.7474   -2.5475   -2.0379 C.ar    1  UNL1       -0.0330
     12 C           4.7762   -1.8393   -1.4298 C.ar    1  UNL1        0.0138
     13 N           4.2465   -0.8719   -0.6780 N.ar    1  UNL1       -0.2851
     14 C           2.9093   -0.9583   -0.8017 C.ar    1  UNL1        0.1513
     15 N           1.9678   -0.1948   -0.2299 N.ar    1  UNL1       -0.1958
     16 C           5.0762    0.0139    0.0640 C.ar    1  UNL1        0.1390
     17 C           6.2509    0.5441   -0.4259 C.ar    1  UNL1       -0.0188
     18 C           6.9412    1.3902    0.4239 C.ar    1  UNL1       -0.0569
     19 C           6.5318    1.7215    1.6930 C.ar    1  UNL1       -0.0435
     20 C           5.3469    1.1526    2.1147 C.ar    1  UNL1        0.0299
     21 N           4.6405    0.3138    1.3028 N.ar    1  UNL1       -0.2375
     22 C          -2.4107    1.4035    0.8688 C.ar    1  UNL1        0.0052
     23 C          -3.7861    1.4510    0.8506 C.ar    1  UNL1        0.1669
     24 O          -4.4811    2.4018    1.5822 O.3     1  UNL1       -0.4913
     25 C          -3.7811    3.3427    2.3627 C.3     1  UNL1        0.0790
     26 C          -4.5016    0.5486    0.1002 C.ar    1  UNL1        0.2036
     27 O          -5.8876    0.5634    0.0553 O.3     1  UNL1       -0.4885
     28 C          -6.5963   -0.2153    1.0169 C.3     1  UNL1        0.0791
     29 H          -3.0296   -2.7929   -1.7298 H       1  UNL1        0.0660
     30 H          -4.6846   -3.1243   -2.2754 H       1  UNL1        0.0660
     31 H          -3.6955   -1.9733   -3.2069 H       1  UNL1        0.0660
     32 H          -1.9616   -1.1496   -1.1534 H       1  UNL1        0.0674
     33 H           0.1586    1.2481    0.8497 H       1  UNL1        0.1550
     34 H           0.9121   -2.9784   -2.4983 H       1  UNL1        0.0838
     35 H           3.7950   -3.3930   -2.7120 H       1  UNL1        0.0640
     36 H           5.7994   -2.1521   -1.6380 H       1  UNL1        0.0814
     37 H           6.5738    0.2889   -1.4140 H       1  UNL1        0.0654
     38 H           7.8768    1.8221    0.0541 H       1  UNL1        0.0619
     39 H           7.0884    2.3861    2.3407 H       1  UNL1        0.0633
     40 H           4.9986    1.3983    3.1175 H       1  UNL1        0.0830
     41 H          -1.9291    2.1540    1.4884 H       1  UNL1        0.0674
     42 H          -3.2350    2.7981    3.1588 H       1  UNL1        0.0660
     43 H          -3.0258    3.8537    1.7527 H       1  UNL1        0.0660
     44 H          -4.5331    4.0676    2.7853 H       1  UNL1        0.0660
     45 H          -7.4764    0.3516    1.3575 H       1  UNL1        0.0660
     46 H          -5.9236   -0.5178    1.8559 H       1  UNL1        0.0660
     47 H          -6.8563   -1.1833    0.5168 H       1  UNL1        0.0660
@<TRIPOS>BOND
     1     1     2    1
     2     2     3    1
     3     3     4   ar
     4     4     5   ar
     5     5     6    1
     6     6     7    1
     7     7     8   ar
     8     8     9   ar
     9     9    10   ar
    10    10    11   ar
    11    11    12   ar
    12    12    13   ar
    13    13    14   ar
    14    14    15   ar
    15    13    16    1
    16    16    17   ar
    17    17    18   ar
    18    18    19   ar
    19    19    20   ar
    20    20    21   ar
    21     5    22   ar
    22    22    23   ar
    23    23    24    1
    24    24    25    1
    25    23    26   ar
    26    26    27    1
    27    27    28    1
    28    26     3   ar
    29    15     7   ar
    30    21    16   ar
    31    14    10   ar
    32     1    29    1
    33     1    30    1
    34     1    31    1
    35     4    32    1
    36     6    33    1
    37     9    34    1
    38    11    35    1
    39    12    36    1
    40    17    37    1
    41    18    38    1
    42    19    39    1
    43    20    40    1
    44    22    41    1
    45    25    42    1
    46    25    43    1
    47    25    44    1
    48    28    45    1
    49    28    46    1
    50    28    47    1
