@<TRIPOS>MOLECULE
*****
 49 52 0 0 0
SMALL
GASTEIGER

@<TRIPOS>ATOM
      1 O           2.0464    0.7625   -1.9202 O.3     1  UNL1       -0.3857
      2 C           2.3482    0.7083   -0.5496 C.3     1  UNL1        0.0955
      3 C           3.8185    0.7229   -0.2954 C.3     1  UNL1        0.0266
      4 N           4.1807    0.6723    1.0814 N.3     1  UNL1       -0.3105
      5 C           5.6308    0.6999    1.1596 C.3     1  UNL1        0.0078
      6 C           6.4450   -0.3492    0.5272 C.3     1  UNL1       -0.0361
      7 C           6.2527   -0.3964    2.0208 C.3     1  UNL1       -0.0361
      8 C           1.5977    1.8314    0.1058 C.3     1  UNL1       -0.0055
      9 C           0.1605    1.3795   -0.0501 C.3     1  UNL1        0.0177
     10 N           0.2258   -0.0485   -0.0726 N.pl3   1  UNL1       -0.2967
     11 C          -0.8629   -0.9562   -0.1460 C.ar    1  UNL1        0.2215
     12 N          -2.1049   -0.4560   -0.2062 N.ar    1  UNL1       -0.1789
     13 C          -3.2124   -1.1980   -0.2782 C.ar    1  UNL1        0.2254
     14 O          -4.4824   -0.7560   -0.3409 O.3     1  UNL1       -0.4378
     15 C          -4.9633    0.5239   -0.3471 C.ar    1  UNL1        0.1331
     16 C          -4.1709    1.6461   -0.2845 C.ar    1  UNL1       -0.0191
     17 C          -4.7109    2.9112   -0.2943 C.ar    1  UNL1       -0.0556
     18 C          -6.0764    3.0505   -0.3687 C.ar    1  UNL1       -0.0262
     19 C          -6.8752    1.9366   -0.4316 C.ar    1  UNL1        0.1269
     20 F          -8.2255    2.0924   -0.5049 F       1  UNL1       -0.2054
     21 C          -6.3468    0.6978   -0.4220 C.ar    1  UNL1        0.0160
     22 C          -2.9869   -2.5831   -0.2871 C.ar    1  UNL1        0.0305
     23 C          -1.7409   -3.1209   -0.2272 C.ar    1  UNL1        0.1522
     24 C          -1.5378   -4.5890   -0.2386 C.3     1  UNL1        0.4345
     25 F          -1.6709   -5.1045   -1.5305 F       1  UNL1       -0.1644
     26 F          -0.2763   -4.9333    0.2043 F       1  UNL1       -0.1644
     27 F          -2.4847   -5.1939    0.5476 F       1  UNL1       -0.1644
     28 N          -0.6901   -2.2895   -0.1570 N.ar    1  UNL1       -0.2101
     29 C           1.6247   -0.4929   -0.0079 C.3     1  UNL1        0.0450
     30 H           2.5978    0.1501   -2.4505 H       1  UNL1        0.2103
     31 H           4.2222    1.6527   -0.7456 H       1  UNL1        0.0453
     32 H           4.2579   -0.1221   -0.8877 H       1  UNL1        0.0453
     33 H           3.7724   -0.1142    1.5954 H       1  UNL1        0.1223
     34 H           6.0792    1.7158    1.2245 H       1  UNL1        0.0460
     35 H           7.4811   -0.0872    0.2280 H       1  UNL1        0.0281
     36 H           6.0126   -1.1773   -0.0620 H       1  UNL1        0.0281
     37 H           5.6065   -1.1978    2.3910 H       1  UNL1        0.0281
     38 H           7.0735   -0.1256    2.7019 H       1  UNL1        0.0281
     39 H           1.7888    1.8912    1.2010 H       1  UNL1        0.0309
     40 H           1.7452    2.8118   -0.3785 H       1  UNL1        0.0309
     41 H          -0.2255    1.7121   -1.0432 H       1  UNL1        0.0465
     42 H          -0.4855    1.7767    0.7604 H       1  UNL1        0.0465
     43 H          -3.0854    1.5907   -0.2244 H       1  UNL1        0.0654
     44 H          -4.0639    3.7788   -0.2440 H       1  UNL1        0.0620
     45 H          -6.5428    4.0291   -0.3791 H       1  UNL1        0.0646
     46 H          -6.9653   -0.1856   -0.4710 H       1  UNL1        0.0683
     47 H          -3.8442   -3.2335   -0.3440 H       1  UNL1        0.0692
     48 H           1.7774   -1.4062   -0.6120 H       1  UNL1        0.0493
     49 H           1.8862   -0.6271    1.0538 H       1  UNL1        0.0493
@<TRIPOS>BOND
     1     1     2    1
     2     2     3    1
     3     3     4    1
     4     4     5    1
     5     5     6    1
     6     6     7    1
     7     2     8    1
     8     8     9    1
     9     9    10    1
    10    10    11    1
    11    11    12   ar
    12    12    13   ar
    13    13    14    1
    14    14    15    1
    15    15    16   ar
    16    16    17   ar
    17    17    18   ar
    18    18    19   ar
    19    19    20    1
    20    19    21   ar
    21    13    22   ar
    22    22    23   ar
    23    23    24    1
    24    24    25    1
    25    24    26    1
    26    24    27    1
    27    23    28   ar
    28    10    29    1
    29    29     2    1
    30     7     5    1
    31    28    11   ar
    32    21    15   ar
    33     1    30    1
    34     3    31    1
    35     3    32    1
    36     4    33    1
    37     5    34    1
    38     6    35    1
    39     6    36    1
    40     7    37    1
    41     7    38    1
    42     8    39    1
    43     8    40    1
    44     9    41    1
    45     9    42    1
    46    16    43    1
    47    17    44    1
    48    18    45    1
    49    21    46    1
    50    22    47    1
    51    29    48    1
    52    29    49    1
