
     RDKit          3D

 49 52  0  0  0  0  0  0  0  0999 V2000
    2.0464    0.7625   -1.9202 O   0  0  0  0  0  0  0  0  0  0  0  0
    2.3482    0.7083   -0.5496 C   0  0  0  0  0  0  0  0  0  0  0  0
    3.8185    0.7229   -0.2954 C   0  0  0  0  0  0  0  0  0  0  0  0
    4.1807    0.6723    1.0814 N   0  0  0  0  0  0  0  0  0  0  0  0
    5.6308    0.6999    1.1596 C   0  0  0  0  0  0  0  0  0  0  0  0
    6.4450   -0.3492    0.5272 C   0  0  0  0  0  0  0  0  0  0  0  0
    6.2527   -0.3964    2.0208 C   0  0  0  0  0  0  0  0  0  0  0  0
    1.5977    1.8314    0.1058 C   0  0  0  0  0  0  0  0  0  0  0  0
    0.1605    1.3795   -0.0501 C   0  0  0  0  0  0  0  0  0  0  0  0
    0.2258   -0.0485   -0.0726 N   0  0  0  0  0  0  0  0  0  0  0  0
   -0.8629   -0.9562   -0.1460 C   0  0  0  0  0  0  0  0  0  0  0  0
   -2.1049   -0.4560   -0.2062 N   0  0  0  0  0  0  0  0  0  0  0  0
   -3.2124   -1.1980   -0.2782 C   0  0  0  0  0  0  0  0  0  0  0  0
   -4.4824   -0.7560   -0.3409 O   0  0  0  0  0  0  0  0  0  0  0  0
   -4.9633    0.5239   -0.3471 C   0  0  0  0  0  0  0  0  0  0  0  0
   -4.1709    1.6461   -0.2845 C   0  0  0  0  0  0  0  0  0  0  0  0
   -4.7109    2.9112   -0.2943 C   0  0  0  0  0  0  0  0  0  0  0  0
   -6.0764    3.0505   -0.3687 C   0  0  0  0  0  0  0  0  0  0  0  0
   -6.8752    1.9366   -0.4316 C   0  0  0  0  0  0  0  0  0  0  0  0
   -8.2255    2.0924   -0.5049 F   0  0  0  0  0  0  0  0  0  0  0  0
   -6.3468    0.6978   -0.4220 C   0  0  0  0  0  0  0  0  0  0  0  0
   -2.9869   -2.5831   -0.2871 C   0  0  0  0  0  0  0  0  0  0  0  0
   -1.7409   -3.1209   -0.2272 C   0  0  0  0  0  0  0  0  0  0  0  0
   -1.5378   -4.5890   -0.2386 C   0  0  0  0  0  0  0  0  0  0  0  0
   -1.6709   -5.1045   -1.5305 F   0  0  0  0  0  0  0  0  0  0  0  0
   -0.2763   -4.9333    0.2043 F   0  0  0  0  0  0  0  0  0  0  0  0
   -2.4847   -5.1939    0.5476 F   0  0  0  0  0  0  0  0  0  0  0  0
   -0.6901   -2.2895   -0.1570 N   0  0  0  0  0  0  0  0  0  0  0  0
    1.6247   -0.4929   -0.0079 C   0  0  0  0  0  0  0  0  0  0  0  0
    2.5978    0.1501   -2.4505 H   0  0  0  0  0  0  0  0  0  0  0  0
    4.2222    1.6527   -0.7456 H   0  0  0  0  0  0  0  0  0  0  0  0
    4.2579   -0.1221   -0.8877 H   0  0  0  0  0  0  0  0  0  0  0  0
    3.7724   -0.1142    1.5954 H   0  0  0  0  0  0  0  0  0  0  0  0
    6.0792    1.7158    1.2245 H   0  0  0  0  0  0  0  0  0  0  0  0
    7.4811   -0.0872    0.2280 H   0  0  0  0  0  0  0  0  0  0  0  0
    6.0126   -1.1773   -0.0620 H   0  0  0  0  0  0  0  0  0  0  0  0
    5.6065   -1.1978    2.3910 H   0  0  0  0  0  0  0  0  0  0  0  0
    7.0735   -0.1256    2.7019 H   0  0  0  0  0  0  0  0  0  0  0  0
    1.7888    1.8912    1.2010 H   0  0  0  0  0  0  0  0  0  0  0  0
    1.7452    2.8118   -0.3785 H   0  0  0  0  0  0  0  0  0  0  0  0
   -0.2255    1.7121   -1.0432 H   0  0  0  0  0  0  0  0  0  0  0  0
   -0.4855    1.7767    0.7604 H   0  0  0  0  0  0  0  0  0  0  0  0
   -3.0854    1.5907   -0.2244 H   0  0  0  0  0  0  0  0  0  0  0  0
   -4.0639    3.7788   -0.2440 H   0  0  0  0  0  0  0  0  0  0  0  0
   -6.5428    4.0291   -0.3791 H   0  0  0  0  0  0  0  0  0  0  0  0
   -6.9653   -0.1856   -0.4710 H   0  0  0  0  0  0  0  0  0  0  0  0
   -3.8442   -3.2335   -0.3440 H   0  0  0  0  0  0  0  0  0  0  0  0
    1.7774   -1.4062   -0.6120 H   0  0  0  0  0  0  0  0  0  0  0  0
    1.8862   -0.6271    1.0538 H   0  0  0  0  0  0  0  0  0  0  0  0
  1  2  1  0
  2  3  1  0
  3  4  1  0
  4  5  1  0
  5  6  1  0
  6  7  1  0
  2  8  1  0
  8  9  1  0
  9 10  1  0
 10 11  1  0
 11 12  2  0
 12 13  1  0
 13 14  1  0
 14 15  1  0
 15 16  2  0
 16 17  1  0
 17 18  2  0
 18 19  1  0
 19 20  1  0
 19 21  2  0
 13 22  2  0
 22 23  1  0
 23 24  1  0
 24 25  1  0
 24 26  1  0
 24 27  1  0
 23 28  2  0
 10 29  1  0
 29  2  1  0
  7  5  1  0
 28 11  1  0
 21 15  1  0
  1 30  1  0
  3 31  1  0
  3 32  1  0
  4 33  1  0
  5 34  1  0
  6 35  1  0
  6 36  1  0
  7 37  1  0
  7 38  1  0
  8 39  1  0
  8 40  1  0
  9 41  1  0
  9 42  1  0
 16 43  1  0
 17 44  1  0
 18 45  1  0
 21 46  1  0
 22 47  1  0
 29 48  1  0
 29 49  1  0
M  END
$$$$
