@<TRIPOS>MOLECULE
*****
 63 68 0 0 0
SMALL
GASTEIGER

@<TRIPOS>ATOM
      1 C           9.4831    2.5935    0.5761 C.3     1  UNL1       -0.0223
      2 C           8.5720    1.4275    0.3133 C.ar    1  UNL1        0.0389
      3 C           7.4535    1.2894    1.1251 C.ar    1  UNL1       -0.0400
      4 C           6.6085    0.2264    0.8995 C.ar    1  UNL1       -0.0503
      5 C           6.9056   -0.6565   -0.1204 C.ar    1  UNL1        0.0083
      6 C           6.0383   -1.7271   -0.3334 C.ar    1  UNL1       -0.0037
      7 C           4.8751   -1.8611    0.5292 C.ar    1  UNL1        0.0466
      8 C           4.7835   -2.5452    1.7267 C.ar    1  UNL1        0.0597
      9 N           3.5451   -2.4198    2.2012 N.ar    1  UNL1       -0.1727
     10 N           2.8237   -1.6731    1.3486 N.ar    1  UNL1       -0.2205
     11 C           1.5294   -1.3064    1.4515 C.ar    1  UNL1        0.0420
     12 C           0.9747   -0.5349    0.4666 C.ar    1  UNL1        0.0366
     13 C          -0.4174   -0.1001    0.5226 C.ar    1  UNL1        0.0741
     14 C          -1.2629   -0.4153    1.5474 C.ar    1  UNL1       -0.0321
     15 C          -2.5945    0.0324    1.5587 C.ar    1  UNL1       -0.0164
     16 C          -3.0884    0.8061    0.5321 C.ar    1  UNL1        0.1386
     17 O          -4.3915    1.2686    0.5035 O.3     1  UNL1       -0.4892
     18 C          -4.9342    2.0572   -0.5251 C.3     1  UNL1        0.1023
     19 C          -6.3799    2.3619   -0.1857 C.3     1  UNL1        0.0331
     20 N          -7.0879    1.1373   -0.0729 N.3     1  UNL1       -0.2991
     21 C          -7.2734    0.3897   -1.2703 C.3     1  UNL1       -0.0010
     22 C          -7.3114   -1.1016   -0.9266 C.3     1  UNL1       -0.0402
     23 C          -8.0763   -1.2584    0.3779 C.3     1  UNL1       -0.0507
     24 C          -9.0420   -0.0943    0.5384 C.3     1  UNL1       -0.0402
     25 C          -8.2936    1.2104    0.7116 C.3     1  UNL1       -0.0010
     26 C          -2.2041    1.1008   -0.4810 C.ar    1  UNL1        0.0699
     27 N          -0.9304    0.6697   -0.4868 N.ar    1  UNL1       -0.2513
     28 C           1.7883   -0.1721   -0.5927 C.ar    1  UNL1        0.0406
     29 N           3.0649   -0.5655   -0.6406 N.ar    1  UNL1       -0.2349
     30 C           3.6151   -1.3243    0.3260 C.ar    1  UNL1        0.1632
     31 C           6.3372   -2.6044   -1.3502 C.ar    1  UNL1       -0.0532
     32 C           7.4729   -2.4046   -2.1229 C.ar    1  UNL1       -0.0591
     33 C           8.3350   -1.3439   -1.9138 C.ar    1  UNL1       -0.0357
     34 C           8.0304   -0.4696   -0.8948 C.ar    1  UNL1        0.0718
     35 N           8.8563    0.5672   -0.6767 N.ar    1  UNL1       -0.2519
     36 H          10.3117    2.2566    1.2664 H       1  UNL1        0.0292
     37 H           9.9407    2.9686   -0.3663 H       1  UNL1        0.0292
     38 H           8.9128    3.4234    1.0401 H       1  UNL1        0.0292
     39 H           7.2302    1.9857    1.9206 H       1  UNL1        0.0636
     40 H           5.7329    0.0809    1.5016 H       1  UNL1        0.0625
     41 H           5.6142   -3.0806    2.1656 H       1  UNL1        0.0855
     42 H           0.9620   -1.6375    2.3198 H       1  UNL1        0.0838
     43 H          -0.8929   -1.0218    2.3631 H       1  UNL1        0.0640
     44 H          -3.2390   -0.2342    2.3850 H       1  UNL1        0.0655
     45 H          -4.8532    1.4972   -1.4893 H       1  UNL1        0.0709
     46 H          -4.3107    2.9738   -0.6093 H       1  UNL1        0.0709
     47 H          -6.8310    3.0891   -0.8863 H       1  UNL1        0.0460
     48 H          -6.3643    2.8371    0.8256 H       1  UNL1        0.0460
     49 H          -6.5883    0.6138   -2.0892 H       1  UNL1        0.0427
     50 H          -8.3097    0.6226   -1.6485 H       1  UNL1        0.0427
     51 H          -6.2779   -1.4383   -0.7859 H       1  UNL1        0.0278
     52 H          -7.8693   -1.6797   -1.6899 H       1  UNL1        0.0278
     53 H          -8.6172   -2.2038    0.4446 H       1  UNL1        0.0266
     54 H          -7.3133   -1.1402    1.1948 H       1  UNL1        0.0266
     55 H          -9.5986   -0.2605    1.4879 H       1  UNL1        0.0278
     56 H          -9.7337   -0.0771   -0.3288 H       1  UNL1        0.0278
     57 H          -8.9563    2.0022    0.2787 H       1  UNL1        0.0427
     58 H          -8.1128    1.4624    1.7554 H       1  UNL1        0.0427
     59 H          -2.5835    1.7200   -1.3120 H       1  UNL1        0.0867
     60 H           1.3391    0.4439   -1.3763 H       1  UNL1        0.0837
     61 H           5.6822   -3.4369   -1.5317 H       1  UNL1        0.0624
     62 H           7.7101   -3.1046   -2.9333 H       1  UNL1        0.0618
     63 H           9.2112   -1.2220   -2.5372 H       1  UNL1        0.0639
@<TRIPOS>BOND
     1     1     2    1
     2     2     3   ar
     3     3     4   ar
     4     4     5   ar
     5     5     6   ar
     6     6     7    1
     7     7     8   ar
     8     8     9   ar
     9     9    10   ar
    10    10    11   ar
    11    11    12   ar
    12    12    13    1
    13    13    14   ar
    14    14    15   ar
    15    15    16   ar
    16    16    17    1
    17    17    18    1
    18    18    19    1
    19    19    20    1
    20    20    21    1
    21    21    22    1
    22    22    23    1
    23    23    24    1
    24    24    25    1
    25    16    26   ar
    26    26    27   ar
    27    12    28   ar
    28    28    29   ar
    29    29    30   ar
    30     6    31   ar
    31    31    32   ar
    32    32    33   ar
    33    33    34   ar
    34    34    35   ar
    35    35     2   ar
    36    34     5   ar
    37    30     7   ar
    38    30    10   ar
    39    27    13   ar
    40    25    20    1
    41     1    36    1
    42     1    37    1
    43     1    38    1
    44     3    39    1
    45     4    40    1
    46     8    41    1
    47    11    42    1
    48    14    43    1
    49    15    44    1
    50    18    45    1
    51    18    46    1
    52    19    47    1
    53    19    48    1
    54    21    49    1
    55    21    50    1
    56    22    51    1
    57    22    52    1
    58    23    53    1
    59    23    54    1
    60    24    55    1
    61    24    56    1
    62    25    57    1
    63    25    58    1
    64    26    59    1
    65    28    60    1
    66    31    61    1
    67    32    62    1
    68    33    63    1
