
     RDKit          3D

 63 68  0  0  0  0  0  0  0  0999 V2000
    9.4831    2.5935    0.5761 C   0  0  0  0  0  0  0  0  0  0  0  0
    8.5720    1.4275    0.3133 C   0  0  0  0  0  0  0  0  0  0  0  0
    7.4535    1.2894    1.1251 C   0  0  0  0  0  0  0  0  0  0  0  0
    6.6085    0.2264    0.8995 C   0  0  0  0  0  0  0  0  0  0  0  0
    6.9056   -0.6565   -0.1204 C   0  0  0  0  0  0  0  0  0  0  0  0
    6.0383   -1.7271   -0.3334 C   0  0  0  0  0  0  0  0  0  0  0  0
    4.8751   -1.8611    0.5292 C   0  0  0  0  0  0  0  0  0  0  0  0
    4.7835   -2.5452    1.7267 C   0  0  0  0  0  0  0  0  0  0  0  0
    3.5451   -2.4198    2.2012 N   0  0  0  0  0  0  0  0  0  0  0  0
    2.8237   -1.6731    1.3486 N   0  0  0  0  0  0  0  0  0  0  0  0
    1.5294   -1.3064    1.4515 C   0  0  0  0  0  0  0  0  0  0  0  0
    0.9747   -0.5349    0.4666 C   0  0  0  0  0  0  0  0  0  0  0  0
   -0.4174   -0.1001    0.5226 C   0  0  0  0  0  0  0  0  0  0  0  0
   -1.2629   -0.4153    1.5474 C   0  0  0  0  0  0  0  0  0  0  0  0
   -2.5945    0.0324    1.5587 C   0  0  0  0  0  0  0  0  0  0  0  0
   -3.0884    0.8061    0.5321 C   0  0  0  0  0  0  0  0  0  0  0  0
   -4.3915    1.2686    0.5035 O   0  0  0  0  0  0  0  0  0  0  0  0
   -4.9342    2.0572   -0.5251 C   0  0  0  0  0  0  0  0  0  0  0  0
   -6.3799    2.3619   -0.1857 C   0  0  0  0  0  0  0  0  0  0  0  0
   -7.0879    1.1373   -0.0729 N   0  0  0  0  0  0  0  0  0  0  0  0
   -7.2734    0.3897   -1.2703 C   0  0  0  0  0  0  0  0  0  0  0  0
   -7.3114   -1.1016   -0.9266 C   0  0  0  0  0  0  0  0  0  0  0  0
   -8.0763   -1.2584    0.3779 C   0  0  0  0  0  0  0  0  0  0  0  0
   -9.0420   -0.0943    0.5384 C   0  0  0  0  0  0  0  0  0  0  0  0
   -8.2936    1.2104    0.7116 C   0  0  0  0  0  0  0  0  0  0  0  0
   -2.2041    1.1008   -0.4810 C   0  0  0  0  0  0  0  0  0  0  0  0
   -0.9304    0.6697   -0.4868 N   0  0  0  0  0  0  0  0  0  0  0  0
    1.7883   -0.1721   -0.5927 C   0  0  0  0  0  0  0  0  0  0  0  0
    3.0649   -0.5655   -0.6406 N   0  0  0  0  0  0  0  0  0  0  0  0
    3.6151   -1.3243    0.3260 C   0  0  0  0  0  0  0  0  0  0  0  0
    6.3372   -2.6044   -1.3502 C   0  0  0  0  0  0  0  0  0  0  0  0
    7.4729   -2.4046   -2.1229 C   0  0  0  0  0  0  0  0  0  0  0  0
    8.3350   -1.3439   -1.9138 C   0  0  0  0  0  0  0  0  0  0  0  0
    8.0304   -0.4696   -0.8948 C   0  0  0  0  0  0  0  0  0  0  0  0
    8.8563    0.5672   -0.6767 N   0  0  0  0  0  0  0  0  0  0  0  0
   10.3117    2.2566    1.2664 H   0  0  0  0  0  0  0  0  0  0  0  0
    9.9407    2.9686   -0.3663 H   0  0  0  0  0  0  0  0  0  0  0  0
    8.9128    3.4234    1.0401 H   0  0  0  0  0  0  0  0  0  0  0  0
    7.2302    1.9857    1.9206 H   0  0  0  0  0  0  0  0  0  0  0  0
    5.7329    0.0809    1.5016 H   0  0  0  0  0  0  0  0  0  0  0  0
    5.6142   -3.0806    2.1656 H   0  0  0  0  0  0  0  0  0  0  0  0
    0.9620   -1.6375    2.3198 H   0  0  0  0  0  0  0  0  0  0  0  0
   -0.8929   -1.0218    2.3631 H   0  0  0  0  0  0  0  0  0  0  0  0
   -3.2390   -0.2342    2.3850 H   0  0  0  0  0  0  0  0  0  0  0  0
   -4.8532    1.4972   -1.4893 H   0  0  0  0  0  0  0  0  0  0  0  0
   -4.3107    2.9738   -0.6093 H   0  0  0  0  0  0  0  0  0  0  0  0
   -6.8310    3.0891   -0.8863 H   0  0  0  0  0  0  0  0  0  0  0  0
   -6.3643    2.8371    0.8256 H   0  0  0  0  0  0  0  0  0  0  0  0
   -6.5883    0.6138   -2.0892 H   0  0  0  0  0  0  0  0  0  0  0  0
   -8.3097    0.6226   -1.6485 H   0  0  0  0  0  0  0  0  0  0  0  0
   -6.2779   -1.4383   -0.7859 H   0  0  0  0  0  0  0  0  0  0  0  0
   -7.8693   -1.6797   -1.6899 H   0  0  0  0  0  0  0  0  0  0  0  0
   -8.6172   -2.2038    0.4446 H   0  0  0  0  0  0  0  0  0  0  0  0
   -7.3133   -1.1402    1.1948 H   0  0  0  0  0  0  0  0  0  0  0  0
   -9.5986   -0.2605    1.4879 H   0  0  0  0  0  0  0  0  0  0  0  0
   -9.7337   -0.0771   -0.3288 H   0  0  0  0  0  0  0  0  0  0  0  0
   -8.9563    2.0022    0.2787 H   0  0  0  0  0  0  0  0  0  0  0  0
   -8.1128    1.4624    1.7554 H   0  0  0  0  0  0  0  0  0  0  0  0
   -2.5835    1.7200   -1.3120 H   0  0  0  0  0  0  0  0  0  0  0  0
    1.3391    0.4439   -1.3763 H   0  0  0  0  0  0  0  0  0  0  0  0
    5.6822   -3.4369   -1.5317 H   0  0  0  0  0  0  0  0  0  0  0  0
    7.7101   -3.1046   -2.9333 H   0  0  0  0  0  0  0  0  0  0  0  0
    9.2112   -1.2220   -2.5372 H   0  0  0  0  0  0  0  0  0  0  0  0
  1  2  1  0
  2  3  2  0
  3  4  1  0
  4  5  2  0
  5  6  1  0
  6  7  1  0
  7  8  1  0
  8  9  2  0
  9 10  1  0
 10 11  1  0
 11 12  2  0
 12 13  1  0
 13 14  2  0
 14 15  1  0
 15 16  2  0
 16 17  1  0
 17 18  1  0
 18 19  1  0
 19 20  1  0
 20 21  1  0
 21 22  1  0
 22 23  1  0
 23 24  1  0
 24 25  1  0
 16 26  1  0
 26 27  2  0
 12 28  1  0
 28 29  2  0
 29 30  1  0
  6 31  2  0
 31 32  1  0
 32 33  2  0
 33 34  1  0
 34 35  2  0
 35  2  1  0
 34  5  1  0
 30  7  2  0
 30 10  1  0
 27 13  1  0
 25 20  1  0
  1 36  1  0
  1 37  1  0
  1 38  1  0
  3 39  1  0
  4 40  1  0
  8 41  1  0
 11 42  1  0
 14 43  1  0
 15 44  1  0
 18 45  1  0
 18 46  1  0
 19 47  1  0
 19 48  1  0
 21 49  1  0
 21 50  1  0
 22 51  1  0
 22 52  1  0
 23 53  1  0
 23 54  1  0
 24 55  1  0
 24 56  1  0
 25 57  1  0
 25 58  1  0
 26 59  1  0
 28 60  1  0
 31 61  1  0
 32 62  1  0
 33 63  1  0
M  END
$$$$
