@<TRIPOS>MOLECULE
*****
 44 47 0 0 0
SMALL
GASTEIGER

@<TRIPOS>ATOM
      1 C          -2.4561    0.7599   -1.4686 C.3     1  UNL1       -0.0569
      2 C          -2.1091    0.6956   -0.0156 C.3     1  UNL1       -0.0030
      3 C          -1.3356    1.8383    0.4979 C.3     1  UNL1       -0.0445
      4 C           0.1370    1.7115    0.5192 C.3     1  UNL1       -0.0454
      5 C           0.6910    0.3365    0.6251 C.3     1  UNL1       -0.0125
      6 C           2.1291    0.2932    0.3556 C.ar    1  UNL1       -0.0406
      7 C           2.9169    1.3428    0.7403 C.ar    1  UNL1       -0.0546
      8 C           4.2900    1.3341    0.5008 C.ar    1  UNL1       -0.0199
      9 C           4.8838    0.2695   -0.1280 C.ar    1  UNL1        0.1171
     10 O           6.2651    0.2661   -0.3662 O.3     1  UNL1       -0.5068
     11 C           4.0953   -0.7884   -0.5168 C.ar    1  UNL1       -0.0167
     12 C           2.7245   -0.7685   -0.2721 C.ar    1  UNL1       -0.0405
     13 C           1.9516   -1.9264   -0.7145 C.3     1  UNL1       -0.0270
     14 C           0.5591   -2.0226   -0.1591 C.3     1  UNL1       -0.0454
     15 C          -0.1088   -0.6680   -0.2021 C.3     1  UNL1       -0.0305
     16 C          -1.4602   -0.6421    0.3680 C.3     1  UNL1       -0.0298
     17 C          -2.4584   -1.5973   -0.1283 C.3     1  UNL1       -0.0470
     18 C          -3.7808   -0.9545    0.3114 C.3     1  UNL1       -0.0261
     19 C          -3.4416    0.4698    0.7161 C.3     1  UNL1        0.0609
     20 O          -4.4016    1.3578    0.2211 O.3     1  UNL1       -0.3912
     21 H          -1.7301    0.3328   -2.1501 H       1  UNL1        0.0236
     22 H          -2.6347    1.8248   -1.7226 H       1  UNL1        0.0236
     23 H          -3.4380    0.2465   -1.6920 H       1  UNL1        0.0236
     24 H          -1.7396    2.1022    1.5201 H       1  UNL1        0.0272
     25 H          -1.5938    2.7455   -0.1245 H       1  UNL1        0.0272
     26 H           0.6326    2.2144   -0.3501 H       1  UNL1        0.0271
     27 H           0.5089    2.2878    1.4188 H       1  UNL1        0.0271
     28 H           0.5520   -0.0028    1.6899 H       1  UNL1        0.0352
     29 H           2.5359    2.2102    1.2351 H       1  UNL1        0.0622
     30 H           4.9194    2.1633    0.8035 H       1  UNL1        0.0654
     31 H           6.5780   -0.2958   -1.1496 H       1  UNL1        0.2921
     32 H           4.5691   -1.6273   -1.0132 H       1  UNL1        0.0657
     33 H           1.9109   -1.9250   -1.8381 H       1  UNL1        0.0313
     34 H           2.4949   -2.8460   -0.3861 H       1  UNL1        0.0313
     35 H          -0.0207   -2.6789   -0.8491 H       1  UNL1        0.0271
     36 H           0.5624   -2.4610    0.8579 H       1  UNL1        0.0271
     37 H          -0.0182   -0.3138   -1.2554 H       1  UNL1        0.0310
     38 H          -1.3920   -0.6188    1.4775 H       1  UNL1        0.0310
     39 H          -2.3986   -1.6838   -1.2193 H       1  UNL1        0.0269
     40 H          -2.3353   -2.5845    0.3914 H       1  UNL1        0.0269
     41 H          -4.1365   -1.4595    1.2500 H       1  UNL1        0.0290
     42 H          -4.5440   -1.0075   -0.4679 H       1  UNL1        0.0290
     43 H          -3.3108    0.5712    1.8087 H       1  UNL1        0.0599
     44 H          -5.0632    1.4988    0.9534 H       1  UNL1        0.2098
@<TRIPOS>BOND
     1     2     1    1
     2     2     3    1
     3     3     4    1
     4     4     5    1
     5     5     6    1
     6     6     7   ar
     7     7     8   ar
     8     8     9   ar
     9     9    10    1
    10     9    11   ar
    11    11    12   ar
    12    12    13    1
    13    13    14    1
    14    14    15    1
    15    15    16    1
    16    16    17    1
    17    17    18    1
    18    18    19    1
    19    19    20    1
    20    16     2    1
    21    19     2    1
    22    15     5    1
    23    12     6   ar
    24     1    21    1
    25     1    22    1
    26     1    23    1
    27     3    24    1
    28     3    25    1
    29     4    26    1
    30     4    27    1
    31     5    28    1
    32     7    29    1
    33     8    30    1
    34    10    31    1
    35    11    32    1
    36    13    33    1
    37    13    34    1
    38    14    35    1
    39    14    36    1
    40    15    37    1
    41    16    38    1
    42    17    39    1
    43    17    40    1
    44    18    41    1
    45    18    42    1
    46    19    43    1
    47    20    44    1
