@<TRIPOS>MOLECULE
*****
 54 57 0 0 0
SMALL
GASTEIGER

@<TRIPOS>ATOM
      1 C          -5.7669   -1.4615   -1.3509 C.3     1  UNL1       -0.0289
      2 C          -4.8902   -1.7650   -0.1559 C.3     1  UNL1        0.1257
      3 C          -5.7740   -2.2126    0.9885 C.3     1  UNL1       -0.0289
      4 O          -3.9923   -2.7623   -0.5306 O.3     1  UNL1       -0.3811
      5 C          -4.1761   -0.5259    0.2334 C.2     1  UNL1        0.2305
      6 O          -4.8801    0.4598    0.5911 O.2     1  UNL1       -0.2856
      7 C          -2.7085   -0.4428    0.2061 C.ar    1  UNL1        0.1972
      8 O          -1.9051   -1.4026   -0.1425 O.2     1  UNL1       -0.4318
      9 C          -0.6437   -1.0423   -0.0701 C.ar    1  UNL1        0.2304
     10 N           0.5143   -1.6624   -0.3191 N.ar    1  UNL1       -0.2114
     11 C           1.6987   -1.0218   -0.1507 C.ar    1  UNL1        0.0839
     12 C           2.9409   -1.7161   -0.4284 C.ar    1  UNL1        0.0194
     13 C           3.8860   -1.9421    0.5445 C.ar    1  UNL1       -0.0511
     14 C           5.0414   -2.6085    0.2073 C.ar    1  UNL1       -0.0611
     15 C           5.2569   -3.0489   -1.0929 C.ar    1  UNL1       -0.0603
     16 C           4.3116   -2.8221   -2.0625 C.ar    1  UNL1       -0.0427
     17 C           3.1509   -2.1511   -1.7175 C.ar    1  UNL1        0.0501
     18 CL          1.9721   -1.8821   -2.9789 Cl      1  UNL1       -0.0829
     19 C           1.7749    0.2757    0.2771 C.ar    1  UNL1        0.0090
     20 C           3.0636    0.8992    0.4369 C.ar    1  UNL1       -0.0157
     21 C           3.4613    1.3547    1.7021 C.ar    1  UNL1       -0.0526
     22 C           4.6793    1.9589    1.9271 C.ar    1  UNL1       -0.0428
     23 C           5.5093    2.0999    0.8314 C.ar    1  UNL1        0.0410
     24 CL          7.0807    2.8630    1.0465 Cl      1  UNL1       -0.0835
     25 C           5.1499    1.6643   -0.4225 C.ar    1  UNL1       -0.0428
     26 C           3.9324    1.0679   -0.6126 C.ar    1  UNL1       -0.0526
     27 C           0.5908    0.9236    0.5363 C.ar    1  UNL1       -0.0378
     28 C          -0.6172    0.2617    0.3618 C.ar    1  UNL1        0.0624
     29 C          -1.9260    0.6388    0.5358 C.ar    1  UNL1        0.0923
     30 N          -2.3447    1.9150    0.9749 N.am    1  UNL1       -0.2800
     31 C          -2.5841    2.9030   -0.0303 C.2     1  UNL1        0.2428
     32 O          -2.4239    2.6302   -1.2466 O.2     1  UNL1       -0.2730
     33 C          -3.0258    4.2468    0.4440 C.3     1  UNL1        0.1205
     34 O          -3.1993    5.0486   -0.7012 O.3     1  UNL1       -0.3858
     35 H          -6.0474   -0.3845   -1.3943 H       1  UNL1        0.0261
     36 H          -6.6679   -2.1202   -1.3094 H       1  UNL1        0.0261
     37 H          -5.2021   -1.7085   -2.2674 H       1  UNL1        0.0261
     38 H          -6.7520   -2.5803    0.6395 H       1  UNL1        0.0261
     39 H          -5.9662   -1.3272    1.6218 H       1  UNL1        0.0261
     40 H          -5.2160   -2.9476    1.6032 H       1  UNL1        0.0261
     41 H          -4.1582   -3.1032   -1.4437 H       1  UNL1        0.2107
     42 H           3.7608   -1.6166    1.5726 H       1  UNL1        0.0625
     43 H           5.8181   -2.8166    0.9185 H       1  UNL1        0.0618
     44 H           6.1769   -3.5790   -1.3593 H       1  UNL1        0.0618
     45 H           4.4727   -3.1657   -3.0898 H       1  UNL1        0.0632
     46 H           2.8071    1.2436    2.5649 H       1  UNL1        0.0624
     47 H           4.9727    2.3061    2.9117 H       1  UNL1        0.0632
     48 H           5.7851    1.7656   -1.2914 H       1  UNL1        0.0632
     49 H           3.6034    0.7058   -1.5950 H       1  UNL1        0.0624
     50 H           0.5954    1.9585    0.8798 H       1  UNL1        0.0632
     51 H          -2.4586    2.0791    1.9870 H       1  UNL1        0.1550
     52 H          -4.0047    4.2036    0.9345 H       1  UNL1        0.0654
     53 H          -2.2196    4.6555    1.0707 H       1  UNL1        0.0654
     54 H          -2.4568    5.6907   -0.7855 H       1  UNL1        0.2100
@<TRIPOS>BOND
     1     1     2    1
     2     2     3    1
     3     2     4    1
     4     2     5    1
     5     5     6    2
     6     5     7    1
     7     7     8   ar
     8     8     9   ar
     9     9    10   ar
    10    10    11   ar
    11    11    12    1
    12    12    13   ar
    13    13    14   ar
    14    14    15   ar
    15    15    16   ar
    16    16    17   ar
    17    17    18    1
    18    11    19   ar
    19    19    20    1
    20    20    21   ar
    21    21    22   ar
    22    22    23   ar
    23    23    24    1
    24    23    25   ar
    25    25    26   ar
    26    19    27   ar
    27    27    28   ar
    28    28    29   ar
    29    29    30    1
    30    30    31   am
    31    31    32    2
    32    31    33    1
    33    33    34    1
    34    29     7   ar
    35    28     9   ar
    36    17    12   ar
    37    26    20   ar
    38     1    35    1
    39     1    36    1
    40     1    37    1
    41     3    38    1
    42     3    39    1
    43     3    40    1
    44     4    41    1
    45    13    42    1
    46    14    43    1
    47    15    44    1
    48    16    45    1
    49    21    46    1
    50    22    47    1
    51    25    48    1
    52    26    49    1
    53    27    50    1
    54    30    51    1
    55    33    52    1
    56    33    53    1
    57    34    54    1
