@<TRIPOS>MOLECULE
*****
 60 64 0 0 0
SMALL
GASTEIGER

@<TRIPOS>ATOM
      1 C           8.0752    2.8338   -0.0531 C.3     1  UNL1        0.0788
      2 O           7.5701    1.7867    0.7281 O.3     1  UNL1       -0.4951
      3 C           6.5615    0.9359    0.3218 C.ar    1  UNL1        0.1201
      4 C           6.1347   -0.0641    1.1633 C.ar    1  UNL1       -0.0196
      5 C           5.1283   -0.9047    0.7436 C.ar    1  UNL1       -0.0534
      6 C           4.5305   -0.7771   -0.4980 C.ar    1  UNL1       -0.0275
      7 C           3.4708   -1.7045   -0.9061 C.3     1  UNL1        0.0497
      8 N           2.1374   -1.3207   -0.4978 N.ar    1  UNL1       -0.3274
      9 C           1.2477   -0.5687   -1.1697 C.ar    1  UNL1        0.0076
     10 C           0.0908   -0.4568   -0.4320 C.ar    1  UNL1       -0.0315
     11 C           0.2533   -1.1497    0.7245 C.ar    1  UNL1        0.0589
     12 C          -0.5746   -1.3528    1.8003 C.ar    1  UNL1        0.1354
     13 N          -1.8799   -0.9104    1.9194 N.pl3   1  UNL1       -0.2985
     14 C          -2.7638   -0.4393    0.9133 C.ar    1  UNL1        0.0394
     15 C          -3.2509    0.8509    0.8719 C.ar    1  UNL1       -0.0126
     16 C          -4.1390    1.3411   -0.0448 C.ar    1  UNL1        0.0937
     17 C          -4.6481    2.6944   -0.0488 C.ar    1  UNL1        0.1242
     18 N          -3.8161    3.7150    0.1849 N.ar    1  UNL1       -0.2505
     19 C          -4.2016    4.9958    0.1959 C.ar    1  UNL1        0.0285
     20 C          -5.5045    5.3329   -0.0386 C.ar    1  UNL1       -0.0408
     21 C          -6.4118    4.3280   -0.2865 C.ar    1  UNL1       -0.0228
     22 C          -5.9639    2.9994   -0.2882 C.ar    1  UNL1        0.1507
     23 F          -6.8347    2.0099   -0.5311 F       1  UNL1       -0.2032
     24 N          -4.5697    0.4655   -0.9941 N.ar    1  UNL1       -0.2529
     25 C          -4.1310   -0.8043   -1.0049 C.ar    1  UNL1        0.0335
     26 C          -3.2235   -1.2995   -0.0641 C.ar    1  UNL1       -0.0055
     27 C          -2.8335   -2.7056   -0.1681 C.3     1  UNL1       -0.0183
     28 C          -1.8857   -2.9605   -1.3055 C.3     1  UNL1       -0.0585
     29 C          -4.0173   -3.6514   -0.1733 C.3     1  UNL1       -0.0585
     30 N          -0.0458   -2.1100    2.8086 N.ar    1  UNL1       -0.2199
     31 C           1.1967   -2.6203    2.7474 C.ar    1  UNL1        0.1204
     32 N           1.9870   -2.4098    1.6838 N.ar    1  UNL1       -0.2176
     33 C           1.5273   -1.6781    0.6692 C.ar    1  UNL1        0.1460
     34 C           4.9869    0.2457   -1.3239 C.ar    1  UNL1       -0.0534
     35 C           5.9915    1.1009   -0.9309 C.ar    1  UNL1       -0.0196
     36 H           7.3007    3.3783   -0.6306 H       1  UNL1        0.0660
     37 H           8.8687    2.4654   -0.7605 H       1  UNL1        0.0660
     38 H           8.5508    3.6237    0.6009 H       1  UNL1        0.0660
     39 H           6.5801   -0.2017    2.1574 H       1  UNL1        0.0654
     40 H           4.7763   -1.7083    1.4057 H       1  UNL1        0.0622
     41 H           3.7323   -2.7065   -0.4674 H       1  UNL1        0.0542
     42 H           3.4631   -1.8426   -2.0165 H       1  UNL1        0.0542
     43 H           1.4335   -0.1292   -2.1423 H       1  UNL1        0.0810
     44 H          -0.7843    0.0781   -0.7076 H       1  UNL1        0.0640
     45 H          -2.3096   -0.9121    2.9093 H       1  UNL1        0.1536
     46 H          -2.8891    1.5254    1.6371 H       1  UNL1        0.0658
     47 H          -3.4881    5.7786    0.3919 H       1  UNL1        0.0830
     48 H          -5.8640    6.3667   -0.0377 H       1  UNL1        0.0634
     49 H          -7.4486    4.5684   -0.4743 H       1  UNL1        0.0647
     50 H          -4.5265   -1.4379   -1.7972 H       1  UNL1        0.0833
     51 H          -2.2610   -2.9865    0.7696 H       1  UNL1        0.0344
     52 H          -1.8327   -2.0363   -1.9297 H       1  UNL1        0.0235
     53 H          -2.2712   -3.7540   -1.9807 H       1  UNL1        0.0235
     54 H          -0.8575   -3.1895   -0.9771 H       1  UNL1        0.0235
     55 H          -3.6101   -4.6671   -0.3093 H       1  UNL1        0.0235
     56 H          -4.7898   -3.3832   -0.9009 H       1  UNL1        0.0235
     57 H          -4.4412   -3.6070    0.8588 H       1  UNL1        0.0235
     58 H           1.6058   -3.2179    3.5498 H       1  UNL1        0.1048
     59 H           4.5457    0.3673   -2.2844 H       1  UNL1        0.0622
     60 H           6.3221    1.8806   -1.5932 H       1  UNL1        0.0654
@<TRIPOS>BOND
     1     1     2    1
     2     2     3    1
     3     3     4   ar
     4     4     5   ar
     5     5     6   ar
     6     6     7    1
     7     7     8    1
     8     8     9   ar
     9     9    10   ar
    10    10    11   ar
    11    11    12   ar
    12    12    13    1
    13    13    14    1
    14    14    15   ar
    15    15    16   ar
    16    16    17    1
    17    17    18   ar
    18    18    19   ar
    19    19    20   ar
    20    20    21   ar
    21    21    22   ar
    22    22    23    1
    23    16    24   ar
    24    24    25   ar
    25    25    26   ar
    26    26    27    1
    27    27    28    1
    28    27    29    1
    29    12    30   ar
    30    30    31   ar
    31    31    32   ar
    32    32    33   ar
    33     6    34   ar
    34    34    35   ar
    35    35     3   ar
    36    33     8   ar
    37    33    11   ar
    38    26    14   ar
    39    22    17   ar
    40     1    36    1
    41     1    37    1
    42     1    38    1
    43     4    39    1
    44     5    40    1
    45     7    41    1
    46     7    42    1
    47     9    43    1
    48    10    44    1
    49    13    45    1
    50    15    46    1
    51    19    47    1
    52    20    48    1
    53    21    49    1
    54    25    50    1
    55    27    51    1
    56    28    52    1
    57    28    53    1
    58    28    54    1
    59    29    55    1
    60    29    56    1
    61    29    57    1
    62    31    58    1
    63    34    59    1
    64    35    60    1
