@<TRIPOS>MOLECULE
*****
 50 52 0 0 0
SMALL
GASTEIGER

@<TRIPOS>ATOM
      1 C          -8.5091   -0.7684    0.4075 C.3     1  UNL1       -0.0370
      2 C          -7.3874    0.1902    0.1031 C.ar    1  UNL1       -0.0150
      3 C          -6.4076    0.4551    1.0276 C.ar    1  UNL1       -0.0514
      4 C          -5.3502    1.3358    0.7776 C.ar    1  UNL1       -0.0299
      5 C          -4.3687    1.5312    1.8588 C.3     1  UNL1        0.0372
      6 N          -3.2681    0.5956    1.8395 N.am    1  UNL1       -0.3060
      7 C          -2.1589    0.6477    0.9753 C.2     1  UNL1        0.2628
      8 O          -2.1131    1.6010    0.1371 O.2     1  UNL1       -0.2685
      9 C          -1.0597   -0.3058    0.9673 C.ar    1  UNL1        0.1292
     10 C           0.0049   -0.2002    0.0982 C.ar    1  UNL1       -0.0006
     11 C           1.0599   -1.0935    0.0715 C.ar    1  UNL1        0.1292
     12 C           2.1364   -0.8953   -0.8880 C.2     1  UNL1        0.2628
     13 O           2.1267    0.0812   -1.6762 O.2     1  UNL1       -0.2685
     14 N           3.2020   -1.8132   -0.9315 N.am    1  UNL1       -0.3060
     15 C           4.3297   -1.7590   -1.8100 C.3     1  UNL1        0.0372
     16 C           5.3661   -0.7759   -1.4169 C.ar    1  UNL1       -0.0299
     17 C           5.3671    0.5278   -1.8654 C.ar    1  UNL1       -0.0543
     18 C           6.3725    1.3599   -1.4430 C.ar    1  UNL1       -0.0259
     19 C           7.3708    0.9022   -0.5812 C.ar    1  UNL1        0.1263
     20 F           8.3496    1.7454   -0.1822 F       1  UNL1       -0.2052
     21 C           7.3780   -0.3995   -0.1273 C.ar    1  UNL1       -0.0150
     22 C           8.4445   -0.9119    0.8059 C.3     1  UNL1       -0.0370
     23 C           6.3674   -1.2282   -0.5546 C.ar    1  UNL1       -0.0514
     24 N           1.0433   -2.1128    0.9358 N.ar    1  UNL1       -0.2308
     25 C           0.0107   -2.2342    1.7944 C.ar    1  UNL1        0.1176
     26 N          -1.0156   -1.3598    1.8159 N.ar    1  UNL1       -0.2308
     27 C          -5.3104    1.9502   -0.4501 C.ar    1  UNL1       -0.0543
     28 C          -6.2800    1.7042   -1.3985 C.ar    1  UNL1       -0.0259
     29 C          -7.3185    0.8224   -1.1183 C.ar    1  UNL1        0.1263
     30 F          -8.2641    0.5887   -2.0566 F       1  UNL1       -0.2052
     31 H          -9.1534   -0.8985   -0.4893 H       1  UNL1        0.0278
     32 H          -8.0862   -1.7567    0.7337 H       1  UNL1        0.0278
     33 H          -9.1171   -0.3741    1.2403 H       1  UNL1        0.0278
     34 H          -6.4570   -0.0356    1.9816 H       1  UNL1        0.0624
     35 H          -4.8866    1.6110    2.8109 H       1  UNL1        0.0512
     36 H          -3.8930    2.5396    1.6507 H       1  UNL1        0.0512
     37 H          -3.2701   -0.2105    2.5258 H       1  UNL1        0.1494
     38 H           0.0296    0.6206   -0.6053 H       1  UNL1        0.0663
     39 H           3.1546   -2.6217   -0.2387 H       1  UNL1        0.1494
     40 H           4.8279   -2.7663   -1.8400 H       1  UNL1        0.0512
     41 H           3.9514   -1.5489   -2.8425 H       1  UNL1        0.0512
     42 H           4.5946    0.8799   -2.5318 H       1  UNL1        0.0622
     43 H           6.3707    2.4012   -1.8012 H       1  UNL1        0.0646
     44 H           9.2404   -0.1538    0.8894 H       1  UNL1        0.0278
     45 H           7.9841   -1.1636    1.7792 H       1  UNL1        0.0278
     46 H           8.9088   -1.8153    0.3353 H       1  UNL1        0.0278
     47 H           6.3907   -2.2547   -0.1848 H       1  UNL1        0.0624
     48 H           0.0377   -3.0822    2.4840 H       1  UNL1        0.1047
     49 H          -4.5062    2.6344   -0.6581 H       1  UNL1        0.0622
     50 H          -6.2393    2.1914   -2.3551 H       1  UNL1        0.0646
@<TRIPOS>BOND
     1     1     2    1
     2     2     3   ar
     3     3     4   ar
     4     4     5    1
     5     5     6    1
     6     6     7   am
     7     7     8    2
     8     7     9    1
     9     9    10   ar
    10    10    11   ar
    11    11    12    1
    12    12    13    2
    13    12    14   am
    14    14    15    1
    15    15    16    1
    16    16    17   ar
    17    17    18   ar
    18    18    19   ar
    19    19    20    1
    20    19    21   ar
    21    21    22    1
    22    21    23   ar
    23    11    24   ar
    24    24    25   ar
    25    25    26   ar
    26     4    27   ar
    27    27    28   ar
    28    28    29   ar
    29    29    30    1
    30    29     2   ar
    31    26     9   ar
    32    23    16   ar
    33     1    31    1
    34     1    32    1
    35     1    33    1
    36     3    34    1
    37     5    35    1
    38     5    36    1
    39     6    37    1
    40    10    38    1
    41    14    39    1
    42    15    40    1
    43    15    41    1
    44    17    42    1
    45    18    43    1
    46    22    44    1
    47    22    45    1
    48    22    46    1
    49    23    47    1
    50    25    48    1
    51    27    49    1
    52    28    50    1
