
     RDKit          3D

 50 52  0  0  0  0  0  0  0  0999 V2000
   -8.5091   -0.7684    0.4075 C   0  0  0  0  0  0  0  0  0  0  0  0
   -7.3874    0.1902    0.1031 C   0  0  0  0  0  0  0  0  0  0  0  0
   -6.4076    0.4551    1.0276 C   0  0  0  0  0  0  0  0  0  0  0  0
   -5.3502    1.3358    0.7776 C   0  0  0  0  0  0  0  0  0  0  0  0
   -4.3687    1.5312    1.8588 C   0  0  0  0  0  0  0  0  0  0  0  0
   -3.2681    0.5956    1.8395 N   0  0  0  0  0  0  0  0  0  0  0  0
   -2.1589    0.6477    0.9753 C   0  0  0  0  0  0  0  0  0  0  0  0
   -2.1131    1.6010    0.1371 O   0  0  0  0  0  0  0  0  0  0  0  0
   -1.0597   -0.3058    0.9673 C   0  0  0  0  0  0  0  0  0  0  0  0
    0.0049   -0.2002    0.0982 C   0  0  0  0  0  0  0  0  0  0  0  0
    1.0599   -1.0935    0.0715 C   0  0  0  0  0  0  0  0  0  0  0  0
    2.1364   -0.8953   -0.8880 C   0  0  0  0  0  0  0  0  0  0  0  0
    2.1267    0.0812   -1.6762 O   0  0  0  0  0  0  0  0  0  0  0  0
    3.2020   -1.8132   -0.9315 N   0  0  0  0  0  0  0  0  0  0  0  0
    4.3297   -1.7590   -1.8100 C   0  0  0  0  0  0  0  0  0  0  0  0
    5.3661   -0.7759   -1.4169 C   0  0  0  0  0  0  0  0  0  0  0  0
    5.3671    0.5278   -1.8654 C   0  0  0  0  0  0  0  0  0  0  0  0
    6.3725    1.3599   -1.4430 C   0  0  0  0  0  0  0  0  0  0  0  0
    7.3708    0.9022   -0.5812 C   0  0  0  0  0  0  0  0  0  0  0  0
    8.3496    1.7454   -0.1822 F   0  0  0  0  0  0  0  0  0  0  0  0
    7.3780   -0.3995   -0.1273 C   0  0  0  0  0  0  0  0  0  0  0  0
    8.4445   -0.9119    0.8059 C   0  0  0  0  0  0  0  0  0  0  0  0
    6.3674   -1.2282   -0.5546 C   0  0  0  0  0  0  0  0  0  0  0  0
    1.0433   -2.1128    0.9358 N   0  0  0  0  0  0  0  0  0  0  0  0
    0.0107   -2.2342    1.7944 C   0  0  0  0  0  0  0  0  0  0  0  0
   -1.0156   -1.3598    1.8159 N   0  0  0  0  0  0  0  0  0  0  0  0
   -5.3104    1.9502   -0.4501 C   0  0  0  0  0  0  0  0  0  0  0  0
   -6.2800    1.7042   -1.3985 C   0  0  0  0  0  0  0  0  0  0  0  0
   -7.3185    0.8224   -1.1183 C   0  0  0  0  0  0  0  0  0  0  0  0
   -8.2641    0.5887   -2.0566 F   0  0  0  0  0  0  0  0  0  0  0  0
   -9.1534   -0.8985   -0.4893 H   0  0  0  0  0  0  0  0  0  0  0  0
   -8.0862   -1.7567    0.7337 H   0  0  0  0  0  0  0  0  0  0  0  0
   -9.1171   -0.3741    1.2403 H   0  0  0  0  0  0  0  0  0  0  0  0
   -6.4570   -0.0356    1.9816 H   0  0  0  0  0  0  0  0  0  0  0  0
   -4.8866    1.6110    2.8109 H   0  0  0  0  0  0  0  0  0  0  0  0
   -3.8930    2.5396    1.6507 H   0  0  0  0  0  0  0  0  0  0  0  0
   -3.2701   -0.2105    2.5258 H   0  0  0  0  0  0  0  0  0  0  0  0
    0.0296    0.6206   -0.6053 H   0  0  0  0  0  0  0  0  0  0  0  0
    3.1546   -2.6217   -0.2387 H   0  0  0  0  0  0  0  0  0  0  0  0
    4.8279   -2.7663   -1.8400 H   0  0  0  0  0  0  0  0  0  0  0  0
    3.9514   -1.5489   -2.8425 H   0  0  0  0  0  0  0  0  0  0  0  0
    4.5946    0.8799   -2.5318 H   0  0  0  0  0  0  0  0  0  0  0  0
    6.3707    2.4012   -1.8012 H   0  0  0  0  0  0  0  0  0  0  0  0
    9.2404   -0.1538    0.8894 H   0  0  0  0  0  0  0  0  0  0  0  0
    7.9841   -1.1636    1.7792 H   0  0  0  0  0  0  0  0  0  0  0  0
    8.9088   -1.8153    0.3353 H   0  0  0  0  0  0  0  0  0  0  0  0
    6.3907   -2.2547   -0.1848 H   0  0  0  0  0  0  0  0  0  0  0  0
    0.0377   -3.0822    2.4840 H   0  0  0  0  0  0  0  0  0  0  0  0
   -4.5062    2.6344   -0.6581 H   0  0  0  0  0  0  0  0  0  0  0  0
   -6.2393    2.1914   -2.3551 H   0  0  0  0  0  0  0  0  0  0  0  0
  1  2  1  0
  2  3  2  0
  3  4  1  0
  4  5  1  0
  5  6  1  0
  6  7  1  0
  7  8  2  0
  7  9  1  0
  9 10  2  0
 10 11  1  0
 11 12  1  0
 12 13  2  0
 12 14  1  0
 14 15  1  0
 15 16  1  0
 16 17  2  0
 17 18  1  0
 18 19  2  0
 19 20  1  0
 19 21  1  0
 21 22  1  0
 21 23  2  0
 11 24  2  0
 24 25  1  0
 25 26  2  0
  4 27  2  0
 27 28  1  0
 28 29  2  0
 29 30  1  0
 29  2  1  0
 26  9  1  0
 23 16  1  0
  1 31  1  0
  1 32  1  0
  1 33  1  0
  3 34  1  0
  5 35  1  0
  5 36  1  0
  6 37  1  0
 10 38  1  0
 14 39  1  0
 15 40  1  0
 15 41  1  0
 17 42  1  0
 18 43  1  0
 22 44  1  0
 22 45  1  0
 22 46  1  0
 23 47  1  0
 25 48  1  0
 27 49  1  0
 28 50  1  0
M  END
$$$$
