@<TRIPOS>MOLECULE
*****
 79 84 0 0 0
SMALL
GASTEIGER

@<TRIPOS>ATOM
      1 C          -1.5470   -0.0980   -0.5060 C.3     1  UNL1       -0.0373
      2 C          -1.6316   -0.4825   -1.9120 C.ar    1  UNL1       -0.0186
      3 C          -2.8023   -0.2901   -2.5966 C.ar    1  UNL1        0.0373
      4 N          -3.9169    0.2460   -1.9142 N.am    1  UNL1       -0.2813
      5 C          -4.9060   -0.5759   -1.3193 C.2     1  UNL1        0.2483
      6 O          -4.7170   -1.8240   -1.4542 O.2     1  UNL1       -0.2699
      7 C          -6.0750   -0.1187   -0.5966 C.ar    1  UNL1        0.0370
      8 C          -7.0400   -1.0369   -0.1553 C.ar    1  UNL1       -0.0494
      9 C          -8.1527   -0.6545    0.5509 C.ar    1  UNL1       -0.0574
     10 C          -8.3816    0.6592    0.8659 C.ar    1  UNL1       -0.0419
     11 C          -9.5660    1.0604    1.6408 C.3     1  UNL1       -0.0127
     12 C          -9.2329    0.9430    3.1236 C.3     1  UNL1       -0.0560
     13 C         -10.7485    0.2051    1.3084 C.3     1  UNL1       -0.0560
     14 C          -9.9221    2.5105    1.4169 C.3     1  UNL1       -0.0560
     15 C          -7.4520    1.5862    0.4453 C.ar    1  UNL1       -0.0574
     16 C          -6.3283    1.1948   -0.2689 C.ar    1  UNL1       -0.0494
     17 C          -2.8828   -0.6474   -3.9158 C.ar    1  UNL1       -0.0402
     18 C          -1.8155   -1.2047   -4.5997 C.ar    1  UNL1       -0.0593
     19 C          -0.6517   -1.3932   -3.9047 C.ar    1  UNL1       -0.0507
     20 C          -0.5530   -1.0311   -2.5515 C.ar    1  UNL1        0.0239
     21 C           0.7151   -1.2814   -1.8870 C.ar    1  UNL1        0.1644
     22 N           1.0153   -0.9097   -0.6344 N.ar    1  UNL1       -0.2102
     23 C           2.1781   -1.1599   -0.0252 C.ar    1  UNL1        0.1546
     24 N           2.5019   -0.7663    1.3002 N.pl3   1  UNL1       -0.2976
     25 C           3.7723   -0.1556    1.5466 C.ar    1  UNL1        0.0325
     26 C           4.3205   -0.1411    2.8140 C.ar    1  UNL1       -0.0398
     27 C           5.5572    0.4693    3.0002 C.ar    1  UNL1       -0.0479
     28 C           6.2421    1.0549    1.9566 C.ar    1  UNL1        0.0370
     29 C           7.5315    1.6996    2.1197 C.2     1  UNL1        0.2467
     30 O           7.5744    2.6924    2.9101 O.2     1  UNL1       -0.2700
     31 N           8.6843    1.2458    1.4324 N.am    1  UNL1       -0.2932
     32 C           9.9275    1.9378    1.6351 C.3     1  UNL1        0.0385
     33 C          11.0348    1.0862    1.0380 C.3     1  UNL1        0.0635
     34 O          10.8636   -0.2533    1.3632 O.3     1  UNL1       -0.3767
     35 C           9.7509   -0.8162    0.8072 C.3     1  UNL1        0.0635
     36 C           8.6047    0.1277    0.5506 C.3     1  UNL1        0.0385
     37 C           5.6583    1.0171    0.7157 C.ar    1  UNL1       -0.0479
     38 C           4.4232    0.4197    0.4761 C.ar    1  UNL1       -0.0398
     39 C           3.1533   -1.8579   -0.7365 C.ar    1  UNL1        0.1476
     40 N           4.3857   -2.2591   -0.4163 N.ar    1  UNL1       -0.2308
     41 C           4.8793   -2.8953   -1.4831 C.ar    1  UNL1        0.0957
     42 N           3.9645   -2.9023   -2.4859 N.ar    1  UNL1       -0.3291
     43 C           2.8694   -2.2486   -2.0197 C.ar    1  UNL1        0.1634
     44 N           1.6869   -1.9566   -2.5474 N.ar    1  UNL1       -0.2080
     45 H          -2.4816    0.3570   -0.1132 H       1  UNL1        0.0278
     46 H          -0.7333    0.6533   -0.4060 H       1  UNL1        0.0278
     47 H          -1.2284   -0.9753    0.1016 H       1  UNL1        0.0278
     48 H          -4.0133    1.2741   -1.8445 H       1  UNL1        0.1551
     49 H          -6.8358   -2.0745   -0.4182 H       1  UNL1        0.0625
     50 H          -8.8490   -1.4201    0.8566 H       1  UNL1        0.0621
     51 H          -8.5282    1.7273    3.4249 H       1  UNL1        0.0238
     52 H          -8.6853   -0.0257    3.2465 H       1  UNL1        0.0238
     53 H         -10.1546    0.9148    3.7038 H       1  UNL1        0.0238
     54 H         -11.6931    0.7459    1.4614 H       1  UNL1        0.0238
     55 H         -10.8019   -0.7408    1.8948 H       1  UNL1        0.0238
     56 H         -10.7246   -0.0834    0.2211 H       1  UNL1        0.0238
     57 H         -11.0036    2.6205    1.6138 H       1  UNL1        0.0238
     58 H          -9.4004    3.1707    2.1550 H       1  UNL1        0.0238
     59 H          -9.6276    2.8279    0.4209 H       1  UNL1        0.0238
     60 H          -7.6313    2.6330    0.6954 H       1  UNL1        0.0621
     61 H          -5.6103    1.9557   -0.5842 H       1  UNL1        0.0625
     62 H          -3.8091   -0.4967   -4.4466 H       1  UNL1        0.0636
     63 H          -1.8867   -1.4883   -5.6518 H       1  UNL1        0.0618
     64 H           0.1948   -1.8281   -4.4245 H       1  UNL1        0.0625
     65 H           1.8327   -0.9187    2.0826 H       1  UNL1        0.1536
     66 H           3.7914   -0.5971    3.6408 H       1  UNL1        0.0636
     67 H           6.0288    0.5070    3.9898 H       1  UNL1        0.0626
     68 H          10.1248    2.1497    2.7097 H       1  UNL1        0.0487
     69 H           9.8387    2.9208    1.0926 H       1  UNL1        0.0487
     70 H          12.0433    1.3856    1.4477 H       1  UNL1        0.0575
     71 H          11.0002    1.2402   -0.0659 H       1  UNL1        0.0575
     72 H           9.9711   -1.4018   -0.1201 H       1  UNL1        0.0575
     73 H           9.3569   -1.5921    1.5264 H       1  UNL1        0.0575
     74 H           8.7251    0.5300   -0.5011 H       1  UNL1        0.0487
     75 H           7.6310   -0.4184    0.6244 H       1  UNL1        0.0487
     76 H           6.1930    1.4796   -0.1231 H       1  UNL1        0.0626
     77 H           3.9993    0.4350   -0.5376 H       1  UNL1        0.0636
     78 H           5.8791   -3.3282   -1.4990 H       1  UNL1        0.1027
     79 H           4.1157   -3.3344   -3.4087 H       1  UNL1        0.1682
@<TRIPOS>BOND
     1     1     2    1
     2     2     3   ar
     3     3     4    1
     4     4     5   am
     5     5     6    2
     6     5     7    1
     7     7     8   ar
     8     8     9   ar
     9     9    10   ar
    10    10    11    1
    11    11    12    1
    12    11    13    1
    13    11    14    1
    14    10    15   ar
    15    15    16   ar
    16     3    17   ar
    17    17    18   ar
    18    18    19   ar
    19    19    20   ar
    20    20    21    1
    21    21    22   ar
    22    22    23   ar
    23    23    24    1
    24    24    25    1
    25    25    26   ar
    26    26    27   ar
    27    27    28   ar
    28    28    29    1
    29    29    30    2
    30    29    31   am
    31    31    32    1
    32    32    33    1
    33    33    34    1
    34    34    35    1
    35    35    36    1
    36    28    37   ar
    37    37    38   ar
    38    23    39   ar
    39    39    40   ar
    40    40    41   ar
    41    41    42   ar
    42    42    43   ar
    43    43    44   ar
    44    20     2   ar
    45    44    21   ar
    46    16     7   ar
    47    38    25   ar
    48    43    39   ar
    49    36    31    1
    50     1    45    1
    51     1    46    1
    52     1    47    1
    53     4    48    1
    54     8    49    1
    55     9    50    1
    56    12    51    1
    57    12    52    1
    58    12    53    1
    59    13    54    1
    60    13    55    1
    61    13    56    1
    62    14    57    1
    63    14    58    1
    64    14    59    1
    65    15    60    1
    66    16    61    1
    67    17    62    1
    68    18    63    1
    69    19    64    1
    70    24    65    1
    71    26    66    1
    72    27    67    1
    73    32    68    1
    74    32    69    1
    75    33    70    1
    76    33    71    1
    77    35    72    1
    78    35    73    1
    79    36    74    1
    80    36    75    1
    81    37    76    1
    82    38    77    1
    83    41    78    1
    84    42    79    1
