
     RDKit          3D

 82 85  0  0  0  0  0  0  0  0999 V2000
  -12.2563   -0.0593    2.5011 O   0  0  0  0  0  0  0  0  0  0  0  0
  -11.0157   -0.1353    2.2665 C   0  0  0  0  0  0  0  0  0  0  0  0
  -10.2002   -0.5879    3.2664 O   0  0  0  0  0  0  0  0  0  0  0  0
  -10.5000    0.2736    0.9107 C   0  0  0  0  0  0  0  0  0  0  0  0
   -8.9921    0.0276    0.9362 C   0  0  0  0  0  0  0  0  0  0  0  0
   -8.4100    0.4476   -0.3780 C   0  0  0  0  0  0  0  0  0  0  0  0
   -7.0653    0.3122   -0.5398 O   0  0  0  0  0  0  0  0  0  0  0  0
   -6.2075   -0.7421   -0.5598 C   0  0  0  0  0  0  0  0  0  0  0  0
   -6.5763   -2.0582   -0.4300 C   0  0  0  0  0  0  0  0  0  0  0  0
   -5.6431   -3.0918   -0.4619 C   0  0  0  0  0  0  0  0  0  0  0  0
   -4.2897   -2.8174   -0.6267 C   0  0  0  0  0  0  0  0  0  0  0  0
   -3.8969   -1.4997   -0.7569 C   0  0  0  0  0  0  0  0  0  0  0  0
   -2.4423   -1.1597   -0.8100 C   0  0  0  0  0  0  0  0  0  0  0  0
   -2.0321   -0.8228    0.6148 C   0  0  0  0  0  0  0  0  0  0  0  0
   -0.6046   -0.3987    0.7775 C   0  0  0  0  0  0  0  0  0  0  0  0
   -0.2693    0.8475   -0.0028 C   0  0  0  0  0  0  0  0  0  0  0  0
    1.1085    1.3323    0.1876 C   0  0  0  0  0  0  0  0  0  0  0  0
    2.2282    0.4057   -0.2045 C   0  0  0  0  0  0  0  0  0  0  0  0
    3.4176    1.0476    0.0812 O   0  0  0  0  0  0  0  0  0  0  0  0
    4.7182    0.7648   -0.0426 C   0  0  0  0  0  0  0  0  0  0  0  0
    5.6703    1.7272    0.3634 C   0  0  0  0  0  0  0  0  0  0  0  0
    7.0150    1.5148    0.2737 C   0  0  0  0  0  0  0  0  0  0  0  0
    7.9939    2.5296    0.6972 C   0  0  0  0  0  0  0  0  0  0  0  0
    7.7033    3.8652    0.5730 C   0  0  0  0  0  0  0  0  0  0  0  0
    8.6392    4.7844    0.9876 C   0  0  0  0  0  0  0  0  0  0  0  0
    9.8314    4.3639    1.5109 C   0  0  0  0  0  0  0  0  0  0  0  0
   10.1377    3.0280    1.6417 C   0  0  0  0  0  0  0  0  0  0  0  0
    9.2017    2.0818    1.2274 C   0  0  0  0  0  0  0  0  0  0  0  0
    7.4476    0.3030   -0.2367 C   0  0  0  0  0  0  0  0  0  0  0  0
    6.5339   -0.6637   -0.6441 C   0  0  0  0  0  0  0  0  0  0  0  0
    6.9457   -1.9651   -1.1557 C   0  0  0  0  0  0  0  0  0  0  0  0
    8.2627   -2.3229   -1.3113 C   0  0  0  0  0  0  0  0  0  0  0  0
    8.5894   -3.6029   -1.7869 C   0  0  0  0  0  0  0  0  0  0  0  0
    7.6252   -4.5314   -2.1100 C   0  0  0  0  0  0  0  0  0  0  0  0
    6.2994   -4.1754   -1.9553 C   0  0  0  0  0  0  0  0  0  0  0  0
    5.9706   -2.9027   -1.4825 C   0  0  0  0  0  0  0  0  0  0  0  0
    5.2145   -0.3779   -0.5245 N   0  0  0  0  0  0  0  0  0  0  0  0
   -4.8351   -0.5033   -0.7265 C   0  0  0  0  0  0  0  0  0  0  0  0
   -4.4314    0.8915   -0.8800 C   0  0  0  0  0  0  0  0  0  0  0  0
   -4.8985    1.5382   -2.1602 C   0  0  0  0  0  0  0  0  0  0  0  0
   -4.4800    0.8984   -3.3970 C   0  0  0  0  0  0  0  0  0  0  0  0
   -4.7106    1.5654   -4.4713 O   0  0  0  0  0  0  0  0  0  0  0  0
   -3.8768   -0.3147   -3.5742 O   0  0  0  0  0  0  0  0  0  0  0  0
  -10.5763   -1.2324    3.9737 H   0  0  0  0  0  0  0  0  0  0  0  0
  -10.7309    1.3265    0.6848 H   0  0  0  0  0  0  0  0  0  0  0  0
  -10.9767   -0.3504    0.1329 H   0  0  0  0  0  0  0  0  0  0  0  0
   -8.6112    0.6310    1.7888 H   0  0  0  0  0  0  0  0  0  0  0  0
   -8.8889   -1.0549    1.1176 H   0  0  0  0  0  0  0  0  0  0  0  0
   -8.6622    1.5442   -0.5088 H   0  0  0  0  0  0  0  0  0  0  0  0
   -9.0171   -0.0427   -1.1898 H   0  0  0  0  0  0  0  0  0  0  0  0
   -7.6020   -2.3597   -0.3076 H   0  0  0  0  0  0  0  0  0  0  0  0
   -5.9743   -4.1041   -0.3605 H   0  0  0  0  0  0  0  0  0  0  0  0
   -3.5726   -3.6292   -0.6474 H   0  0  0  0  0  0  0  0  0  0  0  0
   -1.8817   -2.0965   -1.0686 H   0  0  0  0  0  0  0  0  0  0  0  0
   -2.1592   -0.4100   -1.5278 H   0  0  0  0  0  0  0  0  0  0  0  0
   -2.1210   -1.8110    1.1677 H   0  0  0  0  0  0  0  0  0  0  0  0
   -2.7212   -0.1079    1.0884 H   0  0  0  0  0  0  0  0  0  0  0  0
    0.1034   -1.2154    0.5999 H   0  0  0  0  0  0  0  0  0  0  0  0
   -0.4866   -0.1426    1.8650 H   0  0  0  0  0  0  0  0  0  0  0  0
   -0.9671    1.6731    0.2219 H   0  0  0  0  0  0  0  0  0  0  0  0
   -0.4666    0.6119   -1.0899 H   0  0  0  0  0  0  0  0  0  0  0  0
    1.2433    2.2575   -0.4344 H   0  0  0  0  0  0  0  0  0  0  0  0
    1.3173    1.6493    1.2352 H   0  0  0  0  0  0  0  0  0  0  0  0
    2.1683   -0.5245    0.4352 H   0  0  0  0  0  0  0  0  0  0  0  0
    2.2044    0.1463   -1.2839 H   0  0  0  0  0  0  0  0  0  0  0  0
    5.3140    2.6606    0.7569 H   0  0  0  0  0  0  0  0  0  0  0  0
    6.7540    4.1509    0.1552 H   0  0  0  0  0  0  0  0  0  0  0  0
    8.4656    5.8601    0.9155 H   0  0  0  0  0  0  0  0  0  0  0  0
   10.5967    5.0757    1.8520 H   0  0  0  0  0  0  0  0  0  0  0  0
   11.1007    2.7330    2.0634 H   0  0  0  0  0  0  0  0  0  0  0  0
    9.4492    1.0353    1.3343 H   0  0  0  0  0  0  0  0  0  0  0  0
    8.4985    0.0745   -0.3322 H   0  0  0  0  0  0  0  0  0  0  0  0
    9.0633   -1.6458   -1.0768 H   0  0  0  0  0  0  0  0  0  0  0  0
    9.6313   -3.8712   -1.9021 H   0  0  0  0  0  0  0  0  0  0  0  0
    7.8695   -5.5329   -2.4777 H   0  0  0  0  0  0  0  0  0  0  0  0
    5.5564   -4.9105   -2.2115 H   0  0  0  0  0  0  0  0  0  0  0  0
    4.9459   -2.6450   -1.3698 H   0  0  0  0  0  0  0  0  0  0  0  0
   -4.8432    1.5386   -0.0485 H   0  0  0  0  0  0  0  0  0  0  0  0
   -3.3357    1.0783   -0.8432 H   0  0  0  0  0  0  0  0  0  0  0  0
   -4.4487    2.5711   -2.1645 H   0  0  0  0  0  0  0  0  0  0  0  0
   -5.9959    1.7298   -2.1515 H   0  0  0  0  0  0  0  0  0  0  0  0
   -3.1627   -0.4783   -4.2829 H   0  0  0  0  0  0  0  0  0  0  0  0
  1  2  2  0
  2  3  1  0
  2  4  1  0
  4  5  1  0
  5  6  1  0
  6  7  1  0
  7  8  1  0
  8  9  2  0
  9 10  1  0
 10 11  2  0
 11 12  1  0
 12 13  1  0
 13 14  1  0
 14 15  1  0
 15 16  1  0
 16 17  1  0
 17 18  1  0
 18 19  1  0
 19 20  1  0
 20 21  2  0
 21 22  1  0
 22 23  1  0
 23 24  2  0
 24 25  1  0
 25 26  2  0
 26 27  1  0
 27 28  2  0
 22 29  2  0
 29 30  1  0
 30 31  1  0
 31 32  2  0
 32 33  1  0
 33 34  2  0
 34 35  1  0
 35 36  2  0
 30 37  2  0
 12 38  2  0
 38 39  1  0
 39 40  1  0
 40 41  1  0
 41 42  2  0
 41 43  1  0
 38  8  1  0
 37 20  1  0
 28 23  1  0
 36 31  1  0
  3 44  1  0
  4 45  1  0
  4 46  1  0
  5 47  1  0
  5 48  1  0
  6 49  1  0
  6 50  1  0
  9 51  1  0
 10 52  1  0
 11 53  1  0
 13 54  1  0
 13 55  1  0
 14 56  1  0
 14 57  1  0
 15 58  1  0
 15 59  1  0
 16 60  1  0
 16 61  1  0
 17 62  1  0
 17 63  1  0
 18 64  1  0
 18 65  1  0
 21 66  1  0
 24 67  1  0
 25 68  1  0
 26 69  1  0
 27 70  1  0
 28 71  1  0
 29 72  1  0
 32 73  1  0
 33 74  1  0
 34 75  1  0
 35 76  1  0
 36 77  1  0
 39 78  1  0
 39 79  1  0
 40 80  1  0
 40 81  1  0
 43 82  1  0
M  END
$$$$
