@<TRIPOS>MOLECULE
*****
 82 85 0 0 0
SMALL
GASTEIGER

@<TRIPOS>ATOM
      1 O         -12.2563   -0.0593    2.5011 O.2     1  UNL1       -0.2510
      2 C         -11.0157   -0.1353    2.2665 C.2     1  UNL1        0.3048
      3 O         -10.2002   -0.5879    3.2664 O.3     1  UNL1       -0.4806
      4 C         -10.5000    0.2736    0.9107 C.3     1  UNL1        0.0478
      5 C          -8.9921    0.0276    0.9362 C.3     1  UNL1       -0.0086
      6 C          -8.4100    0.4476   -0.3780 C.3     1  UNL1        0.0901
      7 O          -7.0653    0.3122   -0.5398 O.3     1  UNL1       -0.4917
      8 C          -6.2075   -0.7421   -0.5598 C.ar    1  UNL1        0.1239
      9 C          -6.5763   -2.0582   -0.4300 C.ar    1  UNL1       -0.0197
     10 C          -5.6431   -3.0918   -0.4619 C.ar    1  UNL1       -0.0580
     11 C          -4.2897   -2.8174   -0.6267 C.ar    1  UNL1       -0.0581
     12 C          -3.8969   -1.4997   -0.7569 C.ar    1  UNL1       -0.0407
     13 C          -2.4423   -1.1597   -0.8100 C.3     1  UNL1       -0.0273
     14 C          -2.0321   -0.8228    0.6148 C.3     1  UNL1       -0.0490
     15 C          -0.6046   -0.3987    0.7775 C.3     1  UNL1       -0.0527
     16 C          -0.2693    0.8475   -0.0028 C.3     1  UNL1       -0.0500
     17 C           1.1085    1.3323    0.1876 C.3     1  UNL1       -0.0186
     18 C           2.2282    0.4057   -0.2045 C.3     1  UNL1        0.0912
     19 O           3.4176    1.0476    0.0812 O.3     1  UNL1       -0.4763
     20 C           4.7182    0.7648   -0.0426 C.ar    1  UNL1        0.2158
     21 C           5.6703    1.7272    0.3634 C.ar    1  UNL1        0.0077
     22 C           7.0150    1.5148    0.2737 C.ar    1  UNL1       -0.0108
     23 C           7.9939    2.5296    0.6972 C.ar    1  UNL1       -0.0177
     24 C           7.7033    3.8652    0.5730 C.ar    1  UNL1       -0.0540
     25 C           8.6392    4.7844    0.9876 C.ar    1  UNL1       -0.0612
     26 C           9.8314    4.3639    1.5109 C.ar    1  UNL1       -0.0617
     27 C          10.1377    3.0280    1.6417 C.ar    1  UNL1       -0.0612
     28 C           9.2017    2.0818    1.2274 C.ar    1  UNL1       -0.0540
     29 C           7.4476    0.3030   -0.2367 C.ar    1  UNL1       -0.0277
     30 C           6.5339   -0.6637   -0.6441 C.ar    1  UNL1        0.0754
     31 C           6.9457   -1.9651   -1.1557 C.ar    1  UNL1        0.0005
     32 C           8.2627   -2.3229   -1.3113 C.ar    1  UNL1       -0.0526
     33 C           8.5894   -3.6029   -1.7869 C.ar    1  UNL1       -0.0611
     34 C           7.6252   -4.5314   -2.1100 C.ar    1  UNL1       -0.0617
     35 C           6.2994   -4.1754   -1.9553 C.ar    1  UNL1       -0.0611
     36 C           5.9706   -2.9027   -1.4825 C.ar    1  UNL1       -0.0526
     37 N           5.2145   -0.3779   -0.5245 N.ar    1  UNL1       -0.2129
     38 C          -4.8351   -0.5033   -0.7265 C.ar    1  UNL1       -0.0020
     39 C          -4.4314    0.8915   -0.8800 C.3     1  UNL1       -0.0139
     40 C          -4.8985    1.5382   -2.1602 C.3     1  UNL1        0.0489
     41 C          -4.4800    0.8984   -3.3970 C.2     1  UNL1        0.3050
     42 O          -4.7106    1.5654   -4.4713 O.2     1  UNL1       -0.2510
     43 O          -3.8768   -0.3147   -3.5742 O.3     1  UNL1       -0.4806
     44 H         -10.5763   -1.2324    3.9737 H       1  UNL1        0.2951
     45 H         -10.7309    1.3265    0.6848 H       1  UNL1        0.0378
     46 H         -10.9767   -0.3504    0.1329 H       1  UNL1        0.0378
     47 H          -8.6112    0.6310    1.7888 H       1  UNL1        0.0303
     48 H          -8.8889   -1.0549    1.1176 H       1  UNL1        0.0303
     49 H          -8.6622    1.5442   -0.5088 H       1  UNL1        0.0696
     50 H          -9.0171   -0.0427   -1.1898 H       1  UNL1        0.0696
     51 H          -7.6020   -2.3597   -0.3076 H       1  UNL1        0.0654
     52 H          -5.9743   -4.1041   -0.3605 H       1  UNL1        0.0619
     53 H          -3.5726   -3.6292   -0.6474 H       1  UNL1        0.0620
     54 H          -1.8817   -2.0965   -1.0686 H       1  UNL1        0.0313
     55 H          -2.1592   -0.4100   -1.5278 H       1  UNL1        0.0313
     56 H          -2.1210   -1.8110    1.1677 H       1  UNL1        0.0268
     57 H          -2.7212   -0.1079    1.0884 H       1  UNL1        0.0268
     58 H           0.1034   -1.2154    0.5999 H       1  UNL1        0.0265
     59 H          -0.4866   -0.1426    1.8650 H       1  UNL1        0.0265
     60 H          -0.9671    1.6731    0.2219 H       1  UNL1        0.0266
     61 H          -0.4666    0.6119   -1.0899 H       1  UNL1        0.0266
     62 H           1.2433    2.2575   -0.4344 H       1  UNL1        0.0298
     63 H           1.3173    1.6493    1.2352 H       1  UNL1        0.0298
     64 H           2.1683   -0.5245    0.4352 H       1  UNL1        0.0697
     65 H           2.2044    0.1463   -1.2839 H       1  UNL1        0.0697
     66 H           5.3140    2.6606    0.7569 H       1  UNL1        0.0677
     67 H           6.7540    4.1509    0.1552 H       1  UNL1        0.0624
     68 H           8.4656    5.8601    0.9155 H       1  UNL1        0.0618
     69 H          10.5967    5.0757    1.8520 H       1  UNL1        0.0618
     70 H          11.1007    2.7330    2.0634 H       1  UNL1        0.0618
     71 H           9.4492    1.0353    1.3343 H       1  UNL1        0.0624
     72 H           8.4985    0.0745   -0.3322 H       1  UNL1        0.0645
     73 H           9.0633   -1.6458   -1.0768 H       1  UNL1        0.0624
     74 H           9.6313   -3.8712   -1.9021 H       1  UNL1        0.0618
     75 H           7.8695   -5.5329   -2.4777 H       1  UNL1        0.0618
     76 H           5.5564   -4.9105   -2.2115 H       1  UNL1        0.0618
     77 H           4.9459   -2.6450   -1.3698 H       1  UNL1        0.0624
     78 H          -4.8432    1.5386   -0.0485 H       1  UNL1        0.0320
     79 H          -3.3357    1.0783   -0.8432 H       1  UNL1        0.0320
     80 H          -4.4487    2.5711   -2.1645 H       1  UNL1        0.0381
     81 H          -5.9959    1.7298   -2.1515 H       1  UNL1        0.0381
     82 H          -3.1627   -0.4783   -4.2829 H       1  UNL1        0.2951
@<TRIPOS>BOND
     1     1     2    2
     2     2     3    1
     3     2     4    1
     4     4     5    1
     5     5     6    1
     6     6     7    1
     7     7     8    1
     8     8     9   ar
     9     9    10   ar
    10    10    11   ar
    11    11    12   ar
    12    12    13    1
    13    13    14    1
    14    14    15    1
    15    15    16    1
    16    16    17    1
    17    17    18    1
    18    18    19    1
    19    19    20    1
    20    20    21   ar
    21    21    22   ar
    22    22    23    1
    23    23    24   ar
    24    24    25   ar
    25    25    26   ar
    26    26    27   ar
    27    27    28   ar
    28    22    29   ar
    29    29    30   ar
    30    30    31    1
    31    31    32   ar
    32    32    33   ar
    33    33    34   ar
    34    34    35   ar
    35    35    36   ar
    36    30    37   ar
    37    12    38   ar
    38    38    39    1
    39    39    40    1
    40    40    41    1
    41    41    42    2
    42    41    43    1
    43    38     8   ar
    44    37    20   ar
    45    28    23   ar
    46    36    31   ar
    47     3    44    1
    48     4    45    1
    49     4    46    1
    50     5    47    1
    51     5    48    1
    52     6    49    1
    53     6    50    1
    54     9    51    1
    55    10    52    1
    56    11    53    1
    57    13    54    1
    58    13    55    1
    59    14    56    1
    60    14    57    1
    61    15    58    1
    62    15    59    1
    63    16    60    1
    64    16    61    1
    65    17    62    1
    66    17    63    1
    67    18    64    1
    68    18    65    1
    69    21    66    1
    70    24    67    1
    71    25    68    1
    72    26    69    1
    73    27    70    1
    74    28    71    1
    75    29    72    1
    76    32    73    1
    77    33    74    1
    78    34    75    1
    79    35    76    1
    80    36    77    1
    81    39    78    1
    82    39    79    1
    83    40    80    1
    84    40    81    1
    85    43    82    1
