@<TRIPOS>MOLECULE
*****
 52 55 0 0 0
SMALL
GASTEIGER

@<TRIPOS>ATOM
      1 N          -4.6490    3.4390   -0.2686 N.am    1  UNL1       -0.3275
      2 C          -3.7023    2.4700   -0.7112 C.2     1  UNL1        0.2354
      3 O          -3.2380    2.6644   -1.8790 O.2     1  UNL1       -0.2736
      4 C          -3.2552    1.3101    0.0862 C.3     1  UNL1        0.1247
      5 N          -2.2079    0.6339   -0.6438 N.am    1  UNL1       -0.2988
      6 C          -0.9111    0.5886   -0.1000 C.2     1  UNL1        0.2339
      7 O          -0.7056    1.1414    1.0098 O.2     1  UNL1       -0.2738
      8 C           0.2298   -0.0758   -0.7630 C.3     1  UNL1        0.0965
      9 N          -0.1454   -0.6695   -2.0313 N.3     1  UNL1       -0.3173
     10 C           1.2862    0.9561   -1.0318 C.3     1  UNL1       -0.0104
     11 C           2.5447    0.3586   -1.6146 C.3     1  UNL1        0.0156
     12 N           2.9011   -0.8888   -0.9960 N.pl3   1  UNL1       -0.3144
     13 C           4.2470   -1.1629   -0.6955 C.ar    1  UNL1        0.1337
     14 N           4.9228   -2.2008   -1.2692 N.ar    1  UNL1       -0.2200
     15 C           6.2056   -2.4399   -0.9725 C.ar    1  UNL1        0.1204
     16 N           6.8757   -1.6750   -0.1054 N.ar    1  UNL1       -0.2178
     17 C           6.2778   -0.6180    0.5135 C.ar    1  UNL1        0.1432
     18 N           6.7014    0.2887    1.4030 N.ar    1  UNL1       -0.3457
     19 C           5.6708    1.1006    1.6630 C.ar    1  UNL1        0.0042
     20 C           4.5733    0.7092    0.9307 C.ar    1  UNL1       -0.0318
     21 C           4.9577   -0.3836    0.1990 C.ar    1  UNL1        0.0585
     22 C           1.8895   -1.8628   -0.6791 C.3     1  UNL1        0.0156
     23 C           0.7962   -1.1498    0.1151 C.3     1  UNL1       -0.0104
     24 C          -4.3814    0.4216    0.3847 C.ar    1  UNL1       -0.0183
     25 C          -4.0901   -0.8158    0.9536 C.ar    1  UNL1       -0.0550
     26 C          -5.0824   -1.7228    1.2618 C.ar    1  UNL1       -0.0431
     27 C          -6.3987   -1.4102    1.0060 C.ar    1  UNL1        0.0410
     28 CL         -7.6984   -2.5450    1.3865 Cl      1  UNL1       -0.0835
     29 C          -6.7150   -0.2088    0.4504 C.ar    1  UNL1       -0.0431
     30 C          -5.6918    0.6998    0.1442 C.ar    1  UNL1       -0.0550
     31 H          -4.7409    3.7161    0.7437 H       1  UNL1        0.1450
     32 H          -5.2966    3.9194   -0.9317 H       1  UNL1        0.1450
     33 H          -2.8371    1.7206    1.0372 H       1  UNL1        0.0645
     34 H          -2.4193    0.1931   -1.5515 H       1  UNL1        0.1498
     35 H          -0.5915   -1.6030   -1.9231 H       1  UNL1        0.1192
     36 H          -0.6607   -0.0276   -2.6542 H       1  UNL1        0.1192
     37 H           0.8689    1.6389   -1.8270 H       1  UNL1        0.0303
     38 H           1.5120    1.6102   -0.1751 H       1  UNL1        0.0303
     39 H           2.4775    0.2497   -2.7197 H       1  UNL1        0.0465
     40 H           3.3660    1.0829   -1.4458 H       1  UNL1        0.0465
     41 H           6.7051   -3.2621   -1.4407 H       1  UNL1        0.1048
     42 H           7.6824    0.3255    1.8060 H       1  UNL1        0.1668
     43 H           5.7533    1.9366    2.3660 H       1  UNL1        0.0807
     44 H           3.5932    1.1662    0.9272 H       1  UNL1        0.0640
     45 H           1.4354   -2.1928   -1.6461 H       1  UNL1        0.0465
     46 H           2.3040   -2.7044   -0.0928 H       1  UNL1        0.0465
     47 H           1.2849   -0.6814    0.9997 H       1  UNL1        0.0303
     48 H           0.0631   -1.9196    0.3994 H       1  UNL1        0.0303
     49 H          -3.0726   -1.1073    1.1733 H       1  UNL1        0.0621
     50 H          -4.8507   -2.6803    1.7027 H       1  UNL1        0.0632
     51 H          -7.7568    0.0450    0.2452 H       1  UNL1        0.0632
     52 H          -6.0268    1.6219   -0.2970 H       1  UNL1        0.0621
@<TRIPOS>BOND
     1     1     2   am
     2     2     3    2
     3     2     4    1
     4     4     5    1
     5     5     6   am
     6     6     7    2
     7     6     8    1
     8     8     9    1
     9     8    10    1
    10    10    11    1
    11    11    12    1
    12    12    13    1
    13    13    14   ar
    14    14    15   ar
    15    15    16   ar
    16    16    17   ar
    17    17    18   ar
    18    18    19   ar
    19    19    20   ar
    20    20    21   ar
    21    12    22    1
    22    22    23    1
    23     4    24    1
    24    24    25   ar
    25    25    26   ar
    26    26    27   ar
    27    27    28    1
    28    27    29   ar
    29    29    30   ar
    30    23     8    1
    31    30    24   ar
    32    21    13   ar
    33    21    17   ar
    34     1    31    1
    35     1    32    1
    36     4    33    1
    37     5    34    1
    38     9    35    1
    39     9    36    1
    40    10    37    1
    41    10    38    1
    42    11    39    1
    43    11    40    1
    44    15    41    1
    45    18    42    1
    46    19    43    1
    47    20    44    1
    48    22    45    1
    49    22    46    1
    50    23    47    1
    51    23    48    1
    52    25    49    1
    53    26    50    1
    54    29    51    1
    55    30    52    1
