@<TRIPOS>MOLECULE
*****
 61 63 0 0 0
SMALL
GASTEIGER

@<TRIPOS>ATOM
      1 C          -0.9477    3.4180    1.5929 C.3     1  UNL1        0.0369
      2 O          -0.3609    2.2294    1.2411 O.3     1  UNL1       -0.3767
      3 C          -0.2342    2.0082   -0.1339 C.3     1  UNL1        0.0893
      4 C           1.1860    1.9588   -0.5766 C.3     1  UNL1        0.0269
      5 N           1.8629    0.7390   -0.6083 N.3     1  UNL1       -0.2996
      6 C           2.8801    0.5325    0.3856 C.3     1  UNL1        0.0021
      7 C           4.0966    1.4304    0.2216 C.3     1  UNL1       -0.0058
      8 C           5.1045    1.0782    1.3145 C.3     1  UNL1        0.0907
      9 O           5.5526   -0.2341    1.2734 O.3     1  UNL1       -0.4919
     10 C           6.2673   -0.7812    0.2676 C.ar    1  UNL1        0.1207
     11 C           6.8263   -0.4379   -0.9364 C.ar    1  UNL1       -0.0172
     12 C           7.5294   -1.2531   -1.7832 C.ar    1  UNL1       -0.0230
     13 C           7.7084   -2.5805   -1.3965 C.ar    1  UNL1        0.1236
     14 F           8.4089   -3.3665   -2.2791 F       1  UNL1       -0.2055
     15 C           7.1806   -3.0123   -0.2007 C.ar    1  UNL1       -0.0230
     16 C           6.4711   -2.1199    0.6163 C.ar    1  UNL1       -0.0172
     17 C           1.0520   -0.4361   -0.8128 C.3     1  UNL1        0.0007
     18 C          -0.1404   -0.4046    0.1619 C.3     1  UNL1       -0.0192
     19 C          -0.9865    0.7574   -0.4306 C.3     1  UNL1        0.0519
     20 N          -2.2956    0.7613    0.1648 N.am    1  UNL1       -0.3058
     21 C          -3.2487   -0.0201   -0.4663 C.2     1  UNL1        0.2479
     22 O          -3.0232   -0.7186   -1.4931 O.2     1  UNL1       -0.2701
     23 C          -4.5133   -0.5912   -0.6934 C.ar    1  UNL1        0.0797
     24 C          -5.0341    0.3211    0.3839 C.ar    1  UNL1       -0.0259
     25 C          -6.3599    0.4858    0.9269 C.ar    1  UNL1        0.0625
     26 CL         -7.1678    1.4854    2.1587 Cl      1  UNL1       -0.0816
     27 C          -7.3824   -0.3235    0.3865 C.ar    1  UNL1        0.0466
     28 N          -8.7580   -0.4592    0.6356 N.pl3   1  UNL1       -0.3567
     29 C          -6.9889   -1.1965   -0.6140 C.ar    1  UNL1        0.0029
     30 C          -5.6906   -1.1214   -0.9031 C.ar    1  UNL1        0.1340
     31 O          -5.0225   -1.9307   -1.9132 O.3     1  UNL1       -0.4943
     32 C          -5.7287   -2.8706   -2.6657 C.3     1  UNL1        0.0788
     33 H          -1.0079    3.4043    2.7233 H       1  UNL1        0.0524
     34 H          -0.2063    4.2770    1.4184 H       1  UNL1        0.0524
     35 H          -1.9317    3.6398    1.2008 H       1  UNL1        0.0524
     36 H          -0.7249    2.8626   -0.6456 H       1  UNL1        0.0627
     37 H           1.7467    2.6886    0.0732 H       1  UNL1        0.0452
     38 H           1.2446    2.4201   -1.5986 H       1  UNL1        0.0452
     39 H           3.2576   -0.5306    0.2570 H       1  UNL1        0.0428
     40 H           2.4838    0.6148    1.3951 H       1  UNL1        0.0428
     41 H           3.8167    2.5040    0.3319 H       1  UNL1        0.0310
     42 H           4.5813    1.3458   -0.7535 H       1  UNL1        0.0310
     43 H           5.9382    1.8317    1.2628 H       1  UNL1        0.0697
     44 H           4.6255    1.2496    2.3299 H       1  UNL1        0.0697
     45 H           6.6733    0.5953   -1.1599 H       1  UNL1        0.0655
     46 H           7.8777   -0.7775   -2.6846 H       1  UNL1        0.0647
     47 H           7.3916   -4.0471   -0.0369 H       1  UNL1        0.0647
     48 H           6.1530   -2.6935    1.4996 H       1  UNL1        0.0655
     49 H           0.6395   -0.3788   -1.8339 H       1  UNL1        0.0427
     50 H           1.6397   -1.3425   -0.5989 H       1  UNL1        0.0427
     51 H          -0.6716   -1.3587    0.1497 H       1  UNL1        0.0296
     52 H           0.2828   -0.1021    1.1352 H       1  UNL1        0.0296
     53 H          -1.0411    0.4787   -1.5025 H       1  UNL1        0.0525
     54 H          -2.8091    1.1730    0.9575 H       1  UNL1        0.1494
     55 H          -4.6998    1.1435    1.1235 H       1  UNL1        0.0641
     56 H          -9.4600   -0.3273   -0.1406 H       1  UNL1        0.1424
     57 H          -8.9166   -0.6950    1.6402 H       1  UNL1        0.1424
     58 H          -7.4712   -1.9336   -1.2271 H       1  UNL1        0.0673
     59 H          -6.7083   -2.5213   -3.0367 H       1  UNL1        0.0660
     60 H          -5.0731   -3.0997   -3.5458 H       1  UNL1        0.0660
     61 H          -5.8735   -3.7690   -2.0080 H       1  UNL1        0.0660
@<TRIPOS>BOND
     1     1     2    1
     2     2     3    1
     3     3     4    1
     4     4     5    1
     5     5     6    1
     6     6     7    1
     7     7     8    1
     8     8     9    1
     9     9    10    1
    10    10    11   ar
    11    11    12   ar
    12    12    13   ar
    13    13    14    1
    14    13    15   ar
    15    15    16   ar
    16     5    17    1
    17    17    18    1
    18    18    19    1
    19    19    20    1
    20    20    21   am
    21    21    22    2
    22    21    23    1
    23    23    24   ar
    24    24    25   ar
    25    25    26    1
    26    25    27   ar
    27    27    28    1
    28    27    29   ar
    29    29    30   ar
    30    30    31    1
    31    31    32    1
    32    19     3    1
    33    30    23   ar
    34    16    10   ar
    35     1    33    1
    36     1    34    1
    37     1    35    1
    38     3    36    1
    39     4    37    1
    40     4    38    1
    41     6    39    1
    42     6    40    1
    43     7    41    1
    44     7    42    1
    45     8    43    1
    46     8    44    1
    47    11    45    1
    48    12    46    1
    49    15    47    1
    50    16    48    1
    51    17    49    1
    52    17    50    1
    53    18    51    1
    54    18    52    1
    55    19    53    1
    56    20    54    1
    57    24    55    1
    58    28    56    1
    59    28    57    1
    60    29    58    1
    61    32    59    1
    62    32    60    1
    63    32    61    1
