
     RDKit          3D

 54 56  0  0  0  0  0  0  0  0999 V2000
    5.2663    1.9543   -0.0972 C   0  0  0  0  0  0  0  0  0  0  0  0
    5.5844    0.8679   -1.1087 C   0  0  0  0  0  0  0  0  0  0  0  0
    5.5862   -0.3789   -0.4670 N   0  0  0  0  0  0  0  0  0  0  0  0
    6.5866   -0.6878    0.4653 C   0  0  0  0  0  0  0  0  0  0  0  0
    6.4893   -2.0742    1.0550 C   0  0  0  0  0  0  0  0  0  0  0  0
    4.4650   -1.2278   -0.5990 C   0  0  0  0  0  0  0  0  0  0  0  0
    3.1916   -0.6050   -0.1511 C   0  0  0  0  0  0  0  0  0  0  0  0
    2.3431    0.0787   -0.9831 C   0  0  0  0  0  0  0  0  0  0  0  0
    1.1596    0.6756   -0.5592 C   0  0  0  0  0  0  0  0  0  0  0  0
    0.7966    0.5935    0.7430 C   0  0  0  0  0  0  0  0  0  0  0  0
   -0.3860    1.1154    1.3720 C   0  0  0  0  0  0  0  0  0  0  0  0
   -1.5996    0.8851    0.9279 C   0  0  0  0  0  0  0  0  0  0  0  0
   -1.9752    0.0926   -0.2296 C   0  0  0  0  0  0  0  0  0  0  0  0
   -3.4653    0.0646   -0.2241 C   0  0  0  0  0  0  0  0  0  0  0  0
   -4.3674   -0.5907   -1.0807 C   0  0  0  0  0  0  0  0  0  0  0  0
   -5.7320   -0.4832   -0.9509 C   0  0  0  0  0  0  0  0  0  0  0  0
   -6.6050   -1.1436   -1.8147 O   0  0  0  0  0  0  0  0  0  0  0  0
   -6.1016   -1.9522   -2.8610 C   0  0  0  0  0  0  0  0  0  0  0  0
   -6.2073    0.3097    0.0741 C   0  0  0  0  0  0  0  0  0  0  0  0
   -7.5791    0.4280    0.2147 O   0  0  0  0  0  0  0  0  0  0  0  0
   -8.2556    1.1749    1.1746 C   0  0  0  0  0  0  0  0  0  0  0  0
   -5.3261    0.9554    0.9197 C   0  0  0  0  0  0  0  0  0  0  0  0
   -3.9383    0.8464    0.7893 C   0  0  0  0  0  0  0  0  0  0  0  0
   -2.8480    1.4064    1.5639 C   0  0  0  0  0  0  0  0  0  0  0  0
   -2.8843    2.1709    2.5624 O   0  0  0  0  0  0  0  0  0  0  0  0
    1.6570   -0.1066    1.6167 C   0  0  0  0  0  0  0  0  0  0  0  0
    2.8249   -0.6895    1.1740 C   0  0  0  0  0  0  0  0  0  0  0  0
    5.3350    2.9487   -0.5825 H   0  0  0  0  0  0  0  0  0  0  0  0
    4.2708    1.8132    0.3422 H   0  0  0  0  0  0  0  0  0  0  0  0
    5.9941    1.9426    0.7370 H   0  0  0  0  0  0  0  0  0  0  0  0
    4.8451    0.9588   -1.9260 H   0  0  0  0  0  0  0  0  0  0  0  0
    6.5999    1.0763   -1.5379 H   0  0  0  0  0  0  0  0  0  0  0  0
    6.6519    0.0948    1.2518 H   0  0  0  0  0  0  0  0  0  0  0  0
    7.5871   -0.6415   -0.0533 H   0  0  0  0  0  0  0  0  0  0  0  0
    6.6584   -2.7931    0.2135 H   0  0  0  0  0  0  0  0  0  0  0  0
    7.3452   -2.1820    1.7680 H   0  0  0  0  0  0  0  0  0  0  0  0
    5.5836   -2.2711    1.6239 H   0  0  0  0  0  0  0  0  0  0  0  0
    4.3185   -1.4027   -1.7095 H   0  0  0  0  0  0  0  0  0  0  0  0
    4.6149   -2.2487   -0.1870 H   0  0  0  0  0  0  0  0  0  0  0  0
    2.5817    0.1726   -2.0293 H   0  0  0  0  0  0  0  0  0  0  0  0
    0.5338    1.2257   -1.2568 H   0  0  0  0  0  0  0  0  0  0  0  0
   -0.2897    1.7463    2.2808 H   0  0  0  0  0  0  0  0  0  0  0  0
   -1.5981    0.4670   -1.2029 H   0  0  0  0  0  0  0  0  0  0  0  0
   -1.6551   -0.9737   -0.1674 H   0  0  0  0  0  0  0  0  0  0  0  0
   -3.9939   -1.2211   -1.8942 H   0  0  0  0  0  0  0  0  0  0  0  0
   -5.4180   -2.7378   -2.4808 H   0  0  0  0  0  0  0  0  0  0  0  0
   -5.5252   -1.3532   -3.5988 H   0  0  0  0  0  0  0  0  0  0  0  0
   -6.9475   -2.4797   -3.3704 H   0  0  0  0  0  0  0  0  0  0  0  0
   -8.5059    0.4796    2.0204 H   0  0  0  0  0  0  0  0  0  0  0  0
   -7.6433    1.9969    1.5928 H   0  0  0  0  0  0  0  0  0  0  0  0
   -9.2463    1.5466    0.8244 H   0  0  0  0  0  0  0  0  0  0  0  0
   -5.6656    1.5828    1.7316 H   0  0  0  0  0  0  0  0  0  0  0  0
    1.4270   -0.2088    2.6694 H   0  0  0  0  0  0  0  0  0  0  0  0
    3.4620   -1.2186    1.8824 H   0  0  0  0  0  0  0  0  0  0  0  0
  1  2  1  0
  2  3  1  0
  3  4  1  0
  4  5  1  0
  3  6  1  0
  6  7  1  0
  7  8  2  0
  8  9  1  0
  9 10  2  0
 10 11  1  0
 11 12  2  0
 12 13  1  0
 13 14  1  0
 14 15  2  0
 15 16  1  0
 16 17  1  0
 17 18  1  0
 16 19  2  0
 19 20  1  0
 20 21  1  0
 19 22  1  0
 22 23  2  0
 23 24  1  0
 24 25  2  0
 10 26  1  0
 26 27  2  0
 27  7  1  0
 24 12  1  0
 23 14  1  0
  1 28  1  0
  1 29  1  0
  1 30  1  0
  2 31  1  0
  2 32  1  0
  4 33  1  0
  4 34  1  0
  5 35  1  0
  5 36  1  0
  5 37  1  0
  6 38  1  0
  6 39  1  0
  8 40  1  0
  9 41  1  0
 11 42  1  0
 13 43  1  0
 13 44  1  0
 15 45  1  0
 18 46  1  0
 18 47  1  0
 18 48  1  0
 21 49  1  0
 21 50  1  0
 21 51  1  0
 22 52  1  0
 26 53  1  0
 27 54  1  0
M  END
$$$$
