@<TRIPOS>MOLECULE
*****
 54 56 0 0 0
SMALL
GASTEIGER

@<TRIPOS>ATOM
      1 C           5.2663    1.9543   -0.0972 C.3     1  UNL1       -0.0523
      2 C           5.5844    0.8679   -1.1087 C.3     1  UNL1       -0.0036
      3 N           5.5862   -0.3789   -0.4670 N.3     1  UNL1       -0.2987
      4 C           6.5866   -0.6878    0.4653 C.3     1  UNL1       -0.0036
      5 C           6.4893   -2.0742    1.0550 C.3     1  UNL1       -0.0523
      6 C           4.4650   -1.2278   -0.5990 C.3     1  UNL1        0.0240
      7 C           3.1916   -0.6050   -0.1511 C.ar    1  UNL1       -0.0333
      8 C           2.3431    0.0787   -0.9831 C.ar    1  UNL1       -0.0568
      9 C           1.1596    0.6756   -0.5592 C.ar    1  UNL1       -0.0543
     10 C           0.7966    0.5935    0.7430 C.ar    1  UNL1       -0.0246
     11 C          -0.3860    1.1154    1.3720 C.2     1  UNL1       -0.0474
     12 C          -1.5996    0.8851    0.9279 C.2     1  UNL1        0.0047
     13 C          -1.9752    0.0926   -0.2296 C.3     1  UNL1        0.0020
     14 C          -3.4653    0.0646   -0.2241 C.ar    1  UNL1       -0.0285
     15 C          -4.3674   -0.5907   -1.0807 C.ar    1  UNL1       -0.0121
     16 C          -5.7320   -0.4832   -0.9509 C.ar    1  UNL1        0.1618
     17 O          -6.6050   -1.1436   -1.8147 O.3     1  UNL1       -0.4914
     18 C          -6.1016   -1.9522   -2.8610 C.3     1  UNL1        0.0790
     19 C          -6.2073    0.3097    0.0741 C.ar    1  UNL1        0.1622
     20 O          -7.5791    0.4280    0.2147 O.3     1  UNL1       -0.4914
     21 C          -8.2556    1.1749    1.1746 C.3     1  UNL1        0.0790
     22 C          -5.3261    0.9554    0.9197 C.ar    1  UNL1       -0.0052
     23 C          -3.9383    0.8464    0.7893 C.ar    1  UNL1        0.0291
     24 C          -2.8480    1.4064    1.5639 C.2     1  UNL1        0.1899
     25 O          -2.8843    2.1709    2.5624 O.2     1  UNL1       -0.2870
     26 C           1.6570   -0.1066    1.6167 C.ar    1  UNL1       -0.0543
     27 C           2.8249   -0.6895    1.1740 C.ar    1  UNL1       -0.0568
     28 H           5.3350    2.9487   -0.5825 H       1  UNL1        0.0242
     29 H           4.2708    1.8132    0.3422 H       1  UNL1        0.0242
     30 H           5.9941    1.9426    0.7370 H       1  UNL1        0.0242
     31 H           4.8451    0.9588   -1.9260 H       1  UNL1        0.0424
     32 H           6.5999    1.0763   -1.5379 H       1  UNL1        0.0424
     33 H           6.6519    0.0948    1.2518 H       1  UNL1        0.0424
     34 H           7.5871   -0.6415   -0.0533 H       1  UNL1        0.0424
     35 H           6.6584   -2.7931    0.2135 H       1  UNL1        0.0242
     36 H           7.3452   -2.1820    1.7680 H       1  UNL1        0.0242
     37 H           5.5836   -2.2711    1.6239 H       1  UNL1        0.0242
     38 H           4.3185   -1.4027   -1.7095 H       1  UNL1        0.0476
     39 H           4.6149   -2.2487   -0.1870 H       1  UNL1        0.0476
     40 H           2.5817    0.1726   -2.0293 H       1  UNL1        0.0621
     41 H           0.5338    1.2257   -1.2568 H       1  UNL1        0.0624
     42 H          -0.2897    1.7463    2.2808 H       1  UNL1        0.0627
     43 H          -1.5981    0.4670   -1.2029 H       1  UNL1        0.0363
     44 H          -1.6551   -0.9737   -0.1674 H       1  UNL1        0.0363
     45 H          -3.9939   -1.2211   -1.8942 H       1  UNL1        0.0658
     46 H          -5.4180   -2.7378   -2.4808 H       1  UNL1        0.0660
     47 H          -5.5252   -1.3532   -3.5988 H       1  UNL1        0.0660
     48 H          -6.9475   -2.4797   -3.3704 H       1  UNL1        0.0660
     49 H          -8.5059    0.4796    2.0204 H       1  UNL1        0.0660
     50 H          -7.6433    1.9969    1.5928 H       1  UNL1        0.0660
     51 H          -9.2463    1.5466    0.8244 H       1  UNL1        0.0660
     52 H          -5.6656    1.5828    1.7316 H       1  UNL1        0.0662
     53 H           1.4270   -0.2088    2.6694 H       1  UNL1        0.0624
     54 H           3.4620   -1.2186    1.8824 H       1  UNL1        0.0621
@<TRIPOS>BOND
     1     1     2    1
     2     2     3    1
     3     3     4    1
     4     4     5    1
     5     3     6    1
     6     6     7    1
     7     7     8   ar
     8     8     9   ar
     9     9    10   ar
    10    10    11    1
    11    11    12    2
    12    12    13    1
    13    13    14    1
    14    14    15   ar
    15    15    16   ar
    16    16    17    1
    17    17    18    1
    18    16    19   ar
    19    19    20    1
    20    20    21    1
    21    19    22   ar
    22    22    23   ar
    23    23    24    1
    24    24    25    2
    25    10    26   ar
    26    26    27   ar
    27    27     7   ar
    28    24    12    1
    29    23    14   ar
    30     1    28    1
    31     1    29    1
    32     1    30    1
    33     2    31    1
    34     2    32    1
    35     4    33    1
    36     4    34    1
    37     5    35    1
    38     5    36    1
    39     5    37    1
    40     6    38    1
    41     6    39    1
    42     8    40    1
    43     9    41    1
    44    11    42    1
    45    13    43    1
    46    13    44    1
    47    15    45    1
    48    18    46    1
    49    18    47    1
    50    18    48    1
    51    21    49    1
    52    21    50    1
    53    21    51    1
    54    22    52    1
    55    26    53    1
    56    27    54    1
