@<TRIPOS>MOLECULE
*****
 33 34 0 0 0
SMALL
GASTEIGER

@<TRIPOS>ATOM
      1 C           4.3820    0.6820    0.2686 C.3     1  UNL1       -0.0394
      2 C           3.0771    0.3689   -0.4170 C.ar    1  UNL1       -0.0458
      3 C           1.9782    0.1543    0.3862 C.ar    1  UNL1       -0.0264
      4 C           2.1248    0.2391    1.8688 C.3     1  UNL1       -0.0377
      5 C           0.7723   -0.1324   -0.1731 C.ar    1  UNL1        0.0345
      6 N          -0.3198   -0.3426    0.7020 N.pl3   1  UNL1       -0.3136
      7 C          -1.6916   -0.6201    0.5513 C.ar    1  UNL1        0.0454
      8 C          -2.2141   -1.8337    1.0191 C.ar    1  UNL1       -0.0397
      9 C          -3.5341   -2.2567    0.9533 C.ar    1  UNL1       -0.0600
     10 C          -4.3863   -1.3553    0.3564 C.ar    1  UNL1       -0.0609
     11 C          -3.9599   -0.1436   -0.1289 C.ar    1  UNL1       -0.0460
     12 C          -2.6321    0.2040   -0.0251 C.ar    1  UNL1        0.0799
     13 C          -2.2399    1.5192   -0.5114 C.2     1  UNL1        0.3386
     14 O          -3.1340    2.3811   -1.1216 O.3     1  UNL1       -0.4771
     15 O          -1.1493    2.1373   -0.5104 O.2     1  UNL1       -0.2451
     16 C           0.7256   -0.1913   -1.5411 C.ar    1  UNL1       -0.0403
     17 C           1.7873    0.0133   -2.3951 C.ar    1  UNL1       -0.0597
     18 C           2.9958    0.3020   -1.7961 C.ar    1  UNL1       -0.0585
     19 H           5.0530    1.0851   -0.5171 H       1  UNL1        0.0278
     20 H           4.2508    1.5338    0.9980 H       1  UNL1        0.0278
     21 H           4.8357   -0.2113    0.7256 H       1  UNL1        0.0278
     22 H           1.6077    1.0914    2.3204 H       1  UNL1        0.0278
     23 H           3.1886    0.2517    2.1758 H       1  UNL1        0.0278
     24 H           1.7004   -0.6879    2.3510 H       1  UNL1        0.0278
     25 H          -0.2044   -0.3053    1.7307 H       1  UNL1        0.1522
     26 H          -1.5015   -2.5068    1.4802 H       1  UNL1        0.0636
     27 H          -3.7858   -3.2246    1.3596 H       1  UNL1        0.0618
     28 H          -5.4321   -1.6465    0.2829 H       1  UNL1        0.0618
     29 H          -4.6846    0.5275   -0.5914 H       1  UNL1        0.0626
     30 H          -2.9309    2.9613   -1.9252 H       1  UNL1        0.2954
     31 H          -0.2264   -0.4184   -2.0051 H       1  UNL1        0.0636
     32 H           1.6689   -0.0511   -3.4729 H       1  UNL1        0.0618
     33 H           3.8785    0.4759   -2.3984 H       1  UNL1        0.0620
@<TRIPOS>BOND
     1     1     2    1
     2     2     3   ar
     3     3     4    1
     4     3     5   ar
     5     5     6    1
     6     6     7    1
     7     7     8   ar
     8     8     9   ar
     9     9    10   ar
    10    10    11   ar
    11    11    12   ar
    12    12    13    1
    13    13    14    1
    14    13    15    2
    15     5    16   ar
    16    16    17   ar
    17    17    18   ar
    18    18     2   ar
    19    12     7   ar
    20     1    19    1
    21     1    20    1
    22     1    21    1
    23     4    22    1
    24     4    23    1
    25     4    24    1
    26     6    25    1
    27     8    26    1
    28     9    27    1
    29    10    28    1
    30    11    29    1
    31    14    30    1
    32    16    31    1
    33    17    32    1
    34    18    33    1
