@<TRIPOS>MOLECULE
*****
 42 44 0 0 0
SMALL
GASTEIGER

@<TRIPOS>ATOM
      1 C           0.1996   -0.9192    1.4042 C.3     1  UNL1       -0.0220
      2 C           0.3327   -1.4099    0.0149 C.ar    1  UNL1        0.0477
      3 C          -0.5991   -1.4774   -0.9645 C.ar    1  UNL1        0.1463
      4 C          -1.9826   -1.0394   -0.9689 C.2     1  UNL1        0.2694
      5 O          -2.6828   -1.4216   -1.9764 O.2     1  UNL1       -0.2681
      6 N          -2.6067   -0.2569   -0.0022 N.am    1  UNL1       -0.2636
      7 C          -3.9978    0.1254   -0.0914 C.ar    1  UNL1        0.1471
      8 C          -4.9320   -0.1584   -1.0405 C.ar    1  UNL1       -0.0021
      9 C          -6.1380    0.4562   -0.6519 C.ar    1  UNL1        0.0270
     10 N          -5.8918    1.0844    0.5087 N.ar    1  UNL1       -0.2727
     11 C          -6.8870    1.8531    1.2595 C.3     1  UNL1        0.0302
     12 N          -4.6349    0.8941    0.8444 N.ar    1  UNL1       -0.1562
     13 N           0.0114   -2.0387   -2.0618 N.ar    1  UNL1       -0.2308
     14 C           1.2586   -2.2893   -1.7342 C.ar    1  UNL1        0.0973
     15 N           1.4862   -1.9182   -0.4783 N.ar    1  UNL1       -0.3292
     16 C           2.7785   -2.0581    0.1676 C.3     1  UNL1        0.0494
     17 C           3.5483   -0.8059   -0.1282 C.ar    1  UNL1       -0.0272
     18 C           4.3128   -0.7132   -1.2913 C.ar    1  UNL1       -0.0568
     19 C           5.0465    0.4020   -1.6268 C.ar    1  UNL1       -0.0609
     20 C           5.0174    1.4775   -0.7612 C.ar    1  UNL1       -0.0501
     21 C           4.2834    1.4427    0.3969 C.ar    1  UNL1        0.0551
     22 C           4.2137    2.5592    1.3592 C.3     1  UNL1        0.4174
     23 F           2.8932    2.6759    1.7856 F       1  UNL1       -0.1659
     24 F           5.0026    2.2241    2.4414 F       1  UNL1       -0.1659
     25 F           4.6742    3.7397    0.8491 F       1  UNL1       -0.1659
     26 C           3.5494    0.2900    0.7043 C.ar    1  UNL1       -0.0452
     27 H          -0.6769   -1.3387    1.9093 H       1  UNL1        0.0293
     28 H           0.1572    0.1793    1.4384 H       1  UNL1        0.0293
     29 H           1.1359   -1.1724    2.0013 H       1  UNL1        0.0293
     30 H          -2.0453    0.0781    0.8117 H       1  UNL1        0.1566
     31 H          -4.8035   -0.7403   -1.9312 H       1  UNL1        0.0668
     32 H          -7.0716    0.4185   -1.1958 H       1  UNL1        0.0827
     33 H          -6.3910    2.5786    1.9376 H       1  UNL1        0.0473
     34 H          -7.5011    1.1842    1.9018 H       1  UNL1        0.0473
     35 H          -7.5406    2.4433    0.5831 H       1  UNL1        0.0473
     36 H           1.9607   -2.7458   -2.4549 H       1  UNL1        0.1029
     37 H           2.6935   -2.1786    1.2503 H       1  UNL1        0.0542
     38 H           3.3138   -2.9376   -0.2729 H       1  UNL1        0.0542
     39 H           4.3091   -1.5715   -1.9385 H       1  UNL1        0.0621
     40 H           5.6374    0.4352   -2.5550 H       1  UNL1        0.0618
     41 H           5.5890    2.3827   -0.9949 H       1  UNL1        0.0623
     42 H           2.9777    0.2671    1.6134 H       1  UNL1        0.0626
@<TRIPOS>BOND
     1     1     2    1
     2     2     3   ar
     3     3     4    1
     4     4     5    2
     5     4     6   am
     6     6     7    1
     7     7     8   ar
     8     8     9   ar
     9     9    10   ar
    10    10    11    1
    11    10    12   ar
    12     3    13   ar
    13    13    14   ar
    14    14    15   ar
    15    15    16    1
    16    16    17    1
    17    17    18   ar
    18    18    19   ar
    19    19    20   ar
    20    20    21   ar
    21    21    22    1
    22    22    23    1
    23    22    24    1
    24    22    25    1
    25    21    26   ar
    26    15     2   ar
    27    26    17   ar
    28    12     7   ar
    29     1    27    1
    30     1    28    1
    31     1    29    1
    32     6    30    1
    33     8    31    1
    34     9    32    1
    35    11    33    1
    36    11    34    1
    37    11    35    1
    38    14    36    1
    39    16    37    1
    40    16    38    1
    41    18    39    1
    42    19    40    1
    43    20    41    1
    44    26    42    1
