@<TRIPOS>MOLECULE
*****
 58 62 0 0 0
SMALL
GASTEIGER

@<TRIPOS>ATOM
      1 C          -7.5612   -4.0219   -2.2050 C.3     1  UNL1        0.0788
      2 O          -6.1540   -3.9142   -2.2199 O.3     1  UNL1       -0.4950
      3 C          -5.4933   -2.8657   -1.6068 C.ar    1  UNL1        0.1237
      4 C          -4.1011   -2.8299   -1.6670 C.ar    1  UNL1       -0.0190
      5 C          -3.4002   -1.8040   -1.0708 C.ar    1  UNL1       -0.0439
      6 C          -4.0862   -0.8005   -0.4057 C.ar    1  UNL1        0.0662
      7 C          -3.6659    0.3274    0.2713 C.ar    1  UNL1        0.1922
      8 N          -2.3240    0.7604    0.4614 N.ar    1  UNL1       -0.2413
      9 C          -1.6501    1.7024   -0.2390 C.ar    1  UNL1        0.3362
     10 O          -2.2097    2.3210   -1.1853 O.2     1  UNL1       -0.2459
     11 N          -0.3941    1.8619    0.2031 N.ar    1  UNL1       -0.2873
     12 C           0.6708    2.7072   -0.2099 C.3     1  UNL1        0.0547
     13 C           1.6834    2.2164   -1.1415 C.ar    1  UNL1       -0.0059
     14 C           2.9376    1.8054   -0.6502 C.ar    1  UNL1       -0.0136
     15 C           3.9050    1.3429   -1.4639 C.ar    1  UNL1        0.1221
     16 O           5.1767    0.9233   -1.0008 O.3     1  UNL1       -0.4779
     17 C           5.5197    0.8950    0.3623 C.3     1  UNL1        0.1931
     18 C           6.1332    2.2533    0.7625 C.3     1  UNL1       -0.0172
     19 C           6.4597   -0.1978    0.6098 C.2     1  UNL1        0.3456
     20 O           6.8686   -0.4313    1.7711 O.2     1  UNL1       -0.2468
     21 O           6.9127   -0.9994   -0.4740 O.3     1  UNL1       -0.4781
     22 C           3.6712    1.2648   -2.8252 C.ar    1  UNL1       -0.0185
     23 C           2.4733    1.6481   -3.3745 C.ar    1  UNL1       -0.0396
     24 C           1.4945    2.1246   -2.4884 C.ar    1  UNL1        0.0461
     25 CL          0.0162    2.6502   -3.3131 Cl      1  UNL1       -0.0832
     26 C          -0.2595    0.9743    1.2439 C.ar    1  UNL1        0.0712
     27 C           0.7435    0.6546    2.0979 C.ar    1  UNL1       -0.0244
     28 C           0.6275   -0.3095    3.1071 C.ar    1  UNL1        0.0569
     29 C           1.7788   -0.5980    3.9996 C.3     1  UNL1        0.4175
     30 F           1.4000   -0.9122    5.2812 F       1  UNL1       -0.1659
     31 F           2.6629    0.4534    3.9572 F       1  UNL1       -0.1659
     32 F           2.4401   -1.6923    3.4318 F       1  UNL1       -0.1659
     33 C          -0.5868   -0.9535    3.2136 C.ar    1  UNL1       -0.0480
     34 C          -1.6521   -0.6629    2.3613 C.ar    1  UNL1       -0.0351
     35 C          -1.4497    0.3185    1.3770 C.ar    1  UNL1        0.0766
     36 N          -4.8007    0.8972    0.6934 N.ar    1  UNL1       -0.0587
     37 O          -5.8316    0.1967    0.3185 O.2     1  UNL1       -0.3525
     38 C          -5.4646   -0.8699   -0.3672 C.ar    1  UNL1        0.1728
     39 C          -6.1967   -1.8799   -0.9518 C.ar    1  UNL1        0.0257
     40 H          -8.0217   -3.2716   -2.8981 H       1  UNL1        0.0660
     41 H          -7.9014   -5.0581   -2.4430 H       1  UNL1        0.0660
     42 H          -7.9825   -3.8124   -1.2024 H       1  UNL1        0.0660
     43 H          -3.5293   -3.6123   -2.1874 H       1  UNL1        0.0654
     44 H          -2.3302   -1.7277   -1.0880 H       1  UNL1        0.0627
     45 H           1.2070    3.1795    0.6557 H       1  UNL1        0.0543
     46 H           0.1836    3.5974   -0.7137 H       1  UNL1        0.0543
     47 H           3.0816    1.9024    0.4036 H       1  UNL1        0.0658
     48 H           4.5706    0.7850    0.9547 H       1  UNL1        0.0849
     49 H           5.6809    2.6188    1.7314 H       1  UNL1        0.0271
     50 H           5.9202    2.9543   -0.0603 H       1  UNL1        0.0271
     51 H           7.2332    2.1878    0.8713 H       1  UNL1        0.0271
     52 H           7.7459   -1.5254   -0.3045 H       1  UNL1        0.2952
     53 H           4.4720    0.8858   -3.4461 H       1  UNL1        0.0654
     54 H           2.2967    1.5817   -4.4515 H       1  UNL1        0.0633
     55 H           1.6853    1.1420    2.0409 H       1  UNL1        0.0644
     56 H          -0.7400   -1.7143    3.9807 H       1  UNL1        0.0624
     57 H          -2.5962   -1.1431    2.4223 H       1  UNL1        0.0639
     58 H          -7.2695   -1.9443   -0.9298 H       1  UNL1        0.0692
@<TRIPOS>BOND
     1     1     2    1
     2     2     3    1
     3     3     4   ar
     4     4     5   ar
     5     5     6   ar
     6     6     7   ar
     7     7     8    1
     8     8     9   ar
     9     9    10    2
    10     9    11   ar
    11    11    12    1
    12    12    13    1
    13    13    14   ar
    14    14    15   ar
    15    15    16    1
    16    16    17    1
    17    17    18    1
    18    17    19    1
    19    19    20    2
    20    19    21    1
    21    15    22   ar
    22    22    23   ar
    23    23    24   ar
    24    24    25    1
    25    11    26   ar
    26    26    27   ar
    27    27    28   ar
    28    28    29    1
    29    29    30    1
    30    29    31    1
    31    29    32    1
    32    28    33   ar
    33    33    34   ar
    34    34    35   ar
    35     7    36   ar
    36    36    37   ar
    37    37    38   ar
    38    38    39   ar
    39    39     3   ar
    40    38     6   ar
    41    35     8   ar
    42    24    13   ar
    43    35    26   ar
    44     1    40    1
    45     1    41    1
    46     1    42    1
    47     4    43    1
    48     5    44    1
    49    12    45    1
    50    12    46    1
    51    14    47    1
    52    17    48    1
    53    18    49    1
    54    18    50    1
    55    18    51    1
    56    21    52    1
    57    22    53    1
    58    23    54    1
    59    27    55    1
    60    33    56    1
    61    34    57    1
    62    39    58    1
