
     RDKit          3D

 58 62  0  0  0  0  0  0  0  0999 V2000
   -7.5612   -4.0219   -2.2050 C   0  0  0  0  0  0  0  0  0  0  0  0
   -6.1540   -3.9142   -2.2199 O   0  0  0  0  0  0  0  0  0  0  0  0
   -5.4933   -2.8657   -1.6068 C   0  0  0  0  0  0  0  0  0  0  0  0
   -4.1011   -2.8299   -1.6670 C   0  0  0  0  0  0  0  0  0  0  0  0
   -3.4002   -1.8040   -1.0708 C   0  0  0  0  0  0  0  0  0  0  0  0
   -4.0862   -0.8005   -0.4057 C   0  0  0  0  0  0  0  0  0  0  0  0
   -3.6659    0.3274    0.2713 C   0  0  0  0  0  0  0  0  0  0  0  0
   -2.3240    0.7604    0.4614 N   0  0  0  0  0  0  0  0  0  0  0  0
   -1.6501    1.7024   -0.2390 C   0  0  0  0  0  0  0  0  0  0  0  0
   -2.2097    2.3210   -1.1853 O   0  0  0  0  0  0  0  0  0  0  0  0
   -0.3941    1.8619    0.2031 N   0  0  0  0  0  0  0  0  0  0  0  0
    0.6708    2.7072   -0.2099 C   0  0  0  0  0  0  0  0  0  0  0  0
    1.6834    2.2164   -1.1415 C   0  0  0  0  0  0  0  0  0  0  0  0
    2.9376    1.8054   -0.6502 C   0  0  0  0  0  0  0  0  0  0  0  0
    3.9050    1.3429   -1.4639 C   0  0  0  0  0  0  0  0  0  0  0  0
    5.1767    0.9233   -1.0008 O   0  0  0  0  0  0  0  0  0  0  0  0
    5.5197    0.8950    0.3623 C   0  0  2  0  0  0  0  0  0  0  0  0
    6.1332    2.2533    0.7625 C   0  0  0  0  0  0  0  0  0  0  0  0
    6.4597   -0.1978    0.6098 C   0  0  0  0  0  0  0  0  0  0  0  0
    6.8686   -0.4313    1.7711 O   0  0  0  0  0  0  0  0  0  0  0  0
    6.9127   -0.9994   -0.4740 O   0  0  0  0  0  0  0  0  0  0  0  0
    3.6712    1.2648   -2.8252 C   0  0  0  0  0  0  0  0  0  0  0  0
    2.4733    1.6481   -3.3745 C   0  0  0  0  0  0  0  0  0  0  0  0
    1.4945    2.1246   -2.4884 C   0  0  0  0  0  0  0  0  0  0  0  0
    0.0162    2.6502   -3.3131 Cl  0  0  0  0  0  0  0  0  0  0  0  0
   -0.2595    0.9743    1.2439 C   0  0  0  0  0  0  0  0  0  0  0  0
    0.7435    0.6546    2.0979 C   0  0  0  0  0  0  0  0  0  0  0  0
    0.6275   -0.3095    3.1071 C   0  0  0  0  0  0  0  0  0  0  0  0
    1.7788   -0.5980    3.9996 C   0  0  0  0  0  0  0  0  0  0  0  0
    1.4000   -0.9122    5.2812 F   0  0  0  0  0  0  0  0  0  0  0  0
    2.6629    0.4534    3.9572 F   0  0  0  0  0  0  0  0  0  0  0  0
    2.4401   -1.6923    3.4318 F   0  0  0  0  0  0  0  0  0  0  0  0
   -0.5868   -0.9535    3.2136 C   0  0  0  0  0  0  0  0  0  0  0  0
   -1.6521   -0.6629    2.3613 C   0  0  0  0  0  0  0  0  0  0  0  0
   -1.4497    0.3185    1.3770 C   0  0  0  0  0  0  0  0  0  0  0  0
   -4.8007    0.8972    0.6934 N   0  0  0  0  0  0  0  0  0  0  0  0
   -5.8316    0.1967    0.3185 O   0  0  0  0  0  0  0  0  0  0  0  0
   -5.4646   -0.8699   -0.3672 C   0  0  0  0  0  0  0  0  0  0  0  0
   -6.1967   -1.8799   -0.9518 C   0  0  0  0  0  0  0  0  0  0  0  0
   -8.0217   -3.2716   -2.8981 H   0  0  0  0  0  0  0  0  0  0  0  0
   -7.9014   -5.0581   -2.4430 H   0  0  0  0  0  0  0  0  0  0  0  0
   -7.9825   -3.8124   -1.2024 H   0  0  0  0  0  0  0  0  0  0  0  0
   -3.5293   -3.6123   -2.1874 H   0  0  0  0  0  0  0  0  0  0  0  0
   -2.3302   -1.7277   -1.0880 H   0  0  0  0  0  0  0  0  0  0  0  0
    1.2070    3.1795    0.6557 H   0  0  0  0  0  0  0  0  0  0  0  0
    0.1836    3.5974   -0.7137 H   0  0  0  0  0  0  0  0  0  0  0  0
    3.0816    1.9024    0.4036 H   0  0  0  0  0  0  0  0  0  0  0  0
    4.5706    0.7850    0.9547 H   0  0  0  0  0  0  0  0  0  0  0  0
    5.6809    2.6188    1.7314 H   0  0  0  0  0  0  0  0  0  0  0  0
    5.9202    2.9543   -0.0603 H   0  0  0  0  0  0  0  0  0  0  0  0
    7.2332    2.1878    0.8713 H   0  0  0  0  0  0  0  0  0  0  0  0
    7.7459   -1.5254   -0.3045 H   0  0  0  0  0  0  0  0  0  0  0  0
    4.4720    0.8858   -3.4461 H   0  0  0  0  0  0  0  0  0  0  0  0
    2.2967    1.5817   -4.4515 H   0  0  0  0  0  0  0  0  0  0  0  0
    1.6853    1.1420    2.0409 H   0  0  0  0  0  0  0  0  0  0  0  0
   -0.7400   -1.7143    3.9807 H   0  0  0  0  0  0  0  0  0  0  0  0
   -2.5962   -1.1431    2.4223 H   0  0  0  0  0  0  0  0  0  0  0  0
   -7.2695   -1.9443   -0.9298 H   0  0  0  0  0  0  0  0  0  0  0  0
  1  2  1  0
  2  3  1  0
  3  4  2  0
  4  5  1  0
  5  6  2  0
  6  7  1  0
  7  8  1  0
  8  9  1  0
  9 10  2  0
  9 11  1  0
 11 12  1  0
 12 13  1  0
 13 14  2  0
 14 15  1  0
 15 16  1  0
 16 17  1  0
 17 18  1  0
 17 19  1  0
 19 20  2  0
 19 21  1  0
 15 22  2  0
 22 23  1  0
 23 24  2  0
 24 25  1  0
 11 26  1  0
 26 27  2  0
 27 28  1  0
 28 29  1  0
 29 30  1  0
 29 31  1  0
 29 32  1  0
 28 33  2  0
 33 34  1  0
 34 35  2  0
  7 36  2  0
 36 37  1  0
 37 38  1  0
 38 39  2  0
 39  3  1  0
 38  6  1  0
 35  8  1  0
 24 13  1  0
 35 26  1  0
  1 40  1  0
  1 41  1  0
  1 42  1  0
  4 43  1  0
  5 44  1  0
 12 45  1  0
 12 46  1  0
 14 47  1  0
 17 48  1  1
 18 49  1  0
 18 50  1  0
 18 51  1  0
 21 52  1  0
 22 53  1  0
 23 54  1  0
 27 55  1  0
 33 56  1  0
 34 57  1  0
 39 58  1  0
M  END
$$$$
