
     RDKit          3D

 63 67  0  0  0  0  0  0  0  0999 V2000
    6.2523   -3.0685   -1.0588 C   0  0  0  0  0  0  0  0  0  0  0  0
    4.9238   -2.4994   -0.7405 C   0  0  0  0  0  0  0  0  0  0  0  0
    3.7977   -3.3042   -0.9751 C   0  0  0  0  0  0  0  0  0  0  0  0
    2.5502   -2.7788   -0.6666 C   0  0  0  0  0  0  0  0  0  0  0  0
    2.4145   -1.5087   -0.1465 C   0  0  0  0  0  0  0  0  0  0  0  0
    1.1002   -1.0253    0.1509 N   0  0  0  0  0  0  0  0  0  0  0  0
    0.3045   -0.3217   -0.7918 C   0  0  0  0  0  0  0  0  0  0  0  0
    0.8454   -0.1492   -1.9298 O   0  0  0  0  0  0  0  0  0  0  0  0
   -1.0290    0.1783   -0.5154 C   0  0  0  0  0  0  0  0  0  0  0  0
   -1.7103    0.8490   -1.5071 C   0  0  0  0  0  0  0  0  0  0  0  0
   -2.9868    1.3373   -1.2674 C   0  0  0  0  0  0  0  0  0  0  0  0
   -3.6135    1.1659   -0.0272 C   0  0  0  0  0  0  0  0  0  0  0  0
   -4.9707    1.7120    0.2048 C   0  0  0  0  0  0  0  0  0  0  0  0
   -6.0101    0.8447   -0.2171 N   0  0  0  0  0  0  0  0  0  0  0  0
   -6.1077   -0.4304    0.3877 C   0  0  0  0  0  0  0  0  0  0  0  0
   -7.4450   -0.6835    1.0527 C   0  0  0  0  0  0  0  0  0  0  0  0
   -8.5728   -0.4250    0.2081 N   0  0  0  0  0  0  0  0  0  0  0  0
   -9.7948   -0.2285    0.9637 C   0  0  0  0  0  0  0  0  0  0  0  0
   -8.3737    0.5709   -0.7969 C   0  0  0  0  0  0  0  0  0  0  0  0
   -7.2441    1.5182   -0.4773 C   0  0  0  0  0  0  0  0  0  0  0  0
   -2.9395    0.5029    0.9537 C   0  0  0  0  0  0  0  0  0  0  0  0
   -1.6698    0.0254    0.6923 C   0  0  0  0  0  0  0  0  0  0  0  0
    3.5473   -0.7601    0.0648 C   0  0  0  0  0  0  0  0  0  0  0  0
    4.8123   -1.2431   -0.2282 C   0  0  0  0  0  0  0  0  0  0  0  0
    5.9935   -0.4248   -0.0057 C   0  0  0  0  0  0  0  0  0  0  0  0
    6.1582    0.2043    1.2343 C   0  0  0  0  0  0  0  0  0  0  0  0
    7.2573    0.9949    1.4687 C   0  0  0  0  0  0  0  0  0  0  0  0
    8.2009    1.1668    0.4742 C   0  0  0  0  0  0  0  0  0  0  0  0
    9.3851    1.8852    0.4122 C   0  0  0  0  0  0  0  0  0  0  0  0
    9.9185    2.6734    1.4801 N   0  0  0  0  0  0  0  0  0  0  0  0
    9.8799    1.6800   -0.8066 N   0  0  0  0  0  0  0  0  0  0  0  0
    9.1093    0.9047   -1.4927 O   0  0  0  0  0  0  0  0  0  0  0  0
    8.0599    0.5596   -0.7497 C   0  0  0  0  0  0  0  0  0  0  0  0
    6.9555   -0.2301   -0.9743 C   0  0  0  0  0  0  0  0  0  0  0  0
    6.4654   -3.0326   -2.1675 H   0  0  0  0  0  0  0  0  0  0  0  0
    6.2303   -4.1701   -0.8385 H   0  0  0  0  0  0  0  0  0  0  0  0
    7.0582   -2.6053   -0.4585 H   0  0  0  0  0  0  0  0  0  0  0  0
    3.8950   -4.3033   -1.3835 H   0  0  0  0  0  0  0  0  0  0  0  0
    1.6686   -3.3895   -0.8426 H   0  0  0  0  0  0  0  0  0  0  0  0
    0.7262   -1.2046    1.1016 H   0  0  0  0  0  0  0  0  0  0  0  0
   -1.2993    1.0246   -2.4930 H   0  0  0  0  0  0  0  0  0  0  0  0
   -3.5486    1.8678   -2.0233 H   0  0  0  0  0  0  0  0  0  0  0  0
   -5.1364    1.9437    1.2880 H   0  0  0  0  0  0  0  0  0  0  0  0
   -5.0804    2.7047   -0.3115 H   0  0  0  0  0  0  0  0  0  0  0  0
   -5.3481   -0.5811    1.1621 H   0  0  0  0  0  0  0  0  0  0  0  0
   -6.0301   -1.2085   -0.4191 H   0  0  0  0  0  0  0  0  0  0  0  0
   -7.5615   -0.1085    1.9969 H   0  0  0  0  0  0  0  0  0  0  0  0
   -7.4574   -1.7603    1.3265 H   0  0  0  0  0  0  0  0  0  0  0  0
  -10.5069    0.3138    0.3275 H   0  0  0  0  0  0  0  0  0  0  0  0
  -10.2139   -1.2324    1.1768 H   0  0  0  0  0  0  0  0  0  0  0  0
   -9.5404    0.3328    1.8878 H   0  0  0  0  0  0  0  0  0  0  0  0
   -9.3088    1.1829   -0.8769 H   0  0  0  0  0  0  0  0  0  0  0  0
   -8.2197    0.1199   -1.7966 H   0  0  0  0  0  0  0  0  0  0  0  0
   -7.5029    2.2172    0.3350 H   0  0  0  0  0  0  0  0  0  0  0  0
   -7.0874    2.1491   -1.3986 H   0  0  0  0  0  0  0  0  0  0  0  0
   -3.3344    0.3279    1.9455 H   0  0  0  0  0  0  0  0  0  0  0  0
   -1.1427   -0.4993    1.4755 H   0  0  0  0  0  0  0  0  0  0  0  0
    3.4259    0.2389    0.4751 H   0  0  0  0  0  0  0  0  0  0  0  0
    5.3873    0.0363    1.9816 H   0  0  0  0  0  0  0  0  0  0  0  0
    7.3963    1.4868    2.4232 H   0  0  0  0  0  0  0  0  0  0  0  0
   10.6697    3.3521    1.2178 H   0  0  0  0  0  0  0  0  0  0  0  0
    9.5524    2.5475    2.4471 H   0  0  0  0  0  0  0  0  0  0  0  0
    6.8446   -0.7010   -1.9318 H   0  0  0  0  0  0  0  0  0  0  0  0
  1  2  1  0
  2  3  2  0
  3  4  1  0
  4  5  2  0
  5  6  1  0
  6  7  1  0
  7  8  2  0
  7  9  1  0
  9 10  2  0
 10 11  1  0
 11 12  2  0
 12 13  1  0
 13 14  1  0
 14 15  1  0
 15 16  1  0
 16 17  1  0
 17 18  1  0
 17 19  1  0
 19 20  1  0
 12 21  1  0
 21 22  2  0
  5 23  1  0
 23 24  2  0
 24 25  1  0
 25 26  2  0
 26 27  1  0
 27 28  2  0
 28 29  1  0
 29 30  1  0
 29 31  2  0
 31 32  1  0
 32 33  1  0
 33 34  2  0
 24  2  1  0
 34 25  1  0
 22  9  1  0
 33 28  1  0
 20 14  1  0
  1 35  1  0
  1 36  1  0
  1 37  1  0
  3 38  1  0
  4 39  1  0
  6 40  1  0
 10 41  1  0
 11 42  1  0
 13 43  1  0
 13 44  1  0
 15 45  1  0
 15 46  1  0
 16 47  1  0
 16 48  1  0
 18 49  1  0
 18 50  1  0
 18 51  1  0
 19 52  1  0
 19 53  1  0
 20 54  1  0
 20 55  1  0
 21 56  1  0
 22 57  1  0
 23 58  1  0
 26 59  1  0
 27 60  1  0
 30 61  1  0
 30 62  1  0
 34 63  1  0
M  END
$$$$
