@<TRIPOS>MOLECULE
*****
 63 67 0 0 0
SMALL
GASTEIGER

@<TRIPOS>ATOM
      1 C           6.2523   -3.0685   -1.0588 C.3     1  UNL1       -0.0391
      2 C           4.9238   -2.4994   -0.7405 C.ar    1  UNL1       -0.0426
      3 C           3.7977   -3.3042   -0.9751 C.ar    1  UNL1       -0.0565
      4 C           2.5502   -2.7788   -0.6666 C.ar    1  UNL1       -0.0402
      5 C           2.4145   -1.5087   -0.1465 C.ar    1  UNL1        0.0343
      6 N           1.1002   -1.0253    0.1509 N.am    1  UNL1       -0.2815
      7 C           0.3045   -0.3217   -0.7918 C.2     1  UNL1        0.2483
      8 O           0.8454   -0.1492   -1.9298 O.2     1  UNL1       -0.2699
      9 C          -1.0290    0.1783   -0.5154 C.ar    1  UNL1        0.0370
     10 C          -1.7103    0.8490   -1.5071 C.ar    1  UNL1       -0.0493
     11 C          -2.9868    1.3373   -1.2674 C.ar    1  UNL1       -0.0566
     12 C          -3.6135    1.1659   -0.0272 C.ar    1  UNL1       -0.0333
     13 C          -4.9707    1.7120    0.2048 C.3     1  UNL1        0.0241
     14 N          -6.0101    0.8447   -0.2171 N.3     1  UNL1       -0.2957
     15 C          -6.1077   -0.4304    0.3877 C.3     1  UNL1        0.0120
     16 C          -7.4450   -0.6835    1.0527 C.3     1  UNL1        0.0114
     17 N          -8.5728   -0.4250    0.2081 N.3     1  UNL1       -0.3029
     18 C          -9.7948   -0.2285    0.9637 C.3     1  UNL1       -0.0127
     19 C          -8.3737    0.5709   -0.7969 C.3     1  UNL1        0.0114
     20 C          -7.2441    1.5182   -0.4773 C.3     1  UNL1        0.0120
     21 C          -2.9395    0.5029    0.9537 C.ar    1  UNL1       -0.0566
     22 C          -1.6698    0.0254    0.6923 C.ar    1  UNL1       -0.0493
     23 C           3.5473   -0.7601    0.0648 C.ar    1  UNL1       -0.0325
     24 C           4.8123   -1.2431   -0.2282 C.ar    1  UNL1       -0.0131
     25 C           5.9935   -0.4248   -0.0057 C.ar    1  UNL1       -0.0140
     26 C           6.1582    0.2043    1.2343 C.ar    1  UNL1       -0.0531
     27 C           7.2573    0.9949    1.4687 C.ar    1  UNL1       -0.0470
     28 C           8.2009    1.1668    0.4742 C.ar    1  UNL1        0.0626
     29 C           9.3851    1.8852    0.4122 C.ar    1  UNL1        0.1667
     30 N           9.9185    2.6734    1.4801 N.pl3   1  UNL1       -0.3400
     31 N           9.8799    1.6800   -0.8066 N.ar    1  UNL1       -0.0624
     32 O           9.1093    0.9047   -1.4927 O.2     1  UNL1       -0.3528
     33 C           8.0599    0.5596   -0.7497 C.ar    1  UNL1        0.1697
     34 C           6.9555   -0.2301   -0.9743 C.ar    1  UNL1       -0.0083
     35 H           6.4654   -3.0326   -2.1675 H       1  UNL1        0.0278
     36 H           6.2303   -4.1701   -0.8385 H       1  UNL1        0.0278
     37 H           7.0582   -2.6053   -0.4585 H       1  UNL1        0.0278
     38 H           3.8950   -4.3033   -1.3835 H       1  UNL1        0.0621
     39 H           1.6686   -3.3895   -0.8426 H       1  UNL1        0.0636
     40 H           0.7262   -1.2046    1.1016 H       1  UNL1        0.1551
     41 H          -1.2993    1.0246   -2.4930 H       1  UNL1        0.0625
     42 H          -3.5486    1.8678   -2.0233 H       1  UNL1        0.0621
     43 H          -5.1364    1.9437    1.2880 H       1  UNL1        0.0476
     44 H          -5.0804    2.7047   -0.3115 H       1  UNL1        0.0476
     45 H          -5.3481   -0.5811    1.1621 H       1  UNL1        0.0439
     46 H          -6.0301   -1.2085   -0.4191 H       1  UNL1        0.0439
     47 H          -7.5615   -0.1085    1.9969 H       1  UNL1        0.0439
     48 H          -7.4574   -1.7603    1.3265 H       1  UNL1        0.0439
     49 H         -10.5069    0.3138    0.3275 H       1  UNL1        0.0391
     50 H         -10.2139   -1.2324    1.1768 H       1  UNL1        0.0391
     51 H          -9.5404    0.3328    1.8878 H       1  UNL1        0.0391
     52 H          -9.3088    1.1829   -0.8769 H       1  UNL1        0.0439
     53 H          -8.2197    0.1199   -1.7966 H       1  UNL1        0.0439
     54 H          -7.5029    2.2172    0.3350 H       1  UNL1        0.0439
     55 H          -7.0874    2.1491   -1.3986 H       1  UNL1        0.0439
     56 H          -3.3344    0.3279    1.9455 H       1  UNL1        0.0621
     57 H          -1.1427   -0.4993    1.4755 H       1  UNL1        0.0625
     58 H           3.4259    0.2389    0.4751 H       1  UNL1        0.0642
     59 H           5.3873    0.0363    1.9816 H       1  UNL1        0.0624
     60 H           7.3963    1.4868    2.4232 H       1  UNL1        0.0626
     61 H          10.6697    3.3521    1.2178 H       1  UNL1        0.1438
     62 H           9.5524    2.5475    2.4471 H       1  UNL1        0.1438
     63 H           6.8446   -0.7010   -1.9318 H       1  UNL1        0.0661
@<TRIPOS>BOND
     1     1     2    1
     2     2     3   ar
     3     3     4   ar
     4     4     5   ar
     5     5     6    1
     6     6     7   am
     7     7     8    2
     8     7     9    1
     9     9    10   ar
    10    10    11   ar
    11    11    12   ar
    12    12    13    1
    13    13    14    1
    14    14    15    1
    15    15    16    1
    16    16    17    1
    17    17    18    1
    18    17    19    1
    19    19    20    1
    20    12    21   ar
    21    21    22   ar
    22     5    23   ar
    23    23    24   ar
    24    24    25    1
    25    25    26   ar
    26    26    27   ar
    27    27    28   ar
    28    28    29   ar
    29    29    30    1
    30    29    31   ar
    31    31    32   ar
    32    32    33   ar
    33    33    34   ar
    34    24     2   ar
    35    34    25   ar
    36    22     9   ar
    37    33    28   ar
    38    20    14    1
    39     1    35    1
    40     1    36    1
    41     1    37    1
    42     3    38    1
    43     4    39    1
    44     6    40    1
    45    10    41    1
    46    11    42    1
    47    13    43    1
    48    13    44    1
    49    15    45    1
    50    15    46    1
    51    16    47    1
    52    16    48    1
    53    18    49    1
    54    18    50    1
    55    18    51    1
    56    19    52    1
    57    19    53    1
    58    20    54    1
    59    20    55    1
    60    21    56    1
    61    22    57    1
    62    23    58    1
    63    26    59    1
    64    27    60    1
    65    30    61    1
    66    30    62    1
    67    34    63    1
