@<TRIPOS>MOLECULE
*****
 83 89 0 0 0
SMALL
GASTEIGER

@<TRIPOS>ATOM
      1 C          -8.3320    5.5777    1.9619 C.3     1  UNL1       -0.0397
      2 C          -7.8460    4.3078    1.3206 C.ar    1  UNL1       -0.0503
      3 C          -7.2501    3.3471    2.1107 C.ar    1  UNL1       -0.0568
      4 C          -6.8057    2.1931    1.5393 C.ar    1  UNL1       -0.0359
      5 C          -6.9191    1.9221    0.1858 C.ar    1  UNL1        0.0674
      6 N          -6.4278    0.6827   -0.3615 N.ar    1  UNL1       -0.2181
      7 N          -7.1489   -0.3134   -0.8565 N.ar    1  UNL1       -0.1691
      8 C          -6.3411   -1.2913   -1.2681 C.ar    1  UNL1        0.0706
      9 C          -6.7794   -2.5862   -1.8873 C.3     1  UNL1        0.0063
     10 C          -8.2928   -2.6004   -1.9745 C.3     1  UNL1       -0.0546
     11 C          -6.3866   -3.7547   -1.0082 C.3     1  UNL1       -0.0546
     12 C          -6.2309   -2.7270   -3.2820 C.3     1  UNL1       -0.0546
     13 C          -5.0462   -0.8841   -1.0168 C.ar    1  UNL1        0.0021
     14 C          -5.1126    0.3584   -0.4467 C.ar    1  UNL1        0.1299
     15 N          -4.0488    1.1890   -0.0137 N.am    1  UNL1       -0.2538
     16 C          -2.6831    0.8608   -0.1085 C.2     1  UNL1        0.3092
     17 O          -2.3479   -0.2226   -0.5985 O.2     1  UNL1       -0.2521
     18 N          -1.6418    1.7294    0.3397 N.am    1  UNL1       -0.2686
     19 C          -0.2728    1.3881    0.2358 C.ar    1  UNL1        0.0427
     20 C           0.4257    1.7270   -0.9022 C.ar    1  UNL1       -0.0363
     21 C           1.7584    1.4287   -1.0712 C.ar    1  UNL1       -0.0169
     22 C           2.4635    0.7544   -0.0671 C.ar    1  UNL1        0.1381
     23 O           3.7997    0.4629   -0.2505 O.3     1  UNL1       -0.4373
     24 C           4.2021   -0.8585   -0.3665 C.ar    1  UNL1        0.2249
     25 C           3.2602   -1.8597   -0.3815 C.ar    1  UNL1        0.0186
     26 C           3.7315   -3.1505   -0.5035 C.ar    1  UNL1        0.0362
     27 N           5.0411   -3.4100   -0.6026 N.ar    1  UNL1       -0.2225
     28 C           5.9869   -2.4166   -0.5890 C.ar    1  UNL1        0.2226
     29 N           7.3460   -2.7787   -0.6932 N.pl3   1  UNL1       -0.2835
     30 C           8.4558   -1.9182   -0.7391 C.ar    1  UNL1        0.0343
     31 C           9.7458   -2.4453   -0.7278 C.ar    1  UNL1       -0.0384
     32 C          10.8226   -1.6244   -0.7806 C.ar    1  UNL1       -0.0343
     33 C          10.7157   -0.2558   -0.8467 C.ar    1  UNL1        0.0687
     34 C           9.4420    0.2647   -0.8578 C.ar    1  UNL1        0.0215
     35 C           9.6065    1.6330   -0.9272 C.ar    1  UNL1        0.0572
     36 N          10.9145    1.8635   -0.9536 N.ar    1  UNL1       -0.1788
     37 N          11.6109    0.7317   -0.9058 N.ar    1  UNL1       -0.2667
     38 C          13.0566    0.5812   -0.9151 C.3     1  UNL1        0.0309
     39 C           8.3146   -0.5621   -0.8043 C.ar    1  UNL1       -0.0298
     40 N           5.5077   -1.1803   -0.4701 N.ar    1  UNL1       -0.1789
     41 C           1.7737    0.4125    1.0763 C.ar    1  UNL1        0.0262
     42 C           2.4343   -0.2374    2.1162 C.ar    1  UNL1       -0.0505
     43 C           1.7289   -0.5494    3.2510 C.ar    1  UNL1       -0.0611
     44 C           0.4023   -0.2494    3.4077 C.ar    1  UNL1       -0.0611
     45 C          -0.2265    0.3940    2.3667 C.ar    1  UNL1       -0.0521
     46 C           0.4363    0.7268    1.2134 C.ar    1  UNL1        0.0069
     47 C          -7.5158    2.8862   -0.5995 C.ar    1  UNL1       -0.0359
     48 C          -7.9756    4.0720   -0.0301 C.ar    1  UNL1       -0.0568
     49 H          -8.7219    5.3342    2.9746 H       1  UNL1        0.0278
     50 H          -9.1666    6.0282    1.3966 H       1  UNL1        0.0278
     51 H          -7.4863    6.2996    2.0908 H       1  UNL1        0.0278
     52 H          -7.1512    3.5408    3.1779 H       1  UNL1        0.0621
     53 H          -6.3323    1.4358    2.1818 H       1  UNL1        0.0639
     54 H          -8.5917   -3.4836   -2.6040 H       1  UNL1        0.0239
     55 H          -8.7322   -2.7930   -0.9706 H       1  UNL1        0.0239
     56 H          -8.7083   -1.6562   -2.3814 H       1  UNL1        0.0239
     57 H          -5.3575   -4.0872   -1.1783 H       1  UNL1        0.0239
     58 H          -6.4977   -3.5046    0.0667 H       1  UNL1        0.0239
     59 H          -7.0912   -4.6133   -1.1994 H       1  UNL1        0.0239
     60 H          -5.1961   -3.1293   -3.2923 H       1  UNL1        0.0239
     61 H          -6.3178   -1.7536   -3.8052 H       1  UNL1        0.0239
     62 H          -6.8829   -3.4444   -3.8509 H       1  UNL1        0.0239
     63 H          -4.1940   -1.4686   -1.2447 H       1  UNL1        0.0671
     64 H          -4.2634    2.1380    0.4191 H       1  UNL1        0.1578
     65 H          -1.9311    2.6407    0.7538 H       1  UNL1        0.1564
     66 H          -0.1314    2.2548   -1.6857 H       1  UNL1        0.0637
     67 H           2.3193    1.6875   -1.9559 H       1  UNL1        0.0655
     68 H           2.2020   -1.6701   -0.3135 H       1  UNL1        0.0686
     69 H           2.9946   -3.9582   -0.5167 H       1  UNL1        0.0832
     70 H           7.5371   -3.8314   -0.7422 H       1  UNL1        0.1550
     71 H           9.8483   -3.5106   -0.6766 H       1  UNL1        0.0637
     72 H          11.8367   -2.0554   -0.7711 H       1  UNL1        0.0639
     73 H           8.7892    2.3382   -0.9527 H       1  UNL1        0.0854
     74 H          13.3068   -0.2616   -1.6080 H       1  UNL1        0.0473
     75 H          13.5255    1.5197   -1.3011 H       1  UNL1        0.0473
     76 H          13.4382    0.3368    0.1168 H       1  UNL1        0.0473
     77 H           7.3790   -0.0456   -0.8233 H       1  UNL1        0.0643
     78 H           3.4947   -0.4967    2.0693 H       1  UNL1        0.0625
     79 H           2.2203   -1.0629    4.0901 H       1  UNL1        0.0618
     80 H          -0.1413   -0.5102    4.3264 H       1  UNL1        0.0618
     81 H          -1.2849    0.6444    2.4671 H       1  UNL1        0.0624
     82 H          -7.6228    2.7047   -1.6790 H       1  UNL1        0.0639
     83 H          -8.4407    4.8144   -0.6668 H       1  UNL1        0.0621
@<TRIPOS>BOND
     1     1     2    1
     2     2     3   ar
     3     3     4   ar
     4     4     5   ar
     5     5     6    1
     6     6     7   ar
     7     7     8   ar
     8     8     9    1
     9     9    10    1
    10     9    11    1
    11     9    12    1
    12     8    13   ar
    13    13    14   ar
    14    14    15    1
    15    15    16   am
    16    16    17    2
    17    16    18   am
    18    18    19    1
    19    19    20   ar
    20    20    21   ar
    21    21    22   ar
    22    22    23    1
    23    23    24    1
    24    24    25   ar
    25    25    26   ar
    26    26    27   ar
    27    27    28   ar
    28    28    29    1
    29    29    30    1
    30    30    31   ar
    31    31    32   ar
    32    32    33   ar
    33    33    34   ar
    34    34    35   ar
    35    35    36   ar
    36    36    37   ar
    37    37    38    1
    38    34    39   ar
    39    28    40   ar
    40    22    41   ar
    41    41    42   ar
    42    42    43   ar
    43    43    44   ar
    44    44    45   ar
    45    45    46   ar
    46     5    47   ar
    47    47    48   ar
    48    48     2   ar
    49    14     6   ar
    50    46    19   ar
    51    40    24   ar
    52    46    41   ar
    53    39    30   ar
    54    37    33   ar
    55     1    49    1
    56     1    50    1
    57     1    51    1
    58     3    52    1
    59     4    53    1
    60    10    54    1
    61    10    55    1
    62    10    56    1
    63    11    57    1
    64    11    58    1
    65    11    59    1
    66    12    60    1
    67    12    61    1
    68    12    62    1
    69    13    63    1
    70    15    64    1
    71    18    65    1
    72    20    66    1
    73    21    67    1
    74    25    68    1
    75    26    69    1
    76    29    70    1
    77    31    71    1
    78    32    72    1
    79    35    73    1
    80    38    74    1
    81    38    75    1
    82    38    76    1
    83    39    77    1
    84    42    78    1
    85    43    79    1
    86    44    80    1
    87    45    81    1
    88    47    82    1
    89    48    83    1
