
     RDKit          3D

 43 46  0  0  0  0  0  0  0  0999 V2000
   -0.7697   -2.8505    0.3554 C   0  0  0  0  0  0  0  0  0  0  0  0
    0.3414   -1.9397    0.2379 N   0  0  0  0  0  0  0  0  0  0  0  0
    0.2245   -0.6335    0.2669 C   0  0  0  0  0  0  0  0  0  0  0  0
   -1.0146    0.0434    0.3151 N   0  0  0  0  0  0  0  0  0  0  0  0
   -0.9727    1.4527    0.8257 C   0  0  0  0  0  0  0  0  0  0  0  0
   -2.0000    1.5849    1.9036 C   0  0  0  0  0  0  0  0  0  0  0  0
   -3.2756    1.2191    1.4634 O   0  0  0  0  0  0  0  0  0  0  0  0
   -3.2474    0.8553    0.1505 C   0  0  2  0  0  0  0  0  0  0  0  0
   -4.5288    0.2170   -0.3591 C   0  0  0  0  0  0  0  0  0  0  0  0
   -4.0502   -0.4870   -1.6419 C   0  0  0  0  0  0  0  0  0  0  0  0
   -2.5245   -0.4435   -1.5931 C   0  0  0  0  0  0  0  0  0  0  0  0
   -2.3042   -0.3655   -0.0910 C   0  0  1  0  0  0  0  0  0  0  0  0
    1.3495    0.1435    0.1957 N   0  0  0  0  0  0  0  0  0  0  0  0
    2.5968   -0.3558    0.0937 C   0  0  0  0  0  0  0  0  0  0  0  0
    3.7197    0.5601    0.0190 C   0  0  0  0  0  0  0  0  0  0  0  0
    3.4878    1.9431    0.0431 C   0  0  0  0  0  0  0  0  0  0  0  0
    4.4768    2.8850   -0.0223 C   0  0  0  0  0  0  0  0  0  0  0  0
    5.7677    2.4799   -0.1167 N   0  0  0  0  0  0  0  0  0  0  0  0
    6.0322    1.1747   -0.1431 C   0  0  0  0  0  0  0  0  0  0  0  0
    5.0329    0.2024   -0.0769 C   0  0  0  0  0  0  0  0  0  0  0  0
    5.3991   -1.1186   -0.1100 F   0  0  0  0  0  0  0  0  0  0  0  0
    2.6958   -1.7101    0.0635 C   0  0  0  0  0  0  0  0  0  0  0  0
    1.5759   -2.5309    0.1345 C   0  0  0  0  0  0  0  0  0  0  0  0
    1.7109   -3.7834    0.1027 O   0  0  0  0  0  0  0  0  0  0  0  0
   -0.3864   -3.9100    0.4492 H   0  0  0  0  0  0  0  0  0  0  0  0
   -1.3193   -2.7142    1.3231 H   0  0  0  0  0  0  0  0  0  0  0  0
   -1.3871   -2.8709   -0.5404 H   0  0  0  0  0  0  0  0  0  0  0  0
   -1.1750    2.1570    0.0192 H   0  0  0  0  0  0  0  0  0  0  0  0
    0.0196    1.6610    1.2750 H   0  0  0  0  0  0  0  0  0  0  0  0
   -2.0443    2.6422    2.2151 H   0  0  0  0  0  0  0  0  0  0  0  0
   -1.7922    0.9498    2.7902 H   0  0  0  0  0  0  0  0  0  0  0  0
   -2.9750    1.6220   -0.5732 H   0  0  0  0  0  0  0  0  0  0  0  0
   -5.2699    0.9682   -0.6575 H   0  0  0  0  0  0  0  0  0  0  0  0
   -4.9231   -0.4914    0.3738 H   0  0  0  0  0  0  0  0  0  0  0  0
   -4.4360    0.0717   -2.5465 H   0  0  0  0  0  0  0  0  0  0  0  0
   -4.4275   -1.5157   -1.5860 H   0  0  0  0  0  0  0  0  0  0  0  0
   -2.2128    0.5443   -2.0469 H   0  0  0  0  0  0  0  0  0  0  0  0
   -2.0369   -1.2572   -2.0982 H   0  0  0  0  0  0  0  0  0  0  0  0
   -2.7496   -1.2402    0.3759 H   0  0  0  0  0  0  0  0  0  0  0  0
    2.4576    2.2548    0.1190 H   0  0  0  0  0  0  0  0  0  0  0  0
    4.2525    3.9581   -0.0010 H   0  0  0  0  0  0  0  0  0  0  0  0
    7.0473    0.8444   -0.2150 H   0  0  0  0  0  0  0  0  0  0  0  0
    3.6349   -2.2162   -0.0159 H   0  0  0  0  0  0  0  0  0  0  0  0
  1  2  1  0
  2  3  1  0
  3  4  1  0
  4  5  1  0
  5  6  1  0
  6  7  1  0
  7  8  1  0
  8  9  1  0
  9 10  1  0
 10 11  1  0
 11 12  1  0
  3 13  2  0
 13 14  1  0
 14 15  1  0
 15 16  2  0
 16 17  1  0
 17 18  2  0
 18 19  1  0
 19 20  2  0
 20 21  1  0
 14 22  2  0
 22 23  1  0
 23 24  2  0
 23  2  1  0
 12  4  1  0
 20 15  1  0
 12  8  1  0
  1 25  1  0
  1 26  1  0
  1 27  1  0
  5 28  1  0
  5 29  1  0
  6 30  1  0
  6 31  1  0
  8 32  1  6
  9 33  1  0
  9 34  1  0
 10 35  1  0
 10 36  1  0
 11 37  1  0
 11 38  1  0
 12 39  1  1
 16 40  1  0
 17 41  1  0
 19 42  1  0
 22 43  1  0
M  END
$$$$
