@<TRIPOS>MOLECULE
*****
 43 46 0 0 0
SMALL
GASTEIGER

@<TRIPOS>ATOM
      1 C          -0.7697   -2.8505    0.3554 C.3     1  UNL1        0.0178
      2 N           0.3414   -1.9397    0.2379 N.ar    1  UNL1       -0.2839
      3 C           0.2245   -0.6335    0.2669 C.ar    1  UNL1        0.2016
      4 N          -1.0146    0.0434    0.3151 N.pl3   1  UNL1       -0.2932
      5 C          -0.9727    1.4527    0.8257 C.3     1  UNL1        0.0387
      6 C          -2.0000    1.5849    1.9036 C.3     1  UNL1        0.0639
      7 O          -3.2756    1.2191    1.4634 O.3     1  UNL1       -0.3732
      8 C          -3.2474    0.8553    0.1505 C.3     1  UNL1        0.0772
      9 C          -4.5288    0.2170   -0.3591 C.3     1  UNL1       -0.0248
     10 C          -4.0502   -0.4870   -1.6419 C.3     1  UNL1       -0.0489
     11 C          -2.5245   -0.4435   -1.5931 C.3     1  UNL1       -0.0318
     12 C          -2.3042   -0.3655   -0.0910 C.3     1  UNL1        0.0524
     13 N           1.3495    0.1435    0.1957 N.ar    1  UNL1       -0.2154
     14 C           2.5968   -0.3558    0.0937 C.ar    1  UNL1        0.0825
     15 C           3.7197    0.5601    0.0190 C.ar    1  UNL1        0.0387
     16 C           3.4878    1.9431    0.0431 C.ar    1  UNL1       -0.0316
     17 C           4.4768    2.8850   -0.0223 C.ar    1  UNL1        0.0284
     18 N           5.7677    2.4799   -0.1167 N.ar    1  UNL1       -0.2604
     19 C           6.0322    1.1747   -0.1431 C.ar    1  UNL1        0.0634
     20 C           5.0329    0.2024   -0.0769 C.ar    1  UNL1        0.1505
     21 F           5.3991   -1.1186   -0.1100 F       1  UNL1       -0.2032
     22 C           2.6958   -1.7101    0.0635 C.ar    1  UNL1        0.0292
     23 C           1.5759   -2.5309    0.1345 C.ar    1  UNL1        0.2555
     24 O           1.7109   -3.7834    0.1027 O.2     1  UNL1       -0.2675
     25 H          -0.3864   -3.9100    0.4492 H       1  UNL1        0.0458
     26 H          -1.3193   -2.7142    1.3231 H       1  UNL1        0.0458
     27 H          -1.3871   -2.8709   -0.5404 H       1  UNL1        0.0458
     28 H          -1.1750    2.1570    0.0192 H       1  UNL1        0.0487
     29 H           0.0196    1.6610    1.2750 H       1  UNL1        0.0487
     30 H          -2.0443    2.6422    2.2151 H       1  UNL1        0.0575
     31 H          -1.7922    0.9498    2.7902 H       1  UNL1        0.0575
     32 H          -2.9750    1.6220   -0.5732 H       1  UNL1        0.0614
     33 H          -5.2699    0.9682   -0.6575 H       1  UNL1        0.0291
     34 H          -4.9231   -0.4914    0.3738 H       1  UNL1        0.0291
     35 H          -4.4360    0.0717   -2.5465 H       1  UNL1        0.0267
     36 H          -4.4275   -1.5157   -1.5860 H       1  UNL1        0.0267
     37 H          -2.2128    0.5443   -2.0469 H       1  UNL1        0.0284
     38 H          -2.0369   -1.2572   -2.0982 H       1  UNL1        0.0284
     39 H          -2.7496   -1.2402    0.3759 H       1  UNL1        0.0526
     40 H           2.4576    2.2548    0.1190 H       1  UNL1        0.0640
     41 H           4.2525    3.9581   -0.0010 H       1  UNL1        0.0830
     42 H           7.0473    0.8444   -0.2150 H       1  UNL1        0.0859
     43 H           3.6349   -2.2162   -0.0159 H       1  UNL1        0.0693
@<TRIPOS>BOND
     1     1     2    1
     2     2     3   ar
     3     3     4    1
     4     4     5    1
     5     5     6    1
     6     6     7    1
     7     7     8    1
     8     8     9    1
     9     9    10    1
    10    10    11    1
    11    11    12    1
    12     3    13   ar
    13    13    14   ar
    14    14    15    1
    15    15    16   ar
    16    16    17   ar
    17    17    18   ar
    18    18    19   ar
    19    19    20   ar
    20    20    21    1
    21    14    22   ar
    22    22    23   ar
    23    23    24    2
    24    23     2   ar
    25    12     4    1
    26    20    15   ar
    27    12     8    1
    28     1    25    1
    29     1    26    1
    30     1    27    1
    31     5    28    1
    32     5    29    1
    33     6    30    1
    34     6    31    1
    35     8    32    1
    36     9    33    1
    37     9    34    1
    38    10    35    1
    39    10    36    1
    40    11    37    1
    41    11    38    1
    42    12    39    1
    43    16    40    1
    44    17    41    1
    45    19    42    1
    46    22    43    1
