@<TRIPOS>MOLECULE
*****
 19 19 0 0 0
SMALL
GASTEIGER

@<TRIPOS>ATOM
      1 C           2.7651   -0.0244    0.3626 C.3     1  UNL1        0.0142
      2 N           1.3943   -0.0206   -0.0509 N.am    1  UNL1       -0.2073
      3 C           0.8709   -0.3056   -1.3657 C.2     1  UNL1        0.4101
      4 O           1.6657   -0.6039   -2.3217 O.2     1  UNL1       -0.2258
      5 O          -0.4887   -0.2101   -1.4055 O.3     1  UNL1       -0.4345
      6 C          -0.9864    0.0562   -0.0959 C.3     1  UNL1        0.1851
      7 C          -1.8498    1.2700   -0.1814 C.3     1  UNL1       -0.0163
      8 C          -1.6935   -1.1966    0.3609 C.3     1  UNL1       -0.0163
      9 C           0.2427    0.2583    0.7147 C.2     1  UNL1        0.2675
     10 O           0.2588    0.6244    1.9094 O.2     1  UNL1       -0.2707
     11 H           3.1204    0.9856    0.5960 H       1  UNL1        0.0434
     12 H           2.9711   -0.6691    1.2359 H       1  UNL1        0.0434
     13 H           3.3986   -0.4315   -0.4716 H       1  UNL1        0.0434
     14 H          -1.2726    2.1412    0.1916 H       1  UNL1        0.0273
     15 H          -2.8050    1.1961    0.3598 H       1  UNL1        0.0273
     16 H          -2.1201    1.5129   -1.2507 H       1  UNL1        0.0273
     17 H          -2.6864   -1.2452   -0.1113 H       1  UNL1        0.0273
     18 H          -1.7406   -1.2887    1.4771 H       1  UNL1        0.0273
     19 H          -1.0446   -2.0491    0.0466 H       1  UNL1        0.0273
@<TRIPOS>BOND
     1     1     2    1
     2     2     3   am
     3     3     4    2
     4     3     5    1
     5     5     6    1
     6     6     7    1
     7     6     8    1
     8     6     9    1
     9     9    10    2
    10     9     2   am
    11     1    11    1
    12     1    12    1
    13     1    13    1
    14     7    14    1
    15     7    15    1
    16     7    16    1
    17     8    17    1
    18     8    18    1
    19     8    19    1
