@<TRIPOS>MOLECULE
*****
 28 30 0 0 0
SMALL
GASTEIGER

@<TRIPOS>ATOM
      1 O           1.1822   -2.9210    0.6644 O.2     1  UNL1       -0.2844
      2 C           1.1225   -1.7010    0.4323 C.2     1  UNL1        0.2181
      3 C           2.3402   -0.9594    0.3204 C.ar    1  UNL1        0.0280
      4 C           3.4862   -1.3385    1.0347 C.ar    1  UNL1       -0.0479
      5 C           4.6791   -0.6600    0.9379 C.ar    1  UNL1       -0.0221
      6 C           4.7774    0.4295    0.1205 C.ar    1  UNL1        0.1646
      7 F           5.9458    1.1338   -0.0049 F       1  UNL1       -0.2017
      8 C           3.6746    0.8284   -0.5940 C.ar    1  UNL1        0.1526
      9 O           3.7993    1.9513   -1.4280 O.3     1  UNL1       -0.5039
     10 C           2.4658    0.1394   -0.4951 C.ar    1  UNL1       -0.0064
     11 C          -0.2354   -1.1552    0.3002 C.ar    1  UNL1        0.1495
     12 N          -1.3810   -1.5111    0.2736 N.ar    1  UNL1       -0.2357
     13 C          -2.4499   -0.7589    0.1623 C.ar    1  UNL1        0.0792
     14 C          -3.7974   -1.1703    0.1312 C.ar    1  UNL1       -0.0317
     15 C          -4.8051   -0.2494    0.0104 C.ar    1  UNL1       -0.0181
     16 C          -4.5873    1.1019   -0.0867 C.ar    1  UNL1        0.1180
     17 O          -5.6352    1.9632   -0.2046 O.3     1  UNL1       -0.5067
     18 C          -3.2577    1.5131   -0.0566 C.ar    1  UNL1       -0.0043
     19 C          -2.2560    0.5780    0.0652 C.ar    1  UNL1        0.0431
     20 S          -0.4620    0.6800    0.1431 S.2     1  UNL1       -0.0639
     21 H           3.3603   -2.2091    1.6706 H       1  UNL1        0.0626
     22 H           5.5221   -1.0117    1.5204 H       1  UNL1        0.0648
     23 H           3.9409    2.8302   -0.9210 H       1  UNL1        0.2923
     24 H           1.6632    0.5196   -1.1003 H       1  UNL1        0.0662
     25 H          -4.0678   -2.2312    0.2029 H       1  UNL1        0.0640
     26 H          -5.8418   -0.6380   -0.0078 H       1  UNL1        0.0655
     27 H          -6.1863    2.2953    0.5814 H       1  UNL1        0.2921
     28 H          -2.9964    2.5511   -0.1268 H       1  UNL1        0.0666
@<TRIPOS>BOND
     1     1     2    2
     2     2     3    1
     3     3     4   ar
     4     4     5   ar
     5     5     6   ar
     6     6     7    1
     7     6     8   ar
     8     8     9    1
     9     8    10   ar
    10     2    11    1
    11    11    12   ar
    12    12    13   ar
    13    13    14   ar
    14    14    15   ar
    15    15    16   ar
    16    16    17    1
    17    16    18   ar
    18    18    19   ar
    19    19    20   ar
    20    10     3   ar
    21    20    11   ar
    22    19    13   ar
    23     4    21    1
    24     5    22    1
    25     9    23    1
    26    10    24    1
    27    14    25    1
    28    15    26    1
    29    17    27    1
    30    18    28    1
