@<TRIPOS>MOLECULE
*****
 23 23 0 0 0
SMALL
GASTEIGER

@<TRIPOS>ATOM
      1 N          -3.6592   -0.4548   -0.0906 N.3     1  UNL1       -0.3274
      2 C          -2.2767   -0.3457   -0.5135 C.3     1  UNL1        0.0235
      3 C          -1.4464    0.1586    0.6525 C.3     1  UNL1        0.0925
      4 O          -1.8717    1.3917    1.0867 O.3     1  UNL1       -0.3859
      5 C          -0.0041    0.1396    0.2750 C.ar    1  UNL1       -0.0143
      6 C           0.8644   -0.8602    0.6557 C.ar    1  UNL1       -0.0109
      7 C           2.1719   -0.8031    0.2676 C.ar    1  UNL1        0.1586
      8 O           3.0273   -1.8161    0.6600 O.3     1  UNL1       -0.5033
      9 C           2.6500    0.2523   -0.5108 C.ar    1  UNL1        0.1582
     10 O           3.9678    0.3044   -0.8985 O.3     1  UNL1       -0.5033
     11 C           1.7827    1.2659   -0.9003 C.ar    1  UNL1       -0.0162
     12 C           0.4631    1.1932   -0.4993 C.ar    1  UNL1       -0.0524
     13 H          -4.2351    0.3713   -0.2920 H       1  UNL1        0.1183
     14 H          -3.6878   -0.7636    0.9001 H       1  UNL1        0.1183
     15 H          -1.9397   -1.3648   -0.7802 H       1  UNL1        0.0451
     16 H          -2.1594    0.3084   -1.3803 H       1  UNL1        0.0451
     17 H          -1.5695   -0.5945    1.4547 H       1  UNL1        0.0656
     18 H          -2.1297    1.9413    0.3058 H       1  UNL1        0.2103
     19 H           0.4547   -1.6574    1.2567 H       1  UNL1        0.0659
     20 H           2.8893   -2.8045    0.4897 H       1  UNL1        0.2923
     21 H           4.7563    0.0546   -0.3328 H       1  UNL1        0.2923
     22 H           2.1303    2.1059   -1.5109 H       1  UNL1        0.0655
     23 H          -0.1785    1.9776   -0.8088 H       1  UNL1        0.0622
@<TRIPOS>BOND
     1     1     2    1
     2     2     3    1
     3     3     4    1
     4     3     5    1
     5     5     6   ar
     6     6     7   ar
     7     7     8    1
     8     7     9   ar
     9     9    10    1
    10     9    11   ar
    11    11    12   ar
    12    12     5   ar
    13     1    13    1
    14     1    14    1
    15     2    15    1
    16     2    16    1
    17     3    17    1
    18     4    18    1
    19     6    19    1
    20     8    20    1
    21    10    21    1
    22    11    22    1
    23    12    23    1
