
     RDKit          3D

 64 67  0  0  0  0  0  0  0  0999 V2000
    8.3381   -3.8119    0.6196 C   0  0  0  0  0  0  0  0  0  0  0  0
    7.1400   -2.9596    0.5452 C   0  0  0  0  0  0  0  0  0  0  0  0
    6.2493   -2.8013    1.5819 C   0  0  0  0  0  0  0  0  0  0  0  0
    5.1378   -1.9967    1.4795 C   0  0  0  0  0  0  0  0  0  0  0  0
    4.8783   -1.3088    0.3060 C   0  0  0  0  0  0  0  0  0  0  0  0
    3.7110   -0.4457    0.1263 C   0  0  2  0  0  0  0  0  0  0  0  0
    2.5700   -1.2861    0.1764 O   0  0  0  0  0  0  0  0  0  0  0  0
    3.7810    0.2351   -1.2114 C   0  0  0  0  0  0  0  0  0  0  0  0
    2.7550    1.3071   -1.3382 C   0  0  0  0  0  0  0  0  0  0  0  0
    1.6522    1.2592   -0.3068 C   0  0  2  0  0  0  0  0  0  0  0  0
    0.8138    2.4200   -0.5755 N   0  0  0  0  0  0  0  0  0  0  0  0
   -0.3240    2.5475    0.3358 C   0  0  0  0  0  0  0  0  0  0  0  0
   -1.1130    3.0872   -0.8440 C   0  0  0  0  0  0  0  0  0  0  0  0
   -2.4888    2.6371   -0.9081 N   0  0  0  0  0  0  0  0  0  0  0  0
   -3.4920    3.6045   -1.1762 C   0  0  0  0  0  0  0  0  0  0  0  0
   -3.1229    4.8181   -1.3530 O   0  0  0  0  0  0  0  0  0  0  0  0
   -4.9413    3.3135   -1.2703 C   0  0  0  0  0  0  0  0  0  0  0  0
   -5.2948    1.9527   -1.0184 N   0  0  0  0  0  0  0  0  0  0  0  0
   -5.0836    1.2903    0.2178 C   0  0  0  0  0  0  0  0  0  0  0  0
   -4.5465    2.0057    1.1379 O   0  0  0  0  0  0  0  0  0  0  0  0
   -5.4321   -0.0885    0.4676 C   0  0  0  0  0  0  0  0  0  0  0  0
   -5.1748   -0.6256    1.7083 C   0  0  0  0  0  0  0  0  0  0  0  0
   -5.4834   -1.9404    2.0180 C   0  0  0  0  0  0  0  0  0  0  0  0
   -6.0664   -2.7489    1.0653 C   0  0  0  0  0  0  0  0  0  0  0  0
   -6.3268   -2.2199   -0.1770 C   0  0  0  0  0  0  0  0  0  0  0  0
   -6.9538   -3.0472   -1.2386 C   0  0  0  0  0  0  0  0  0  0  0  0
   -8.3253   -2.9696   -1.0484 F   0  0  0  0  0  0  0  0  0  0  0  0
   -6.5796   -4.3561   -1.1002 F   0  0  0  0  0  0  0  0  0  0  0  0
   -6.6129   -2.6286   -2.5068 F   0  0  0  0  0  0  0  0  0  0  0  0
   -6.0091   -0.8894   -0.4745 C   0  0  0  0  0  0  0  0  0  0  0  0
   -0.1489    2.2152   -1.6427 C   0  0  0  0  0  0  0  0  0  0  0  0
    2.2380    1.2873    1.0618 C   0  0  0  0  0  0  0  0  0  0  0  0
    3.5227    0.5531    1.2393 C   0  0  0  0  0  0  0  0  0  0  0  0
    5.7885   -1.4894   -0.7105 C   0  0  0  0  0  0  0  0  0  0  0  0
    6.8827   -2.2941   -0.5806 N   0  0  0  0  0  0  0  0  0  0  0  0
    9.2091   -3.2772    0.1727 H   0  0  0  0  0  0  0  0  0  0  0  0
    8.1929   -4.7229   -0.0309 H   0  0  0  0  0  0  0  0  0  0  0  0
    8.5997   -4.0773    1.6460 H   0  0  0  0  0  0  0  0  0  0  0  0
    6.4526   -3.3393    2.5000 H   0  0  0  0  0  0  0  0  0  0  0  0
    4.4430   -1.8726    2.2869 H   0  0  0  0  0  0  0  0  0  0  0  0
    2.7043   -1.8563    0.9815 H   0  0  0  0  0  0  0  0  0  0  0  0
    4.7928    0.7257   -1.3283 H   0  0  0  0  0  0  0  0  0  0  0  0
    3.7355   -0.5247   -2.0172 H   0  0  0  0  0  0  0  0  0  0  0  0
    2.2678    1.2738   -2.3395 H   0  0  0  0  0  0  0  0  0  0  0  0
    3.2693    2.3021   -1.2193 H   0  0  0  0  0  0  0  0  0  0  0  0
    1.0457    0.3227   -0.4661 H   0  0  0  0  0  0  0  0  0  0  0  0
   -0.1003    3.3329    1.0882 H   0  0  0  0  0  0  0  0  0  0  0  0
   -0.7092    1.5963    0.7166 H   0  0  0  0  0  0  0  0  0  0  0  0
   -0.9720    4.1568   -1.0110 H   0  0  0  0  0  0  0  0  0  0  0  0
   -2.7264    1.6511   -0.7754 H   0  0  0  0  0  0  0  0  0  0  0  0
   -5.4944    3.9548   -0.5483 H   0  0  0  0  0  0  0  0  0  0  0  0
   -5.3220    3.6233   -2.2737 H   0  0  0  0  0  0  0  0  0  0  0  0
   -5.7348    1.4093   -1.7877 H   0  0  0  0  0  0  0  0  0  0  0  0
   -4.7256   -0.0143    2.4531 H   0  0  0  0  0  0  0  0  0  0  0  0
   -5.2670   -2.3308    3.0058 H   0  0  0  0  0  0  0  0  0  0  0  0
   -6.3200   -3.7911    1.2840 H   0  0  0  0  0  0  0  0  0  0  0  0
   -6.2287   -0.4966   -1.4728 H   0  0  0  0  0  0  0  0  0  0  0  0
   -0.5474    1.1799   -1.6845 H   0  0  0  0  0  0  0  0  0  0  0  0
    0.1499    2.6501   -2.6132 H   0  0  0  0  0  0  0  0  0  0  0  0
    1.4515    0.8784    1.7593 H   0  0  0  0  0  0  0  0  0  0  0  0
    2.3667    2.3657    1.3651 H   0  0  0  0  0  0  0  0  0  0  0  0
    4.3649    1.2740    1.3041 H   0  0  0  0  0  0  0  0  0  0  0  0
    3.4736   -0.0115    2.1927 H   0  0  0  0  0  0  0  0  0  0  0  0
    5.6904   -1.0084   -1.6802 H   0  0  0  0  0  0  0  0  0  0  0  0
  1  2  1  0
  2  3  2  0
  3  4  1  0
  4  5  2  0
  5  6  1  0
  6  7  1  6
  6  8  1  0
  8  9  1  0
  9 10  1  0
 10 11  1  0
 11 12  1  0
 12 13  1  0
 13 14  1  0
 14 15  1  0
 15 16  2  0
 15 17  1  0
 17 18  1  0
 18 19  1  0
 19 20  2  0
 19 21  1  0
 21 22  2  0
 22 23  1  0
 23 24  2  0
 24 25  1  0
 25 26  1  0
 26 27  1  0
 26 28  1  0
 26 29  1  0
 25 30  2  0
 13 31  1  0
 10 32  1  0
 32 33  1  0
  5 34  1  0
 34 35  2  0
 35  2  1  0
 33  6  1  0
 31 11  1  0
 30 21  1  0
  1 36  1  0
  1 37  1  0
  1 38  1  0
  3 39  1  0
  4 40  1  0
  7 41  1  0
  8 42  1  0
  8 43  1  0
  9 44  1  0
  9 45  1  0
 10 46  1  1
 12 47  1  0
 12 48  1  0
 13 49  1  0
 14 50  1  0
 17 51  1  0
 17 52  1  0
 18 53  1  0
 22 54  1  0
 23 55  1  0
 24 56  1  0
 30 57  1  0
 31 58  1  0
 31 59  1  0
 32 60  1  0
 32 61  1  0
 33 62  1  0
 33 63  1  0
 34 64  1  0
M  END
$$$$
