@<TRIPOS>MOLECULE
*****
 64 67 0 0 0
SMALL
GASTEIGER

@<TRIPOS>ATOM
      1 C           8.3381   -3.8119    0.6196 C.3     1  UNL1       -0.0224
      2 C           7.1400   -2.9596    0.5452 C.ar    1  UNL1        0.0382
      3 C           6.2493   -2.8013    1.5819 C.ar    1  UNL1       -0.0403
      4 C           5.1378   -1.9967    1.4795 C.ar    1  UNL1       -0.0527
      5 C           4.8783   -1.3088    0.3060 C.ar    1  UNL1        0.0020
      6 C           3.7110   -0.4457    0.1263 C.3     1  UNL1        0.0924
      7 O           2.5700   -1.2861    0.1764 O.3     1  UNL1       -0.3839
      8 C           3.7810    0.2351   -1.2114 C.3     1  UNL1       -0.0184
      9 C           2.7550    1.3071   -1.3382 C.3     1  UNL1       -0.0344
     10 C           1.6522    1.2592   -0.3068 C.3     1  UNL1        0.0107
     11 N           0.8138    2.4200   -0.5755 N.3     1  UNL1       -0.2958
     12 C          -0.3240    2.5475    0.3358 C.3     1  UNL1        0.0189
     13 C          -1.1130    3.0872   -0.8440 C.3     1  UNL1        0.0486
     14 N          -2.4888    2.6371   -0.9081 N.am    1  UNL1       -0.3087
     15 C          -3.4920    3.6045   -1.1762 C.2     1  UNL1        0.2305
     16 O          -3.1229    4.8181   -1.3530 O.2     1  UNL1       -0.2741
     17 C          -4.9413    3.3135   -1.2703 C.3     1  UNL1        0.0884
     18 N          -5.2948    1.9527   -1.0184 N.am    1  UNL1       -0.3028
     19 C          -5.0836    1.2903    0.2178 C.2     1  UNL1        0.2445
     20 O          -4.5465    2.0057    1.1379 O.2     1  UNL1       -0.2702
     21 C          -5.4321   -0.0885    0.4676 C.ar    1  UNL1        0.0372
     22 C          -5.1748   -0.6256    1.7083 C.ar    1  UNL1       -0.0496
     23 C          -5.4834   -1.9404    2.0180 C.ar    1  UNL1       -0.0605
     24 C          -6.0664   -2.7489    1.0653 C.ar    1  UNL1       -0.0501
     25 C          -6.3268   -2.2199   -0.1770 C.ar    1  UNL1        0.0555
     26 C          -6.9538   -3.0472   -1.2386 C.3     1  UNL1        0.4174
     27 F          -8.3253   -2.9696   -1.0484 F       1  UNL1       -0.1659
     28 F          -6.5796   -4.3561   -1.1002 F       1  UNL1       -0.1659
     29 F          -6.6129   -2.6286   -2.5068 F       1  UNL1       -0.1659
     30 C          -6.0091   -0.8894   -0.4745 C.ar    1  UNL1       -0.0380
     31 C          -0.1489    2.2152   -1.6427 C.3     1  UNL1        0.0189
     32 C           2.2380    1.2873    1.0618 C.3     1  UNL1       -0.0344
     33 C           3.5227    0.5531    1.2393 C.3     1  UNL1       -0.0184
     34 C           5.7885   -1.4894   -0.7105 C.ar    1  UNL1        0.0337
     35 N           6.8827   -2.2941   -0.5806 N.ar    1  UNL1       -0.2598
     36 H           9.2091   -3.2772    0.1727 H       1  UNL1        0.0292
     37 H           8.1929   -4.7229   -0.0309 H       1  UNL1        0.0292
     38 H           8.5997   -4.0773    1.6460 H       1  UNL1        0.0292
     39 H           6.4526   -3.3393    2.5000 H       1  UNL1        0.0635
     40 H           4.4430   -1.8726    2.2869 H       1  UNL1        0.0622
     41 H           2.7043   -1.8563    0.9815 H       1  UNL1        0.2106
     42 H           4.7928    0.7257   -1.3283 H       1  UNL1        0.0297
     43 H           3.7355   -0.5247   -2.0172 H       1  UNL1        0.0297
     44 H           2.2678    1.2738   -2.3395 H       1  UNL1        0.0281
     45 H           3.2693    2.3021   -1.2193 H       1  UNL1        0.0281
     46 H           1.0457    0.3227   -0.4661 H       1  UNL1        0.0462
     47 H          -0.1003    3.3329    1.0882 H       1  UNL1        0.0445
     48 H          -0.7092    1.5963    0.7166 H       1  UNL1        0.0445
     49 H          -0.9720    4.1568   -1.0110 H       1  UNL1        0.0523
     50 H          -2.7264    1.6511   -0.7754 H       1  UNL1        0.1491
     51 H          -5.4944    3.9548   -0.5483 H       1  UNL1        0.0558
     52 H          -5.3220    3.6233   -2.2737 H       1  UNL1        0.0558
     53 H          -5.7348    1.4093   -1.7877 H       1  UNL1        0.1495
     54 H          -4.7256   -0.0143    2.4531 H       1  UNL1        0.0625
     55 H          -5.2670   -2.3308    3.0058 H       1  UNL1        0.0618
     56 H          -6.3200   -3.7911    1.2840 H       1  UNL1        0.0623
     57 H          -6.2287   -0.4966   -1.4728 H       1  UNL1        0.0631
     58 H          -0.5474    1.1799   -1.6845 H       1  UNL1        0.0445
     59 H           0.1499    2.6501   -2.6132 H       1  UNL1        0.0445
     60 H           1.4515    0.8784    1.7593 H       1  UNL1        0.0281
     61 H           2.3667    2.3657    1.3651 H       1  UNL1        0.0281
     62 H           4.3649    1.2740    1.3041 H       1  UNL1        0.0297
     63 H           3.4736   -0.0115    2.1927 H       1  UNL1        0.0297
     64 H           5.6904   -1.0084   -1.6802 H       1  UNL1        0.0833
@<TRIPOS>BOND
     1     1     2    1
     2     2     3   ar
     3     3     4   ar
     4     4     5   ar
     5     5     6    1
     6     6     7    1
     7     6     8    1
     8     8     9    1
     9     9    10    1
    10    10    11    1
    11    11    12    1
    12    12    13    1
    13    13    14    1
    14    14    15   am
    15    15    16    2
    16    15    17    1
    17    17    18    1
    18    18    19   am
    19    19    20    2
    20    19    21    1
    21    21    22   ar
    22    22    23   ar
    23    23    24   ar
    24    24    25   ar
    25    25    26    1
    26    26    27    1
    27    26    28    1
    28    26    29    1
    29    25    30   ar
    30    13    31    1
    31    10    32    1
    32    32    33    1
    33     5    34   ar
    34    34    35   ar
    35    35     2   ar
    36    33     6    1
    37    31    11    1
    38    30    21   ar
    39     1    36    1
    40     1    37    1
    41     1    38    1
    42     3    39    1
    43     4    40    1
    44     7    41    1
    45     8    42    1
    46     8    43    1
    47     9    44    1
    48     9    45    1
    49    10    46    1
    50    12    47    1
    51    12    48    1
    52    13    49    1
    53    14    50    1
    54    17    51    1
    55    17    52    1
    56    18    53    1
    57    22    54    1
    58    23    55    1
    59    24    56    1
    60    30    57    1
    61    31    58    1
    62    31    59    1
    63    32    60    1
    64    32    61    1
    65    33    62    1
    66    33    63    1
    67    34    64    1
