
     RDKit          3D

 54 57  0  0  0  0  0  0  0  0999 V2000
   -5.2473    0.9567    3.3193 C   0  0  0  0  0  0  0  0  0  0  0  0
   -5.7302    1.0918    1.9653 N   0  0  0  0  0  0  0  0  0  0  0  0
   -7.0074    1.7104    1.7216 C   0  0  0  0  0  0  0  0  0  0  0  0
   -4.9449    0.6166    0.9032 C   0  0  0  0  0  0  0  0  0  0  0  0
   -5.4260    0.7583   -0.2800 O   0  0  0  0  0  0  0  0  0  0  0  0
   -3.6347   -0.0210    1.0449 C   0  0  2  0  0  0  0  0  0  0  0  0
   -2.4492    0.6117    1.6240 C   0  0  0  0  0  0  0  0  0  0  0  0
   -2.5499    0.4696    0.1561 C   0  0  1  0  0  0  0  0  0  0  0  0
   -1.8343   -0.5964   -0.6235 C   0  0  1  0  0  0  0  0  0  0  0  0
   -2.7784   -1.1316   -1.6955 C   0  0  0  0  0  0  0  0  0  0  0  0
   -0.6849    0.0746   -1.3375 C   0  0  0  0  0  0  0  0  0  0  0  0
    0.6172   -0.3421   -1.1038 C   0  0  0  0  0  0  0  0  0  0  0  0
    1.7038    0.2475   -1.7058 C   0  0  0  0  0  0  0  0  0  0  0  0
    3.0727   -0.2558   -1.4119 C   0  0  0  0  0  0  0  0  0  0  0  0
    4.0972    0.5468   -1.2685 C   0  0  0  0  0  0  0  0  0  0  0  0
    3.8494    1.8812   -1.4019 F   0  0  0  0  0  0  0  0  0  0  0  0
    5.4680    0.1514   -0.9806 C   0  0  0  0  0  0  0  0  0  0  0  0
    5.8231   -1.1677   -0.8241 C   0  0  0  0  0  0  0  0  0  0  0  0
    7.1041   -1.5748   -0.5526 C   0  0  0  0  0  0  0  0  0  0  0  0
    8.0878   -0.6213   -0.4295 C   0  0  0  0  0  0  0  0  0  0  0  0
    9.4495   -1.0352   -0.1418 C   0  0  0  0  0  0  0  0  0  0  0  0
   10.5465   -1.3478    0.0897 N   0  0  0  0  0  0  0  0  0  0  0  0
    7.7656    0.7118   -0.5808 C   0  0  0  0  0  0  0  0  0  0  0  0
    6.4762    1.1025   -0.8527 C   0  0  0  0  0  0  0  0  0  0  0  0
    1.4822    1.2880   -2.5702 C   0  0  0  0  0  0  0  0  0  0  0  0
    0.2206    1.7394   -2.8379 C   0  0  0  0  0  0  0  0  0  0  0  0
   -0.8582    1.1178   -2.2099 C   0  0  0  0  0  0  0  0  0  0  0  0
   -2.1254    1.5414   -2.4847 F   0  0  0  0  0  0  0  0  0  0  0  0
   -1.2516   -1.6396    0.1539 N   0  0  0  0  0  0  0  0  0  0  0  0
   -1.9333   -2.3392    0.9819 C   0  0  0  0  0  0  0  0  0  0  0  0
   -1.4002   -3.3832    1.7708 N   0  0  0  0  0  0  0  0  0  0  0  0
   -3.6838   -1.8497    1.0879 S   0  0  0  0  0  0  0  0  0  0  0  0
   -4.1871    0.7191    3.3996 H   0  0  0  0  0  0  0  0  0  0  0  0
   -5.4325    1.8816    3.9206 H   0  0  0  0  0  0  0  0  0  0  0  0
   -5.8827    0.1724    3.8282 H   0  0  0  0  0  0  0  0  0  0  0  0
   -7.8649    1.0093    1.9159 H   0  0  0  0  0  0  0  0  0  0  0  0
   -7.1827    2.5743    2.4181 H   0  0  0  0  0  0  0  0  0  0  0  0
   -7.1373    2.0769    0.7036 H   0  0  0  0  0  0  0  0  0  0  0  0
   -1.6820   -0.0641    2.0954 H   0  0  0  0  0  0  0  0  0  0  0  0
   -2.4320    1.6324    2.0573 H   0  0  0  0  0  0  0  0  0  0  0  0
   -2.7340    1.4117   -0.3890 H   0  0  0  0  0  0  0  0  0  0  0  0
   -3.6029   -0.4580   -1.9256 H   0  0  0  0  0  0  0  0  0  0  0  0
   -3.0874   -2.1475   -1.3590 H   0  0  0  0  0  0  0  0  0  0  0  0
   -2.1382   -1.3373   -2.6015 H   0  0  0  0  0  0  0  0  0  0  0  0
    0.7895   -1.1631   -0.4218 H   0  0  0  0  0  0  0  0  0  0  0  0
    3.2459   -1.3174   -1.3106 H   0  0  0  0  0  0  0  0  0  0  0  0
    5.0806   -1.9494   -0.9132 H   0  0  0  0  0  0  0  0  0  0  0  0
    7.3568   -2.6439   -0.4329 H   0  0  0  0  0  0  0  0  0  0  0  0
    8.5690    1.4354   -0.4768 H   0  0  0  0  0  0  0  0  0  0  0  0
    6.1853    2.1318   -0.9778 H   0  0  0  0  0  0  0  0  0  0  0  0
    2.3119    1.7708   -3.0622 H   0  0  0  0  0  0  0  0  0  0  0  0
    0.0125    2.5611   -3.5181 H   0  0  0  0  0  0  0  0  0  0  0  0
   -0.8861   -3.2452    2.6646 H   0  0  0  0  0  0  0  0  0  0  0  0
   -1.5257   -4.3632    1.4432 H   0  0  0  0  0  0  0  0  0  0  0  0
  1  2  1  0
  2  3  1  0
  2  4  1  0
  4  5  2  0
  6  4  1  6
  6  7  1  0
  7  8  1  0
  8  9  1  0
  9 10  1  6
  9 11  1  0
 11 12  2  0
 12 13  1  0
 13 14  1  0
 14 15  2  0
 15 16  1  0
 15 17  1  0
 17 18  2  0
 18 19  1  0
 19 20  2  0
 20 21  1  0
 21 22  3  0
 20 23  1  0
 23 24  2  0
 13 25  2  0
 25 26  1  0
 26 27  2  0
 27 28  1  0
  9 29  1  0
 29 30  2  0
 30 31  1  0
 30 32  1  0
  8  6  1  0
 27 11  1  0
 32  6  1  0
 24 17  1  0
  1 33  1  0
  1 34  1  0
  1 35  1  0
  3 36  1  0
  3 37  1  0
  3 38  1  0
  7 39  1  0
  7 40  1  0
  8 41  1  6
 10 42  1  0
 10 43  1  0
 10 44  1  0
 12 45  1  0
 14 46  1  0
 18 47  1  0
 19 48  1  0
 23 49  1  0
 24 50  1  0
 25 51  1  0
 26 52  1  0
 31 53  1  0
 31 54  1  0
M  END
$$$$
