@<TRIPOS>MOLECULE
*****
 54 57 0 0 0
SMALL
GASTEIGER

@<TRIPOS>ATOM
      1 C          -5.2473    0.9567    3.3193 C.3     1  UNL1        0.0029
      2 N          -5.7302    1.0918    1.9653 N.am    1  UNL1       -0.3064
      3 C          -7.0074    1.7104    1.7216 C.3     1  UNL1        0.0029
      4 C          -4.9449    0.6166    0.9032 C.2     1  UNL1        0.2319
      5 O          -5.4260    0.7583   -0.2800 O.2     1  UNL1       -0.2741
      6 C          -3.6347   -0.0210    1.0449 C.3     1  UNL1        0.1054
      7 C          -2.4492    0.6117    1.6240 C.3     1  UNL1       -0.0220
      8 C          -2.5499    0.4696    0.1561 C.3     1  UNL1        0.0134
      9 C          -1.8343   -0.5964   -0.6235 C.3     1  UNL1        0.0935
     10 C          -2.7784   -1.1316   -1.6955 C.3     1  UNL1       -0.0351
     11 C          -0.6849    0.0746   -1.3375 C.ar    1  UNL1        0.0158
     12 C           0.6172   -0.3421   -1.1038 C.ar    1  UNL1       -0.0463
     13 C           1.7038    0.2475   -1.7058 C.ar    1  UNL1       -0.0218
     14 C           3.0727   -0.2558   -1.4119 C.2     1  UNL1       -0.0187
     15 C           4.0972    0.5468   -1.2685 C.2     1  UNL1        0.1311
     16 F           3.8494    1.8812   -1.4019 F       1  UNL1       -0.2049
     17 C           5.4680    0.1514   -0.9806 C.ar    1  UNL1        0.0103
     18 C           5.8231   -1.1677   -0.8241 C.ar    1  UNL1       -0.0506
     19 C           7.1041   -1.5748   -0.5526 C.ar    1  UNL1       -0.0437
     20 C           8.0878   -0.6213   -0.4295 C.ar    1  UNL1        0.0518
     21 C           9.4495   -1.0352   -0.1418 C.1     1  UNL1        0.0992
     22 N          10.5465   -1.3478    0.0897 N.1     1  UNL1       -0.1909
     23 C           7.7656    0.7118   -0.5808 C.ar    1  UNL1       -0.0437
     24 C           6.4762    1.1025   -0.8527 C.ar    1  UNL1       -0.0506
     25 C           1.4822    1.2880   -2.5702 C.ar    1  UNL1       -0.0518
     26 C           0.2206    1.7394   -2.8379 C.ar    1  UNL1       -0.0255
     27 C          -0.8582    1.1178   -2.2099 C.ar    1  UNL1        0.1289
     28 F          -2.1254    1.5414   -2.4847 F       1  UNL1       -0.2051
     29 N          -1.2516   -1.6396    0.1539 N.2     1  UNL1       -0.2521
     30 C          -1.9333   -2.3392    0.9819 C.2     1  UNL1        0.1485
     31 N          -1.4002   -3.3832    1.7708 N.pl3   1  UNL1       -0.3380
     32 S          -3.6838   -1.8497    1.0879 S.3     1  UNL1       -0.0746
     33 H          -4.1871    0.7191    3.3996 H       1  UNL1        0.0428
     34 H          -5.4325    1.8816    3.9206 H       1  UNL1        0.0428
     35 H          -5.8827    0.1724    3.8282 H       1  UNL1        0.0428
     36 H          -7.8649    1.0093    1.9159 H       1  UNL1        0.0428
     37 H          -7.1827    2.5743    2.4181 H       1  UNL1        0.0428
     38 H          -7.1373    2.0769    0.7036 H       1  UNL1        0.0428
     39 H          -1.6820   -0.0641    2.0954 H       1  UNL1        0.0287
     40 H          -2.4320    1.6324    2.0573 H       1  UNL1        0.0287
     41 H          -2.7340    1.4117   -0.3890 H       1  UNL1        0.0346
     42 H          -3.6029   -0.4580   -1.9256 H       1  UNL1        0.0256
     43 H          -3.0874   -2.1475   -1.3590 H       1  UNL1        0.0256
     44 H          -2.1382   -1.3373   -2.6015 H       1  UNL1        0.0256
     45 H           0.7895   -1.1631   -0.4218 H       1  UNL1        0.0628
     46 H           3.2459   -1.3174   -1.3106 H       1  UNL1        0.0652
     47 H           5.0806   -1.9494   -0.9132 H       1  UNL1        0.0625
     48 H           7.3568   -2.6439   -0.4329 H       1  UNL1        0.0631
     49 H           8.5690    1.4354   -0.4768 H       1  UNL1        0.0631
     50 H           6.1853    2.1318   -0.9778 H       1  UNL1        0.0625
     51 H           2.3119    1.7708   -3.0622 H       1  UNL1        0.0624
     52 H           0.0125    2.5611   -3.5181 H       1  UNL1        0.0646
     53 H          -0.8861   -3.2452    2.6646 H       1  UNL1        0.1442
     54 H          -1.5257   -4.3632    1.4432 H       1  UNL1        0.1442
@<TRIPOS>BOND
     1     1     2    1
     2     2     3    1
     3     2     4   am
     4     4     5    2
     5     6     4    1
     6     6     7    1
     7     7     8    1
     8     8     9    1
     9     9    10    1
    10     9    11    1
    11    11    12   ar
    12    12    13   ar
    13    13    14    1
    14    14    15    2
    15    15    16    1
    16    15    17    1
    17    17    18   ar
    18    18    19   ar
    19    19    20   ar
    20    20    21    1
    21    21    22    3
    22    20    23   ar
    23    23    24   ar
    24    13    25   ar
    25    25    26   ar
    26    26    27   ar
    27    27    28    1
    28     9    29    1
    29    29    30    2
    30    30    31    1
    31    30    32    1
    32     8     6    1
    33    27    11   ar
    34    32     6    1
    35    24    17   ar
    36     1    33    1
    37     1    34    1
    38     1    35    1
    39     3    36    1
    40     3    37    1
    41     3    38    1
    42     7    39    1
    43     7    40    1
    44     8    41    1
    45    10    42    1
    46    10    43    1
    47    10    44    1
    48    12    45    1
    49    14    46    1
    50    18    47    1
    51    19    48    1
    52    23    49    1
    53    24    50    1
    54    25    51    1
    55    26    52    1
    56    31    53    1
    57    31    54    1
