@<TRIPOS>MOLECULE
*****
 40 43 0 0 0
SMALL
GASTEIGER

@<TRIPOS>ATOM
      1 C           7.0427   -1.7532    0.7470 C.3     1  UNL1       -0.0039
      2 C           5.5806   -1.8341    0.2896 C.ar    1  UNL1        0.1359
      3 N           4.9861   -3.1294    0.2738 N.ar    1  UNL1       -0.1939
      4 S           3.2933   -2.6872   -0.3338 S.2     1  UNL1        0.0369
      5 C           3.6172   -0.9866   -0.4600 C.ar    1  UNL1        0.1652
      6 C           2.6611    0.0855   -0.9151 C.ar    1  UNL1        0.1910
      7 N           2.7381    0.8136   -2.0320 N.ar    1  UNL1       -0.1269
      8 N           1.7131    1.6841   -2.0786 N.ar    1  UNL1       -0.1320
      9 C           0.9868    1.4930   -0.9709 C.ar    1  UNL1        0.1542
     10 N           1.5709    0.5108   -0.2617 N.ar    1  UNL1       -0.3062
     11 C           0.9817    0.0863    0.9768 C.3     1  UNL1        0.0423
     12 C          -0.5338    0.0290    0.8967 C.3     1  UNL1        0.0338
     13 N          -1.1131    1.0790    0.0675 N.am    1  UNL1       -0.2860
     14 C          -2.4695    1.0317   -0.2576 C.2     1  UNL1        0.2472
     15 O          -2.8311    2.0938   -0.9855 O.2     1  UNL1       -0.2700
     16 C          -3.5378    0.1232    0.0048 C.ar    1  UNL1        0.0369
     17 C          -3.5443   -0.7386    1.0489 C.ar    1  UNL1       -0.0496
     18 C          -4.6503   -1.6099    1.2000 C.ar    1  UNL1       -0.0610
     19 C          -5.6689   -1.5654    0.3136 C.ar    1  UNL1       -0.0617
     20 C          -5.6628   -0.6923   -0.7424 C.ar    1  UNL1       -0.0610
     21 C          -4.6093    0.1528   -0.9096 C.ar    1  UNL1       -0.0496
     22 C          -0.2496    2.1263   -0.3859 C.3     1  UNL1        0.0834
     23 C          -0.7661    3.0757   -1.4038 C.3     1  UNL1       -0.0393
     24 N           4.8179   -0.8906   -0.0851 N.ar    1  UNL1       -0.2199
     25 H           7.2048   -2.3213    1.6580 H       1  UNL1        0.0308
     26 H           7.6538   -2.0663   -0.1250 H       1  UNL1        0.0308
     27 H           7.2534   -0.6681    0.9227 H       1  UNL1        0.0308
     28 H           1.3382   -0.9380    1.2697 H       1  UNL1        0.0508
     29 H           1.2859    0.7760    1.7802 H       1  UNL1        0.0508
     30 H          -0.7939   -0.9886    0.6016 H       1  UNL1        0.0482
     31 H          -0.8417    0.1601    1.9777 H       1  UNL1        0.0482
     32 H          -2.7687   -0.8051    1.7954 H       1  UNL1        0.0625
     33 H          -4.6075   -2.2912    2.0599 H       1  UNL1        0.0618
     34 H          -6.5121   -2.2528    0.4610 H       1  UNL1        0.0618
     35 H          -6.5430   -0.7399   -1.4048 H       1  UNL1        0.0618
     36 H          -4.6421    0.8272   -1.7504 H       1  UNL1        0.0625
     37 H           0.1084    2.7641    0.4738 H       1  UNL1        0.0579
     38 H           0.1619    3.6758   -1.7254 H       1  UNL1        0.0252
     39 H          -1.1893    2.5855   -2.2764 H       1  UNL1        0.0252
     40 H          -1.4613    3.7851   -0.9654 H       1  UNL1        0.0252
@<TRIPOS>BOND
     1     1     2    1
     2     2     3   ar
     3     3     4   ar
     4     4     5   ar
     5     5     6    1
     6     6     7   ar
     7     7     8   ar
     8     8     9   ar
     9     9    10   ar
    10    10    11    1
    11    11    12    1
    12    12    13    1
    13    13    14   am
    14    14    15    2
    15    14    16    1
    16    16    17   ar
    17    17    18   ar
    18    18    19   ar
    19    19    20   ar
    20    20    21   ar
    21    13    22    1
    22    22    23    1
    23     5    24   ar
    24    24     2   ar
    25    10     6   ar
    26    21    16   ar
    27    22     9    1
    28     1    25    1
    29     1    26    1
    30     1    27    1
    31    11    28    1
    32    11    29    1
    33    12    30    1
    34    12    31    1
    35    17    32    1
    36    18    33    1
    37    19    34    1
    38    20    35    1
    39    21    36    1
    40    22    37    1
    41    23    38    1
    42    23    39    1
    43    23    40    1
