
     RDKit          3D

 56 61  0  0  0  0  0  0  0  0999 V2000
   -7.9161   -1.0957    2.1385 C   0  0  0  0  0  0  0  0  0  0  0  0
   -6.5383   -0.9689    2.4490 O   0  0  0  0  0  0  0  0  0  0  0  0
   -5.6506   -0.6524    1.4304 C   0  0  0  0  0  0  0  0  0  0  0  0
   -4.2942   -0.5271    1.7335 C   0  0  0  0  0  0  0  0  0  0  0  0
   -3.3625   -0.2145    0.7664 C   0  0  0  0  0  0  0  0  0  0  0  0
   -3.8023   -0.0230   -0.5363 C   0  0  0  0  0  0  0  0  0  0  0  0
   -3.1570    0.2926   -1.7203 C   0  0  0  0  0  0  0  0  0  0  0  0
   -1.7633    0.5019   -1.8271 N   0  0  0  0  0  0  0  0  0  0  0  0
   -0.8693   -0.4264   -2.1990 C   0  0  0  0  0  0  0  0  0  0  0  0
   -1.1757   -1.6136   -2.5014 O   0  0  0  0  0  0  0  0  0  0  0  0
    0.3786    0.1232   -2.1911 N   0  0  0  0  0  0  0  0  0  0  0  0
    1.5613   -0.6298   -2.5482 C   0  0  0  0  0  0  0  0  0  0  0  0
    2.1405   -1.2837   -1.3559 C   0  0  0  0  0  0  0  0  0  0  0  0
    1.7199   -2.5528   -1.0172 C   0  0  0  0  0  0  0  0  0  0  0  0
    2.2786   -3.1361    0.0995 C   0  0  0  0  0  0  0  0  0  0  0  0
    3.2353   -2.4652    0.8592 C   0  0  0  0  0  0  0  0  0  0  0  0
    3.6550   -1.1966    0.5198 C   0  0  0  0  0  0  0  0  0  0  0  0
    4.6612   -0.5021    1.3273 C   0  0  1  0  0  0  0  0  0  0  0  0
    4.9530   -1.2096    2.6318 C   0  0  0  0  0  0  0  0  0  0  0  0
    5.8927   -0.3370    0.6596 O   0  0  0  0  0  0  0  0  0  0  0  0
    6.4568    0.8484    1.0906 C   0  0  0  0  0  0  0  0  0  0  0  0
    7.8104    1.2374    0.9735 O   0  0  0  0  0  0  0  0  0  0  0  0
    5.5528    1.5885    1.6376 N   0  0  0  0  0  0  0  0  0  0  0  0
    4.3030    0.9136    1.5983 C   0  0  0  0  0  0  0  0  0  0  0  0
    3.1423    1.3495    1.7483 O   0  0  0  0  0  0  0  0  0  0  0  0
    3.0951   -0.6149   -0.5974 C   0  0  0  0  0  0  0  0  0  0  0  0
    0.2835    1.3901   -1.8183 C   0  0  0  0  0  0  0  0  0  0  0  0
    1.2140    2.3958   -1.6433 C   0  0  0  0  0  0  0  0  0  0  0  0
    0.8011    3.6412   -1.2393 C   0  0  0  0  0  0  0  0  0  0  0  0
   -0.5472    3.8954   -1.0054 C   0  0  0  0  0  0  0  0  0  0  0  0
   -1.4570    2.8774   -1.1864 C   0  0  0  0  0  0  0  0  0  0  0  0
   -1.0754    1.6195   -1.5904 C   0  0  0  0  0  0  0  0  0  0  0  0
   -4.1087    0.3457   -2.6648 N   0  0  0  0  0  0  0  0  0  0  0  0
   -5.2478    0.0838   -2.1064 O   0  0  0  0  0  0  0  0  0  0  0  0
   -5.1418   -0.1463   -0.8380 C   0  0  0  0  0  0  0  0  0  0  0  0
   -6.0841   -0.4614    0.1349 C   0  0  0  0  0  0  0  0  0  0  0  0
   -8.5054   -1.4874    2.9668 H   0  0  0  0  0  0  0  0  0  0  0  0
   -8.2554   -0.1048    1.7606 H   0  0  0  0  0  0  0  0  0  0  0  0
   -7.9931   -1.7862    1.2632 H   0  0  0  0  0  0  0  0  0  0  0  0
   -3.9628   -0.6790    2.7546 H   0  0  0  0  0  0  0  0  0  0  0  0
   -2.3094   -0.1080    0.9535 H   0  0  0  0  0  0  0  0  0  0  0  0
    2.3230    0.0343   -3.0265 H   0  0  0  0  0  0  0  0  0  0  0  0
    1.2802   -1.3602   -3.3365 H   0  0  0  0  0  0  0  0  0  0  0  0
    0.9689   -3.0783   -1.6157 H   0  0  0  0  0  0  0  0  0  0  0  0
    1.9444   -4.1373    0.3636 H   0  0  0  0  0  0  0  0  0  0  0  0
    3.6505   -2.9587    1.7307 H   0  0  0  0  0  0  0  0  0  0  0  0
    5.6886   -0.5470    3.1754 H   0  0  0  0  0  0  0  0  0  0  0  0
    4.0141   -1.3191    3.1977 H   0  0  0  0  0  0  0  0  0  0  0  0
    5.4321   -2.1889    2.4696 H   0  0  0  0  0  0  0  0  0  0  0  0
    8.0461    2.2301    0.8225 H   0  0  0  0  0  0  0  0  0  0  0  0
    3.4463    0.3802   -0.8371 H   0  0  0  0  0  0  0  0  0  0  0  0
    2.2622    2.2073   -1.8239 H   0  0  0  0  0  0  0  0  0  0  0  0
    1.5136    4.4593   -1.0916 H   0  0  0  0  0  0  0  0  0  0  0  0
   -0.8417    4.8895   -0.6870 H   0  0  0  0  0  0  0  0  0  0  0  0
   -2.4992    3.0622   -1.0090 H   0  0  0  0  0  0  0  0  0  0  0  0
   -7.1467   -0.5551   -0.1258 H   0  0  0  0  0  0  0  0  0  0  0  0
  1  2  1  0
  2  3  1  0
  3  4  2  0
  4  5  1  0
  5  6  2  0
  6  7  1  0
  7  8  1  0
  8  9  1  0
  9 10  2  0
  9 11  1  0
 11 12  1  0
 12 13  1  0
 13 14  2  0
 14 15  1  0
 15 16  2  0
 16 17  1  0
 17 18  1  0
 18 19  1  1
 18 20  1  0
 20 21  1  0
 21 22  1  0
 21 23  2  0
 23 24  1  0
 24 25  2  0
 17 26  2  0
 11 27  1  0
 27 28  2  0
 28 29  1  0
 29 30  2  0
 30 31  1  0
 31 32  2  0
  7 33  2  0
 33 34  1  0
 34 35  1  0
 35 36  2  0
 36  3  1  0
 35  6  1  0
 32  8  1  0
 26 13  1  0
 32 27  1  0
 24 18  1  0
  1 37  1  0
  1 38  1  0
  1 39  1  0
  4 40  1  0
  5 41  1  0
 12 42  1  0
 12 43  1  0
 14 44  1  0
 15 45  1  0
 16 46  1  0
 19 47  1  0
 19 48  1  0
 19 49  1  0
 22 50  1  0
 26 51  1  0
 28 52  1  0
 29 53  1  0
 30 54  1  0
 31 55  1  0
 36 56  1  0
M  END
$$$$
