@<TRIPOS>MOLECULE
*****
 56 61 0 0 0
SMALL
GASTEIGER

@<TRIPOS>ATOM
      1 C          -7.9161   -1.0957    2.1385 C.3     1  UNL1        0.0788
      2 O          -6.5383   -0.9689    2.4490 O.3     1  UNL1       -0.4950
      3 C          -5.6506   -0.6524    1.4304 C.ar    1  UNL1        0.1237
      4 C          -4.2942   -0.5271    1.7335 C.ar    1  UNL1       -0.0190
      5 C          -3.3625   -0.2145    0.7664 C.ar    1  UNL1       -0.0439
      6 C          -3.8023   -0.0230   -0.5363 C.ar    1  UNL1        0.0662
      7 C          -3.1570    0.2926   -1.7203 C.ar    1  UNL1        0.1922
      8 N          -1.7633    0.5019   -1.8271 N.ar    1  UNL1       -0.2413
      9 C          -0.8693   -0.4264   -2.1990 C.ar    1  UNL1        0.3362
     10 O          -1.1757   -1.6136   -2.5014 O.2     1  UNL1       -0.2459
     11 N           0.3786    0.1232   -2.1911 N.ar    1  UNL1       -0.2874
     12 C           1.5613   -0.6298   -2.5482 C.3     1  UNL1        0.0532
     13 C           2.1405   -1.2837   -1.3559 C.ar    1  UNL1       -0.0272
     14 C           1.7199   -2.5528   -1.0172 C.ar    1  UNL1       -0.0568
     15 C           2.2786   -3.1361    0.0995 C.ar    1  UNL1       -0.0611
     16 C           3.2353   -2.4652    0.8592 C.ar    1  UNL1       -0.0543
     17 C           3.6550   -1.1966    0.5198 C.ar    1  UNL1        0.0049
     18 C           4.6612   -0.5021    1.3273 C.3     1  UNL1        0.2142
     19 C           4.9530   -1.2096    2.6318 C.3     1  UNL1       -0.0116
     20 O           5.8927   -0.3370    0.6596 O.2     1  UNL1       -0.4308
     21 C           6.4568    0.8484    1.0906 C.2     1  UNL1        0.3808
     22 O           7.8104    1.2374    0.9735 O.2     1  UNL1       -0.4673
     23 N           5.5528    1.5885    1.6376 N.am    1  UNL1       -0.1074
     24 C           4.3030    0.9136    1.5983 C.2     1  UNL1        0.2899
     25 O           3.1423    1.3495    1.7483 O.2     1  UNL1       -0.2687
     26 C           3.0951   -0.6149   -0.5974 C.ar    1  UNL1       -0.0494
     27 C           0.2835    1.3901   -1.8183 C.ar    1  UNL1        0.0706
     28 C           1.2140    2.3958   -1.6433 C.ar    1  UNL1       -0.0360
     29 C           0.8011    3.6412   -1.2393 C.ar    1  UNL1       -0.0597
     30 C          -0.5472    3.8954   -1.0054 C.ar    1  UNL1       -0.0597
     31 C          -1.4570    2.8774   -1.1864 C.ar    1  UNL1       -0.0356
     32 C          -1.0754    1.6195   -1.5904 C.ar    1  UNL1        0.0765
     33 N          -4.1087    0.3457   -2.6648 N.ar    1  UNL1       -0.0587
     34 O          -5.2478    0.0838   -2.1064 O.2     1  UNL1       -0.3525
     35 C          -5.1418   -0.1463   -0.8380 C.ar    1  UNL1        0.1728
     36 C          -6.0841   -0.4614    0.1349 C.ar    1  UNL1        0.0257
     37 H          -8.5054   -1.4874    2.9668 H       1  UNL1        0.0660
     38 H          -8.2554   -0.1048    1.7606 H       1  UNL1        0.0660
     39 H          -7.9931   -1.7862    1.2632 H       1  UNL1        0.0660
     40 H          -3.9628   -0.6790    2.7546 H       1  UNL1        0.0654
     41 H          -2.3094   -0.1080    0.9535 H       1  UNL1        0.0627
     42 H           2.3230    0.0343   -3.0265 H       1  UNL1        0.0543
     43 H           1.2802   -1.3602   -3.3365 H       1  UNL1        0.0543
     44 H           0.9689   -3.0783   -1.6157 H       1  UNL1        0.0621
     45 H           1.9444   -4.1373    0.3636 H       1  UNL1        0.0618
     46 H           3.6505   -2.9587    1.7307 H       1  UNL1        0.0622
     47 H           5.6886   -0.5470    3.1754 H       1  UNL1        0.0276
     48 H           4.0141   -1.3191    3.1977 H       1  UNL1        0.0276
     49 H           5.4321   -2.1889    2.4696 H       1  UNL1        0.0276
     50 H           8.0461    2.2301    0.8225 H       1  UNL1        0.2967
     51 H           3.4463    0.3802   -0.8371 H       1  UNL1        0.0625
     52 H           2.2622    2.2073   -1.8239 H       1  UNL1        0.0639
     53 H           1.5136    4.4593   -1.0916 H       1  UNL1        0.0618
     54 H          -0.8417    4.8895   -0.6870 H       1  UNL1        0.0618
     55 H          -2.4992    3.0622   -1.0090 H       1  UNL1        0.0639
     56 H          -7.1467   -0.5551   -0.1258 H       1  UNL1        0.0692
@<TRIPOS>BOND
     1     1     2    1
     2     2     3    1
     3     3     4   ar
     4     4     5   ar
     5     5     6   ar
     6     6     7   ar
     7     7     8    1
     8     8     9   ar
     9     9    10    2
    10     9    11   ar
    11    11    12    1
    12    12    13    1
    13    13    14   ar
    14    14    15   ar
    15    15    16   ar
    16    16    17   ar
    17    17    18    1
    18    18    19    1
    19    18    20    1
    20    20    21    1
    21    21    22    1
    22    21    23    2
    23    23    24    1
    24    24    25    2
    25    17    26   ar
    26    11    27   ar
    27    27    28   ar
    28    28    29   ar
    29    29    30   ar
    30    30    31   ar
    31    31    32   ar
    32     7    33   ar
    33    33    34   ar
    34    34    35   ar
    35    35    36   ar
    36    36     3   ar
    37    35     6   ar
    38    32     8   ar
    39    26    13   ar
    40    32    27   ar
    41    24    18    1
    42     1    37    1
    43     1    38    1
    44     1    39    1
    45     4    40    1
    46     5    41    1
    47    12    42    1
    48    12    43    1
    49    14    44    1
    50    15    45    1
    51    16    46    1
    52    19    47    1
    53    19    48    1
    54    19    49    1
    55    22    50    1
    56    26    51    1
    57    28    52    1
    58    29    53    1
    59    30    54    1
    60    31    55    1
    61    36    56    1
