@<TRIPOS>MOLECULE
*****
 46 49 0 0 0
SMALL
GASTEIGER

@<TRIPOS>ATOM
      1 N           3.0871    2.1017    1.3354 N.am    1  UNL1       -0.3240
      2 C           3.9751    1.9023    0.2477 C.2     1  UNL1        0.2615
      3 O           5.0981    2.4397    0.2574 O.2     1  UNL1       -0.2687
      4 C           3.5824    1.0742   -0.8777 C.ar    1  UNL1        0.1470
      5 C           4.3696    0.8155   -1.9851 C.ar    1  UNL1        0.0605
      6 N           3.6455    0.0162   -2.7869 N.ar    1  UNL1       -0.2339
      7 C           2.4687   -0.2100   -2.2074 C.ar    1  UNL1        0.1549
      8 C           1.3998   -0.9599   -2.6374 C.ar    1  UNL1       -0.0153
      9 C           0.2920   -1.0116   -1.8095 C.ar    1  UNL1       -0.0290
     10 C           0.2388   -0.3494   -0.6034 C.ar    1  UNL1        0.1103
     11 C          -0.9580   -0.4451    0.2213 C.ar    1  UNL1        0.0970
     12 C          -1.7914    0.6132    0.6032 C.ar    1  UNL1        0.0982
     13 C          -1.6530    2.0154    0.2719 C.ar    1  UNL1        0.0027
     14 C          -1.7117    2.4127   -1.0439 C.ar    1  UNL1       -0.0498
     15 C          -1.5830    3.7550   -1.3995 C.ar    1  UNL1       -0.0258
     16 C          -1.3937    4.7084   -0.4265 C.ar    1  UNL1        0.1234
     17 F          -1.2709    6.0174   -0.8043 F       1  UNL1       -0.2055
     18 C          -1.3331    4.3253    0.8934 C.ar    1  UNL1       -0.0258
     19 C          -1.4637    2.9728    1.2380 C.ar    1  UNL1       -0.0498
     20 N          -2.7692    0.0482    1.3582 N.ar    1  UNL1       -0.2351
     21 C          -2.5939   -1.2670    1.4636 C.ar    1  UNL1        0.0975
     22 N          -1.4977   -1.5658    0.7754 N.ar    1  UNL1       -0.3208
     23 C          -0.9446   -2.8970    0.6296 C.3     1  UNL1        0.0820
     24 C          -1.8628   -3.8112   -0.1576 C.3     1  UNL1        0.0671
     25 O          -1.2313   -5.0585   -0.2342 O.3     1  UNL1       -0.3929
     26 C          -0.8738   -3.4800    2.0437 C.3     1  UNL1        0.0671
     27 O          -0.0489   -2.6608    2.8182 O.3     1  UNL1       -0.3929
     28 N           1.3212    0.3649   -0.2470 N.ar    1  UNL1       -0.1628
     29 N           2.3905    0.4248   -1.0284 N.ar    1  UNL1       -0.2076
     30 H           2.1332    2.5112    1.2265 H       1  UNL1        0.1453
     31 H           3.3872    1.8292    2.3114 H       1  UNL1        0.1453
     32 H           5.3674    1.1484   -2.2291 H       1  UNL1        0.0854
     33 H           1.4633   -1.4714   -3.5883 H       1  UNL1        0.0655
     34 H          -0.5399   -1.5970   -2.1490 H       1  UNL1        0.0641
     35 H          -1.8568    1.7126   -1.8397 H       1  UNL1        0.0625
     36 H          -1.6265    4.0830   -2.4260 H       1  UNL1        0.0646
     37 H          -1.1843    5.0901    1.6386 H       1  UNL1        0.0646
     38 H          -1.4103    2.7136    2.2848 H       1  UNL1        0.0625
     39 H          -3.2084   -1.9687    1.9965 H       1  UNL1        0.1029
     40 H           0.0906   -2.8988    0.2477 H       1  UNL1        0.0574
     41 H          -2.8166   -3.8756    0.3924 H       1  UNL1        0.0578
     42 H          -2.0507   -3.3754   -1.1626 H       1  UNL1        0.0578
     43 H          -1.7955   -5.6718   -0.7625 H       1  UNL1        0.2095
     44 H          -1.9060   -3.4765    2.4422 H       1  UNL1        0.0578
     45 H          -0.4922   -4.5310    1.9933 H       1  UNL1        0.0578
     46 H          -0.4425   -2.5132    3.7156 H       1  UNL1        0.2095
@<TRIPOS>BOND
     1     1     2   am
     2     2     3    2
     3     2     4    1
     4     4     5   ar
     5     5     6   ar
     6     6     7   ar
     7     7     8   ar
     8     8     9   ar
     9     9    10   ar
    10    10    11    1
    11    11    12   ar
    12    12    13    1
    13    13    14   ar
    14    14    15   ar
    15    15    16   ar
    16    16    17    1
    17    16    18   ar
    18    18    19   ar
    19    12    20   ar
    20    20    21   ar
    21    21    22   ar
    22    22    23    1
    23    23    24    1
    24    24    25    1
    25    23    26    1
    26    26    27    1
    27    10    28   ar
    28    28    29   ar
    29    29     4   ar
    30    29     7   ar
    31    22    11   ar
    32    19    13   ar
    33     1    30    1
    34     1    31    1
    35     5    32    1
    36     8    33    1
    37     9    34    1
    38    14    35    1
    39    15    36    1
    40    18    37    1
    41    19    38    1
    42    21    39    1
    43    23    40    1
    44    24    41    1
    45    24    42    1
    46    25    43    1
    47    26    44    1
    48    26    45    1
    49    27    46    1
