
     RDKit          3D

 28 28  0  0  0  0  0  0  0  0999 V2000
   -0.7546   -0.3248    0.0916 C   0  0  1  0  0  0  0  0  0  0  0  0
    0.1966    0.8288   -0.0491 C   0  0  0  0  0  0  0  0  0  0  0  0
    1.6199    0.4664    0.1205 C   0  0  0  0  0  0  0  0  0  0  0  0
    2.0534    0.5510    1.4467 C   0  0  0  0  0  0  0  0  0  0  0  0
    3.3433    0.2557    1.8053 C   0  0  0  0  0  0  0  0  0  0  0  0
    4.2723   -0.1432    0.8420 C   0  0  0  0  0  0  0  0  0  0  0  0
    3.8247   -0.2196   -0.4562 C   0  0  0  0  0  0  0  0  0  0  0  0
    2.5476    0.0717   -0.8186 C   0  0  0  0  0  0  0  0  0  0  0  0
   -2.1152    0.1994   -0.1030 N   0  0  0  0  0  0  0  0  0  0  0  0
   -3.1145    0.0091    0.8899 C   0  0  0  0  0  0  0  0  0  0  0  0
   -3.0417   -0.5741    1.9963 O   0  0  0  0  0  0  0  0  0  0  0  0
   -4.4849    0.5010    0.7651 C   0  0  0  0  0  0  0  0  0  0  0  0
   -5.0767    1.2109   -0.2711 O   0  0  0  0  0  0  0  0  0  0  0  0
   -5.2542    0.2554    1.7249 O   0  0  0  0  0  0  0  0  0  0  0  0
   -0.5438   -1.3495   -0.9618 C   0  0  0  0  0  0  0  0  0  0  0  0
   -0.7373   -2.1871   -2.0400 O   0  0  0  0  0  0  0  0  0  0  0  0
    0.4820   -2.0507   -1.1590 O   0  0  0  0  0  0  0  0  0  0  0  0
   -0.6924   -0.8339    1.0589 H   0  0  0  0  0  0  0  0  0  0  0  0
    0.0779    1.2112   -1.1060 H   0  0  0  0  0  0  0  0  0  0  0  0
   -0.0905    1.6852    0.5834 H   0  0  0  0  0  0  0  0  0  0  0  0
    1.4446    0.8480    2.3117 H   0  0  0  0  0  0  0  0  0  0  0  0
    3.7282    0.3051    2.8144 H   0  0  0  0  0  0  0  0  0  0  0  0
    5.3064   -0.4001    0.9976 H   0  0  0  0  0  0  0  0  0  0  0  0
    4.4654   -0.5180   -1.2732 H   0  0  0  0  0  0  0  0  0  0  0  0
    2.1418    0.0305   -1.8199 H   0  0  0  0  0  0  0  0  0  0  0  0
   -2.3625    0.7130   -0.9641 H   0  0  0  0  0  0  0  0  0  0  0  0
   -5.6106    2.0411   -0.1192 H   0  0  0  0  0  0  0  0  0  0  0  0
   -1.6251   -2.5824   -2.3298 H   0  0  0  0  0  0  0  0  0  0  0  0
  1  2  1  0
  2  3  1  0
  3  4  2  0
  4  5  1  0
  5  6  2  0
  6  7  1  0
  7  8  2  0
  1  9  1  0
  9 10  1  0
 10 11  2  0
 10 12  1  0
 12 13  1  0
 12 14  2  0
  1 15  1  0
 15 16  1  0
 15 17  2  0
  8  3  1  0
  1 18  1  1
  2 19  1  0
  2 20  1  0
  4 21  1  0
  5 22  1  0
  6 23  1  0
  7 24  1  0
  8 25  1  0
  9 26  1  0
 13 27  1  0
 16 28  1  0
M  END
$$$$
