@<TRIPOS>MOLECULE
*****
 28 28 0 0 0
SMALL
GASTEIGER

@<TRIPOS>ATOM
      1 CA         -0.7546   -0.3248    0.0916 C.3     1  PHE1        0.1246
      2 CB          0.1966    0.8288   -0.0491 C.3     1  PHE1        0.0012
      3 CG          1.6199    0.4664    0.1205 C.ar    1  PHE1       -0.0451
      4 CD1         2.0534    0.5510    1.4467 C.ar    1  PHE1       -0.0585
      5 CE1         3.3433    0.2557    1.8053 C.ar    1  PHE1       -0.0615
      6 CZ          4.2723   -0.1432    0.8420 C.ar    1  PHE1       -0.0617
      7 CE2         3.8247   -0.2196   -0.4562 C.ar    1  PHE1       -0.0615
      8 CD2         2.5476    0.0717   -0.8186 C.ar    1  PHE1       -0.0585
      9 N          -2.1152    0.1994   -0.1030 N.am    1  PHE1       -0.2927
     10 C          -3.1145    0.0091    0.8899 C.2     0  UNK0        0.3219
     11 O          -3.0417   -0.5741    1.9963 O.2     0  UNK0       -0.2630
     12 C          -4.4849    0.5010    0.7651 C.2     0  UNK0        0.3923
     13 O          -5.0767    1.2109   -0.2711 O.3     0  UNK0       -0.4740
     14 O          -5.2542    0.2554    1.7249 O.2     0  UNK0       -0.2399
     15 C          -0.5438   -1.3495   -0.9618 C.2     1  PHE1        0.3256
     16 O          -0.7373   -2.1871   -2.0400 O.3     1  PHE1       -0.4793
     17 OXT         0.4820   -2.0507   -1.1590 O.2     1  PHE1       -0.2489
     18 HA         -0.6924   -0.8339    1.0589 H       1  PHE1        0.0618
     19 HB1         0.0779    1.2112   -1.1060 H       1  PHE1        0.0337
     20 HB2        -0.0905    1.6852    0.5834 H       1  PHE1        0.0337
     21 HD1         1.4446    0.8480    2.3117 H       1  PHE1        0.0620
     22 HE1         3.7282    0.3051    2.8144 H       1  PHE1        0.0618
     23 HZ          5.3064   -0.4001    0.9976 H       1  PHE1        0.0618
     24 HE2         4.4654   -0.5180   -1.2732 H       1  PHE1        0.0618
     25 HD2         2.1418    0.0305   -1.8199 H       1  PHE1        0.0620
     26 H          -2.3625    0.7130   -0.9641 H       1  PHE1        0.1500
     27 H          -5.6106    2.0411   -0.1192 H       0  UNK0        0.2956
     28 H          -1.6251   -2.5824   -2.3298 H       1  PHE1        0.2951
@<TRIPOS>BOND
     1     1     2    1
     2     2     3    1
     3     3     4   ar
     4     4     5   ar
     5     5     6   ar
     6     6     7   ar
     7     7     8   ar
     8     1     9    1
     9     9    10   am
    10    10    11    2
    11    10    12    1
    12    12    13    1
    13    12    14    2
    14     1    15    1
    15    15    16    1
    16    15    17    2
    17     8     3   ar
    18     1    18    1
    19     2    19    1
    20     2    20    1
    21     4    21    1
    22     5    22    1
    23     6    23    1
    24     7    24    1
    25     8    25    1
    26     9    26    1
    27    13    27    1
    28    16    28    1
