@<TRIPOS>MOLECULE
*****
 39 40 0 0 0
SMALL
GASTEIGER

@<TRIPOS>ATOM
      1 C           1.1859   -1.7390    1.0084 C.3     1  UNL1       -0.0492
      2 C           0.6854   -0.3884    0.5466 C.3     1  UNL1        0.0116
      3 C           1.3459    0.0358   -0.7455 C.3     1  UNL1       -0.0123
      4 C           2.8214    0.1132   -0.5095 C.ar    1  UNL1       -0.0459
      5 C           3.3102    1.3352   -0.0810 C.ar    1  UNL1       -0.0585
      6 C           4.6556    1.5280    0.1701 C.ar    1  UNL1       -0.0615
      7 C           5.5333    0.4950   -0.0054 C.ar    1  UNL1       -0.0617
      8 C           5.0528   -0.7354   -0.4352 C.ar    1  UNL1       -0.0615
      9 C           3.7101   -0.9418   -0.6898 C.ar    1  UNL1       -0.0585
     10 N          -0.7387   -0.4212    0.4661 N.3     1  UNL1       -0.2982
     11 C          -1.2897   -0.7174    1.7442 C.3     1  UNL1       -0.0121
     12 C          -1.3564    0.6173   -0.2817 C.3     1  UNL1        0.0240
     13 C          -2.8186    0.5889   -0.3540 C.ar    1  UNL1       -0.0334
     14 C          -3.7190    1.2135    0.4855 C.ar    1  UNL1       -0.0573
     15 C          -5.0858    1.1165    0.3293 C.ar    1  UNL1       -0.0615
     16 C          -5.6212    0.3716   -0.6998 C.ar    1  UNL1       -0.0617
     17 C          -4.7823   -0.2812   -1.5792 C.ar    1  UNL1       -0.0615
     18 C          -3.4240   -0.1509   -1.3775 C.ar    1  UNL1       -0.0573
     19 H           1.2282   -2.4044    0.1087 H       1  UNL1        0.0245
     20 H           0.4888   -2.2333    1.7010 H       1  UNL1        0.0245
     21 H           2.1668   -1.6445    1.5075 H       1  UNL1        0.0245
     22 H           0.9437    0.3986    1.3021 H       1  UNL1        0.0463
     23 H           1.1712   -0.7490   -1.5169 H       1  UNL1        0.0328
     24 H           0.9942    1.0019   -1.1015 H       1  UNL1        0.0328
     25 H           2.6915    2.2152    0.0872 H       1  UNL1        0.0620
     26 H           5.0856    2.4611    0.5055 H       1  UNL1        0.0618
     27 H           6.5949    0.5535    0.1652 H       1  UNL1        0.0618
     28 H           5.7354   -1.5782   -0.5832 H       1  UNL1        0.0618
     29 H           3.2790   -1.8726   -1.0247 H       1  UNL1        0.0620
     30 H          -0.5249   -0.6223    2.5706 H       1  UNL1        0.0391
     31 H          -2.1398   -0.1278    2.0768 H       1  UNL1        0.0391
     32 H          -1.5079   -1.8261    1.7449 H       1  UNL1        0.0391
     33 H          -0.9919    0.6061   -1.3415 H       1  UNL1        0.0476
     34 H          -1.0390    1.5932    0.1465 H       1  UNL1        0.0476
     35 H          -3.2931    1.7990    1.2883 H       1  UNL1        0.0621
     36 H          -5.7397    1.6368    1.0305 H       1  UNL1        0.0618
     37 H          -6.6919    0.3034   -0.8115 H       1  UNL1        0.0618
     38 H          -5.1425   -0.8795   -2.4048 H       1  UNL1        0.0618
     39 H          -2.7736   -0.6707   -2.0780 H       1  UNL1        0.0621
@<TRIPOS>BOND
     1     1     2    1
     2     2     3    1
     3     3     4    1
     4     4     5   ar
     5     5     6   ar
     6     6     7   ar
     7     7     8   ar
     8     8     9   ar
     9     2    10    1
    10    10    11    1
    11    10    12    1
    12    12    13    1
    13    13    14   ar
    14    14    15   ar
    15    15    16   ar
    16    16    17   ar
    17    17    18   ar
    18     9     4   ar
    19    18    13   ar
    20     1    19    1
    21     1    20    1
    22     1    21    1
    23     2    22    1
    24     3    23    1
    25     3    24    1
    26     5    25    1
    27     6    26    1
    28     7    27    1
    29     8    28    1
    30     9    29    1
    31    11    30    1
    32    11    31    1
    33    11    32    1
    34    12    33    1
    35    12    34    1
    36    14    35    1
    37    15    36    1
    38    16    37    1
    39    17    38    1
    40    18    39    1
