@<TRIPOS>MOLECULE
*****
 14 14 0 0 0
SMALL
GASTEIGER

@<TRIPOS>ATOM
      1 N          -2.5164    0.5968    0.4869 N.am    1  UNL1       -0.3240
      2 C          -1.5378   -0.3684    0.8660 C.2     1  UNL1        0.2614
      3 O          -1.7866   -1.2808    1.6868 O.2     1  UNL1       -0.2687
      4 C          -0.2343   -0.2211    0.2359 C.ar    1  UNL1        0.1431
      5 N           0.1020    0.7489   -0.6649 N.ar    1  UNL1       -0.2473
      6 C           1.3383    0.8012   -1.1933 C.ar    1  UNL1        0.0465
      7 C           2.3187   -0.1016   -0.8643 C.ar    1  UNL1        0.0457
      8 N           2.0043   -1.0773    0.0325 N.ar    1  UNL1       -0.2595
      9 C           0.7621   -1.1131    0.5501 C.ar    1  UNL1        0.0580
     10 H          -2.2664    1.5245    0.9422 H       1  UNL1        0.1453
     11 H          -3.3930    0.6616   -0.0968 H       1  UNL1        0.1453
     12 H           1.4050    1.6394   -1.8836 H       1  UNL1        0.0845
     13 H           3.2436    0.0963   -1.3853 H       1  UNL1        0.0845
     14 H           0.5604   -1.9064    1.2579 H       1  UNL1        0.0853
@<TRIPOS>BOND
     1     1     2   am
     2     2     3    2
     3     2     4    1
     4     4     5   ar
     5     5     6   ar
     6     6     7   ar
     7     7     8   ar
     8     8     9   ar
     9     9     4   ar
    10     1    10    1
    11     1    11    1
    12     6    12    1
    13     7    13    1
    14     9    14    1
