@<TRIPOS>MOLECULE
*****
 54 58 0 0 0
SMALL
GASTEIGER

@<TRIPOS>ATOM
      1 C          -7.9022    0.6221    0.1021 C.3     1  UNL1        0.0833
      2 O          -6.4922    0.7144    0.0791 O.3     1  UNL1       -0.4535
      3 C          -5.7767   -0.2047    0.8387 C.2     1  UNL1        0.4033
      4 O          -6.4032   -1.0650    1.5029 O.2     1  UNL1       -0.2262
      5 N          -4.3578   -0.1997    0.8857 N.am    1  UNL1       -0.2557
      6 C          -3.7719    0.8572    0.0630 C.3     1  UNL1        0.0453
      7 C          -2.6103    0.3296   -0.7355 C.ar    1  UNL1       -0.0047
      8 C          -2.6161    0.6186   -2.0567 C.ar    1  UNL1       -0.0367
      9 C          -1.5894    0.1236   -2.8724 C.ar    1  UNL1        0.0414
     10 CL         -1.5868    0.4935   -4.5838 Cl      1  UNL1       -0.0835
     11 C          -0.5732   -0.6600   -2.3275 C.ar    1  UNL1       -0.0414
     12 C          -0.5642   -0.9577   -0.9795 C.ar    1  UNL1       -0.0361
     13 C          -1.5838   -0.4491   -0.2286 C.ar    1  UNL1        0.0542
     14 N          -1.4059   -0.8227    1.1457 N.ar    1  UNL1       -0.2812
     15 C          -2.4144   -1.1882    1.9914 C.ar    1  UNL1        0.1555
     16 N          -1.8422   -1.4615    3.1468 N.ar    1  UNL1       -0.1323
     17 N          -0.5398   -1.2730    3.0289 N.ar    1  UNL1       -0.1337
     18 C          -0.2181   -0.8542    1.7395 C.ar    1  UNL1        0.1412
     19 C           1.0935   -0.4890    1.2228 C.3     1  UNL1        0.0223
     20 C           2.1631   -1.5354    1.1268 C.3     1  UNL1       -0.0274
     21 C           3.5186   -0.8084    1.2390 C.3     1  UNL1        0.0141
     22 N           3.5888    0.0992    0.1196 N.pl3   1  UNL1       -0.3151
     23 C           4.8722    0.5408   -0.3073 C.ar    1  UNL1        0.1212
     24 C           6.0394    0.1739    0.3257 C.ar    1  UNL1       -0.0217
     25 C           7.2934    0.6182   -0.1112 C.ar    1  UNL1       -0.0571
     26 C           7.3858    1.4488   -1.2059 C.ar    1  UNL1       -0.0435
     27 C           6.2040    1.8008   -1.8208 C.ar    1  UNL1        0.0297
     28 N           5.0097    1.3630   -1.3852 N.ar    1  UNL1       -0.2403
     29 C           2.4120    0.5803   -0.5838 C.3     1  UNL1        0.0141
     30 C           1.3146    0.7760    0.4808 C.3     1  UNL1       -0.0274
     31 C          -3.8373   -1.2376    1.7337 C.3     1  UNL1        0.0784
     32 H          -8.3781    1.6229    0.0579 H       1  UNL1        0.0661
     33 H          -8.2310    0.1440    1.0448 H       1  UNL1        0.0661
     34 H          -8.2824   -0.0470   -0.7230 H       1  UNL1        0.0661
     35 H          -4.4978    1.2153   -0.6771 H       1  UNL1        0.0516
     36 H          -3.4749    1.7340    0.6752 H       1  UNL1        0.0516
     37 H          -3.4152    1.2274   -2.4575 H       1  UNL1        0.0636
     38 H           0.2254   -1.0517   -2.9343 H       1  UNL1        0.0633
     39 H           0.1581   -1.5841   -0.5782 H       1  UNL1        0.0639
     40 H           1.5271   -0.1121    2.2549 H       1  UNL1        0.0381
     41 H           2.0305   -2.2438    1.9678 H       1  UNL1        0.0287
     42 H           2.2760   -2.1104    0.2315 H       1  UNL1        0.0287
     43 H           4.3219   -1.5875    1.2165 H       1  UNL1        0.0464
     44 H           3.5296   -0.3057    2.2164 H       1  UNL1        0.0464
     45 H           6.0148   -0.4792    1.1946 H       1  UNL1        0.0652
     46 H           8.1937    0.3263    0.3889 H       1  UNL1        0.0619
     47 H           8.3194    1.8272   -1.5945 H       1  UNL1        0.0633
     48 H           6.2875    2.4643   -2.6941 H       1  UNL1        0.0830
     49 H           2.6812    1.5708   -1.0075 H       1  UNL1        0.0464
     50 H           2.1158   -0.0537   -1.4085 H       1  UNL1        0.0464
     51 H           1.8396    1.6012    1.0869 H       1  UNL1        0.0287
     52 H           0.4645    1.3501    0.1332 H       1  UNL1        0.0287
     53 H          -4.1232   -2.2141    1.2418 H       1  UNL1        0.0546
     54 H          -4.3921   -1.2481    2.7025 H       1  UNL1        0.0546
@<TRIPOS>BOND
     1     1     2    1
     2     2     3    1
     3     3     4    2
     4     3     5   am
     5     5     6    1
     6     6     7    1
     7     7     8   ar
     8     8     9   ar
     9     9    10    1
    10     9    11   ar
    11    11    12   ar
    12    12    13   ar
    13    13    14    1
    14    14    15   ar
    15    15    16   ar
    16    16    17   ar
    17    17    18   ar
    18    18    19    1
    19    19    20    1
    20    20    21    1
    21    21    22    1
    22    22    23    1
    23    23    24   ar
    24    24    25   ar
    25    25    26   ar
    26    26    27   ar
    27    27    28   ar
    28    22    29    1
    29    29    30    1
    30    15    31    1
    31    31     5    1
    32    13     7   ar
    33    18    14   ar
    34    30    19    1
    35    28    23   ar
    36     1    32    1
    37     1    33    1
    38     1    34    1
    39     6    35    1
    40     6    36    1
    41     8    37    1
    42    11    38    1
    43    12    39    1
    44    19    40    1
    45    20    41    1
    46    20    42    1
    47    21    43    1
    48    21    44    1
    49    24    45    1
    50    25    46    1
    51    26    47    1
    52    27    48    1
    53    29    49    1
    54    29    50    1
    55    30    51    1
    56    30    52    1
    57    31    53    1
    58    31    54    1
