
     RDKit          3D

 25 25  0  0  0  0  0  0  0  0999 V2000
   -2.2345   -0.1642    0.9349 C   0  0  2  0  0  0  0  0  0  0  0  0
   -2.9756    0.4181    1.9519 O   0  0  0  0  0  0  0  0  0  0  0  0
   -0.8710   -0.2677    1.2760 O   0  0  0  0  0  0  0  0  0  0  0  0
   -0.3585   -0.7548    0.0714 C   0  0  2  0  0  0  0  0  0  0  0  0
    1.1498   -0.6159   -0.0179 C   0  0  0  0  0  0  0  0  0  0  0  0
    1.5224    0.7156    0.0814 O   0  0  0  0  0  0  0  0  0  0  0  0
    3.2234    0.8086   -0.0251 P   0  0  0  0  0  0  0  0  0  0  0  0
    3.9077   -0.6440    0.5112 O   0  0  0  0  0  0  0  0  0  0  0  0
    3.7318    2.1215    0.9152 O   0  0  0  0  0  0  0  0  0  0  0  0
    3.6113    1.0093   -1.4810 O   0  0  0  0  0  0  0  0  0  0  0  0
   -1.0216    0.0097   -1.0408 C   0  0  1  0  0  0  0  0  0  0  0  0
   -1.5816   -0.9008   -1.9454 O   0  0  0  0  0  0  0  0  0  0  0  0
   -2.1308    0.7309   -0.2821 C   0  0  1  0  0  0  0  0  0  0  0  0
   -3.2990    0.7937   -1.0252 O   0  0  0  0  0  0  0  0  0  0  0  0
   -2.5683   -1.1552    0.6343 H   0  0  0  0  0  0  0  0  0  0  0  0
   -3.8662   -0.0181    1.9483 H   0  0  0  0  0  0  0  0  0  0  0  0
   -0.6514   -1.8244    0.0423 H   0  0  0  0  0  0  0  0  0  0  0  0
    1.6661   -1.2784    0.7007 H   0  0  0  0  0  0  0  0  0  0  0  0
    1.4127   -0.9671   -1.0451 H   0  0  0  0  0  0  0  0  0  0  0  0
    4.0988   -1.2583   -0.2567 H   0  0  0  0  0  0  0  0  0  0  0  0
    4.3744    2.7001    0.3995 H   0  0  0  0  0  0  0  0  0  0  0  0
   -0.3446    0.7391   -1.5305 H   0  0  0  0  0  0  0  0  0  0  0  0
   -1.3489   -1.8431   -1.7377 H   0  0  0  0  0  0  0  0  0  0  0  0
   -1.7630    1.7237   -0.0338 H   0  0  0  0  0  0  0  0  0  0  0  0
   -3.6834   -0.0781   -1.2073 H   0  0  0  0  0  0  0  0  0  0  0  0
  1  2  1  0
  1  3  1  0
  3  4  1  0
  4  5  1  0
  5  6  1  0
  6  7  1  0
  7  8  1  0
  7  9  1  0
  7 10  2  0
  4 11  1  0
 11 12  1  0
 11 13  1  0
 13 14  1  0
 13  1  1  0
  1 15  1  6
  2 16  1  0
  4 17  1  6
  5 18  1  0
  5 19  1  0
  8 20  1  0
  9 21  1  0
 11 22  1  6
 12 23  1  0
 13 24  1  1
 14 25  1  0
M  END
$$$$
