@<TRIPOS>MOLECULE
*****
 25 25 0 0 0
SMALL
GASTEIGER

@<TRIPOS>ATOM
      1 C          -2.2345   -0.1642    0.9349 C.3     1  UNL1        0.1854
      2 O          -2.9756    0.4181    1.9519 O.3     1  UNL1       -0.3649
      3 O          -0.8710   -0.2677    1.2760 O.3     1  UNL1       -0.3407
      4 C          -0.3585   -0.7548    0.0714 C.3     1  UNL1        0.1139
      5 C           1.1498   -0.6159   -0.0179 C.3     1  UNL1        0.0879
      6 O           1.5224    0.7156    0.0814 O.3     1  UNL1       -0.2841
      7 P           3.2234    0.8086   -0.0251 P.3     1  UNL1        0.4724
      8 O           3.9077   -0.6440    0.5112 O.3     1  UNL1       -0.3026
      9 O           3.7318    2.1215    0.9152 O.3     1  UNL1       -0.3026
     10 O           3.6113    1.0093   -1.4810 O.2     1  UNL1       -0.2275
     11 C          -1.0216    0.0097   -1.0408 C.3     1  UNL1        0.1141
     12 O          -1.5816   -0.9008   -1.9454 O.3     1  UNL1       -0.3864
     13 C          -2.1308    0.7309   -0.2821 C.3     1  UNL1        0.1339
     14 O          -3.2990    0.7937   -1.0252 O.3     1  UNL1       -0.3841
     15 H          -2.5683   -1.1552    0.6343 H       1  UNL1        0.0935
     16 H          -3.8662   -0.0181    1.9483 H       1  UNL1        0.2126
     17 H          -0.6514   -1.8244    0.0423 H       1  UNL1        0.0647
     18 H           1.6661   -1.2784    0.7007 H       1  UNL1        0.0592
     19 H           1.4127   -0.9671   -1.0451 H       1  UNL1        0.0592
     20 H           4.0988   -1.2583   -0.2567 H       1  UNL1        0.2220
     21 H           4.3744    2.7001    0.3995 H       1  UNL1        0.2220
     22 H          -0.3446    0.7391   -1.5305 H       1  UNL1        0.0648
     23 H          -1.3489   -1.8431   -1.7377 H       1  UNL1        0.2100
     24 H          -1.7630    1.7237   -0.0338 H       1  UNL1        0.0671
     25 H          -3.6834   -0.0781   -1.2073 H       1  UNL1        0.2101
@<TRIPOS>BOND
     1     1     2    1
     2     1     3    1
     3     3     4    1
     4     4     5    1
     5     5     6    1
     6     6     7    1
     7     7     8    1
     8     7     9    1
     9     7    10    2
    10     4    11    1
    11    11    12    1
    12    11    13    1
    13    13    14    1
    14    13     1    1
    15     1    15    1
    16     2    16    1
    17     4    17    1
    18     5    18    1
    19     5    19    1
    20     8    20    1
    21     9    21    1
    22    11    22    1
    23    12    23    1
    24    13    24    1
    25    14    25    1
