@<TRIPOS>MOLECULE
*****
 63 68 0 0 0
SMALL
GASTEIGER

@<TRIPOS>ATOM
      1 C         -12.7324   -0.0667   -0.2268 C.3     1  UNL1       -0.0224
      2 C         -11.2641   -0.2888   -0.1615 C.ar    1  UNL1        0.0382
      3 C         -10.4516    0.7729    0.1398 C.ar    1  UNL1       -0.0400
      4 C          -9.0767    0.6016    0.2094 C.ar    1  UNL1       -0.0478
      5 C          -8.5072   -0.6301   -0.0214 C.ar    1  UNL1        0.0390
      6 C          -7.0749   -0.8662    0.0395 C.ar    1  UNL1        0.1831
      7 N          -6.4294   -2.0430   -0.0009 N.ar    1  UNL1       -0.2143
      8 C          -5.0859   -1.8273    0.0872 C.ar    1  UNL1        0.1205
      9 N          -4.9020   -0.4786    0.1843 N.ar    1  UNL1       -0.2197
     10 C          -3.6557    0.2138    0.3034 C.ar    1  UNL1        0.0672
     11 C          -3.5313    1.2227    1.2289 C.ar    1  UNL1       -0.0345
     12 C          -2.3342    1.8907    1.3363 C.ar    1  UNL1       -0.0385
     13 C          -1.2334    1.5875    0.5430 C.ar    1  UNL1        0.0337
     14 N          -0.0567    2.3452    0.7228 N.pl3   1  UNL1       -0.2836
     15 C           1.1329    2.0025    0.0355 C.ar    1  UNL1        0.2200
     16 N           1.3124    2.4226   -1.2296 N.ar    1  UNL1       -0.2226
     17 C           2.4333    2.1432   -1.9117 C.ar    1  UNL1        0.0332
     18 C           3.4584    1.3999   -1.3199 C.ar    1  UNL1       -0.0174
     19 C           3.2766    0.9721   -0.0318 C.ar    1  UNL1        0.0761
     20 C           4.3006    0.1902    0.7012 C.ar    1  UNL1        0.0023
     21 C           4.0483   -0.1979    2.0077 C.ar    1  UNL1       -0.0524
     22 C           4.9766   -0.9050    2.7097 C.ar    1  UNL1       -0.0594
     23 C           6.1703   -1.2318    2.1119 C.ar    1  UNL1       -0.0406
     24 C           6.4896   -0.8767    0.8125 C.ar    1  UNL1        0.0304
     25 N           7.7132   -1.1825    0.2019 N.pl3   1  UNL1       -0.3255
     26 C           8.8743   -1.5174    0.9810 C.3     1  UNL1        0.0357
     27 C           9.9217   -0.4580    0.5899 C.3     1  UNL1        0.0634
     28 O          10.1614   -0.5913   -0.7508 O.3     1  UNL1       -0.3767
     29 C           9.0769   -0.2972   -1.5747 C.3     1  UNL1        0.0634
     30 C           7.9006   -1.1938   -1.2282 C.3     1  UNL1        0.0357
     31 C           5.4882   -0.1507    0.1473 C.ar    1  UNL1       -0.0315
     32 N           2.1183    1.2927    0.5903 N.ar    1  UNL1       -0.2142
     33 C          -1.3695    0.5800   -0.3748 C.ar    1  UNL1       -0.0385
     34 C          -2.5815   -0.1061   -0.4943 C.ar    1  UNL1       -0.0345
     35 N          -6.0917    0.0480    0.1526 N.ar    1  UNL1       -0.1448
     36 C          -9.3500   -1.6610   -0.3181 C.ar    1  UNL1        0.0386
     37 N         -10.7108   -1.4974   -0.3882 N.ar    1  UNL1       -0.2595
     38 H         -12.9937    0.9408    0.1540 H       1  UNL1        0.0292
     39 H         -13.1535   -0.2723   -1.2224 H       1  UNL1        0.0292
     40 H         -13.2297   -0.7966    0.4641 H       1  UNL1        0.0292
     41 H         -10.8309    1.7663    0.3325 H       1  UNL1        0.0636
     42 H          -8.4194    1.4267    0.4444 H       1  UNL1        0.0626
     43 H          -4.2926   -2.5498    0.0843 H       1  UNL1        0.1048
     44 H          -4.3376    1.5126    1.8767 H       1  UNL1        0.0639
     45 H          -2.2093    2.6957    2.0662 H       1  UNL1        0.0637
     46 H          -0.0199    3.1682    1.3567 H       1  UNL1        0.1550
     47 H           2.6000    2.4738   -2.9401 H       1  UNL1        0.0831
     48 H           4.3621    1.1717   -1.8595 H       1  UNL1        0.0654
     49 H           3.0819    0.0972    2.4203 H       1  UNL1        0.0624
     50 H           4.7760   -1.2023    3.7173 H       1  UNL1        0.0618
     51 H           6.8947   -1.8044    2.6921 H       1  UNL1        0.0636
     52 H           8.7425   -1.5675    2.0544 H       1  UNL1        0.0486
     53 H           9.3000   -2.4723    0.5558 H       1  UNL1        0.0486
     54 H          10.8523   -0.6278    1.1279 H       1  UNL1        0.0575
     55 H           9.4424    0.5247    0.8532 H       1  UNL1        0.0575
     56 H           9.3866   -0.5602   -2.6063 H       1  UNL1        0.0575
     57 H           8.8257    0.7616   -1.5512 H       1  UNL1        0.0575
     58 H           8.2369   -2.2314   -1.5291 H       1  UNL1        0.0486
     59 H           7.0353   -0.9669   -1.8326 H       1  UNL1        0.0486
     60 H           5.7054    0.1375   -0.8488 H       1  UNL1        0.0643
     61 H          -0.5333    0.3213   -1.0049 H       1  UNL1        0.0637
     62 H          -2.6233   -0.8792   -1.2300 H       1  UNL1        0.0639
     63 H          -9.0135   -2.6853   -0.5215 H       1  UNL1        0.0837
@<TRIPOS>BOND
     1     1     2    1
     2     2     3   ar
     3     3     4   ar
     4     4     5   ar
     5     5     6    1
     6     6     7   ar
     7     7     8   ar
     8     8     9   ar
     9     9    10    1
    10    10    11   ar
    11    11    12   ar
    12    12    13   ar
    13    13    14    1
    14    14    15    1
    15    15    16   ar
    16    16    17   ar
    17    17    18   ar
    18    18    19   ar
    19    19    20    1
    20    20    21   ar
    21    21    22   ar
    22    22    23   ar
    23    23    24   ar
    24    24    25    1
    25    25    26    1
    26    26    27    1
    27    27    28    1
    28    28    29    1
    29    29    30    1
    30    24    31   ar
    31    19    32   ar
    32    13    33   ar
    33    33    34   ar
    34     9    35   ar
    35     5    36   ar
    36    36    37   ar
    37    37     2   ar
    38    35     6   ar
    39    34    10   ar
    40    32    15   ar
    41    31    20   ar
    42    30    25    1
    43     1    38    1
    44     1    39    1
    45     1    40    1
    46     3    41    1
    47     4    42    1
    48     8    43    1
    49    11    44    1
    50    12    45    1
    51    14    46    1
    52    17    47    1
    53    18    48    1
    54    21    49    1
    55    22    50    1
    56    23    51    1
    57    26    52    1
    58    26    53    1
    59    27    54    1
    60    27    55    1
    61    29    56    1
    62    29    57    1
    63    30    58    1
    64    30    59    1
    65    31    60    1
    66    33    61    1
    67    34    62    1
    68    36    63    1
