
     RDKit          3D

 82 86  0  0  0  0  0  0  0  0999 V2000
   -0.0978   -5.7846   -1.0886 C   0  0  0  0  0  0  0  0  0  0  0  0
   -1.3873   -5.3642   -1.7140 C   0  0  0  0  0  0  0  0  0  0  0  0
   -2.1030   -4.3874   -0.8267 N   0  0  0  0  0  0  0  0  0  0  0  0
   -3.3112   -4.0656   -1.5132 C   0  0  0  0  0  0  0  0  0  0  0  0
   -4.2953   -3.2188   -0.7677 C   0  0  0  0  0  0  0  0  0  0  0  0
   -1.1425   -3.3313   -0.6806 C   0  0  0  0  0  0  0  0  0  0  0  0
   -1.5573   -2.2067    0.1743 C   0  0  0  0  0  0  0  0  0  0  0  0
   -0.4461   -1.2137    0.2549 N   0  0  0  0  0  0  0  0  0  0  0  0
   -0.4929   -0.2053   -0.7604 C   0  0  0  0  0  0  0  0  0  0  0  0
   -1.6111    0.7668   -0.6134 C   0  0  0  0  0  0  0  0  0  0  0  0
   -2.7688    0.5133   -1.3355 C   0  0  0  0  0  0  0  0  0  0  0  0
   -3.8417    1.3414   -1.2418 C   0  0  0  0  0  0  0  0  0  0  0  0
   -3.8074    2.4577   -0.4258 C   0  0  0  0  0  0  0  0  0  0  0  0
   -4.9896    3.2937   -0.3715 C   0  0  0  0  0  0  0  0  0  0  0  0
   -4.8912    4.6458   -0.1559 C   0  0  0  0  0  0  0  0  0  0  0  0
   -6.0207    5.4612   -0.0994 C   0  0  0  0  0  0  0  0  0  0  0  0
   -7.2511    4.8533   -0.2696 C   0  0  0  0  0  0  0  0  0  0  0  0
   -8.6684    5.8922   -0.1959 Cl  0  0  0  0  0  0  0  0  0  0  0  0
   -7.3758    3.5097   -0.4854 C   0  0  0  0  0  0  0  0  0  0  0  0
   -6.2234    2.7159   -0.5373 C   0  0  0  0  0  0  0  0  0  0  0  0
   -2.6713    2.7008    0.2769 C   0  0  0  0  0  0  0  0  0  0  0  0
   -1.5732    1.8697    0.1929 C   0  0  0  0  0  0  0  0  0  0  0  0
    0.4887   -1.3101    1.2718 C   0  0  0  0  0  0  0  0  0  0  0  0
    0.1826   -2.3129    2.1146 O   0  0  0  0  0  0  0  0  0  0  0  0
    1.6890   -0.6627    1.6871 C   0  0  0  0  0  0  0  0  0  0  0  0
    2.2489    0.4714    1.0762 N   0  0  0  0  0  0  0  0  0  0  0  0
    3.0505    0.2742   -0.0125 C   0  0  0  0  0  0  0  0  0  0  0  0
    3.3670   -1.3640   -0.6790 S   0  0  0  0  0  0  0  0  0  0  0  0
    4.8561   -2.0045    0.1219 C   0  0  0  0  0  0  0  0  0  0  0  0
    6.0698   -1.2389   -0.2537 C   0  0  0  0  0  0  0  0  0  0  0  0
    6.4599   -0.1457    0.4856 C   0  0  0  0  0  0  0  0  0  0  0  0
    7.5903    0.5604    0.1330 C   0  0  0  0  0  0  0  0  0  0  0  0
    8.3399    0.1814   -0.9592 C   0  0  0  0  0  0  0  0  0  0  0  0
    9.4647    0.8931   -1.2996 F   0  0  0  0  0  0  0  0  0  0  0  0
    7.9766   -0.9084   -1.7203 C   0  0  0  0  0  0  0  0  0  0  0  0
    6.8402   -1.5920   -1.3395 C   0  0  0  0  0  0  0  0  0  0  0  0
    3.6456    1.3140   -0.6126 N   0  0  0  0  0  0  0  0  0  0  0  0
    3.4768    2.5603   -0.1706 C   0  0  0  0  0  0  0  0  0  0  0  0
    4.0184    3.5512   -0.7100 O   0  0  0  0  0  0  0  0  0  0  0  0
    2.6681    2.8091    0.9391 C   0  0  0  0  0  0  0  0  0  0  0  0
    2.0669    1.7421    1.5430 C   0  0  0  0  0  0  0  0  0  0  0  0
    1.2987    2.2008    2.7276 C   0  0  0  0  0  0  0  0  0  0  0  0
    1.1093    3.6780    2.4500 C   0  0  0  0  0  0  0  0  0  0  0  0
    2.3040    4.0668    1.6504 C   0  0  0  0  0  0  0  0  0  0  0  0
    0.0894   -6.8492   -1.4187 H   0  0  0  0  0  0  0  0  0  0  0  0
   -0.1136   -5.8277    0.0089 H   0  0  0  0  0  0  0  0  0  0  0  0
    0.7742   -5.2109   -1.4949 H   0  0  0  0  0  0  0  0  0  0  0  0
   -2.0351   -6.2215   -1.9219 H   0  0  0  0  0  0  0  0  0  0  0  0
   -1.1538   -4.7709   -2.6227 H   0  0  0  0  0  0  0  0  0  0  0  0
   -3.1196   -3.6641   -2.5497 H   0  0  0  0  0  0  0  0  0  0  0  0
   -3.8173   -5.0566   -1.7282 H   0  0  0  0  0  0  0  0  0  0  0  0
   -4.1059   -3.1884    0.3234 H   0  0  0  0  0  0  0  0  0  0  0  0
   -5.3399   -3.6825   -0.8292 H   0  0  0  0  0  0  0  0  0  0  0  0
   -4.4580   -2.2073   -1.2171 H   0  0  0  0  0  0  0  0  0  0  0  0
   -0.8870   -2.9390   -1.7096 H   0  0  0  0  0  0  0  0  0  0  0  0
   -0.1958   -3.8252   -0.3562 H   0  0  0  0  0  0  0  0  0  0  0  0
   -2.4117   -1.6780   -0.2265 H   0  0  0  0  0  0  0  0  0  0  0  0
   -1.7437   -2.5104    1.2272 H   0  0  0  0  0  0  0  0  0  0  0  0
   -0.6656   -0.7713   -1.7376 H   0  0  0  0  0  0  0  0  0  0  0  0
    0.4633    0.3133   -0.9478 H   0  0  0  0  0  0  0  0  0  0  0  0
   -2.8780   -0.3342   -2.0201 H   0  0  0  0  0  0  0  0  0  0  0  0
   -4.7496    1.1387   -1.8114 H   0  0  0  0  0  0  0  0  0  0  0  0
   -3.9254    5.0906   -0.0273 H   0  0  0  0  0  0  0  0  0  0  0  0
   -5.9595    6.5267    0.0694 H   0  0  0  0  0  0  0  0  0  0  0  0
   -8.3458    3.0555   -0.6155 H   0  0  0  0  0  0  0  0  0  0  0  0
   -6.3771    1.6666   -0.7089 H   0  0  0  0  0  0  0  0  0  0  0  0
   -2.6138    3.5666    0.9244 H   0  0  0  0  0  0  0  0  0  0  0  0
   -0.6660    2.0501    0.7322 H   0  0  0  0  0  0  0  0  0  0  0  0
    1.6803   -0.4353    2.8221 H   0  0  0  0  0  0  0  0  0  0  0  0
    2.5088   -1.4746    1.6836 H   0  0  0  0  0  0  0  0  0  0  0  0
    4.7393   -1.9922    1.2130 H   0  0  0  0  0  0  0  0  0  0  0  0
    5.0099   -3.0613   -0.1879 H   0  0  0  0  0  0  0  0  0  0  0  0
    5.9154    0.1979    1.3484 H   0  0  0  0  0  0  0  0  0  0  0  0
    7.9251    1.4323    0.6996 H   0  0  0  0  0  0  0  0  0  0  0  0
    8.5763   -1.1904   -2.5713 H   0  0  0  0  0  0  0  0  0  0  0  0
    6.5464   -2.4482   -1.9304 H   0  0  0  0  0  0  0  0  0  0  0  0
    0.3198    1.7560    2.8570 H   0  0  0  0  0  0  0  0  0  0  0  0
    1.9448    2.1439    3.6317 H   0  0  0  0  0  0  0  0  0  0  0  0
    0.1571    3.9218    1.9657 H   0  0  0  0  0  0  0  0  0  0  0  0
    1.0888    4.2424    3.4286 H   0  0  0  0  0  0  0  0  0  0  0  0
    3.1241    4.3916    2.3250 H   0  0  0  0  0  0  0  0  0  0  0  0
    2.0142    4.8377    0.9100 H   0  0  0  0  0  0  0  0  0  0  0  0
  1  2  1  0
  2  3  1  0
  3  4  1  0
  4  5  1  0
  3  6  1  0
  6  7  1  0
  7  8  1  0
  8  9  1  0
  9 10  1  0
 10 11  2  0
 11 12  1  0
 12 13  2  0
 13 14  1  0
 14 15  2  0
 15 16  1  0
 16 17  2  0
 17 18  1  0
 17 19  1  0
 19 20  2  0
 13 21  1  0
 21 22  2  0
  8 23  1  0
 23 24  2  0
 23 25  1  0
 25 26  1  0
 26 27  1  0
 27 28  1  0
 28 29  1  0
 29 30  1  0
 30 31  2  0
 31 32  1  0
 32 33  2  0
 33 34  1  0
 33 35  1  0
 35 36  2  0
 27 37  2  0
 37 38  1  0
 38 39  2  0
 38 40  1  0
 40 41  2  0
 41 42  1  0
 42 43  1  0
 43 44  1  0
 22 10  1  0
 41 26  1  0
 20 14  1  0
 36 30  1  0
 44 40  1  0
  1 45  1  0
  1 46  1  0
  1 47  1  0
  2 48  1  0
  2 49  1  0
  4 50  1  0
  4 51  1  0
  5 52  1  0
  5 53  1  0
  5 54  1  0
  6 55  1  0
  6 56  1  0
  7 57  1  0
  7 58  1  0
  9 59  1  0
  9 60  1  0
 11 61  1  0
 12 62  1  0
 15 63  1  0
 16 64  1  0
 19 65  1  0
 20 66  1  0
 21 67  1  0
 22 68  1  0
 25 69  1  0
 25 70  1  0
 29 71  1  0
 29 72  1  0
 31 73  1  0
 32 74  1  0
 35 75  1  0
 36 76  1  0
 42 77  1  0
 42 78  1  0
 43 79  1  0
 43 80  1  0
 44 81  1  0
 44 82  1  0
M  END
$$$$
