@<TRIPOS>MOLECULE
*****
 82 86 0 0 0
SMALL
GASTEIGER

@<TRIPOS>ATOM
      1 C          -0.0978   -5.7846   -1.0886 C.3     1  UNL1       -0.0524
      2 C          -1.3873   -5.3642   -1.7140 C.3     1  UNL1       -0.0039
      3 N          -2.1030   -4.3874   -0.8267 N.3     1  UNL1       -0.3014
      4 C          -3.3112   -4.0656   -1.5132 C.3     1  UNL1       -0.0039
      5 C          -4.2953   -3.2188   -0.7677 C.3     1  UNL1       -0.0524
      6 C          -1.1425   -3.3313   -0.6806 C.3     1  UNL1        0.0147
      7 C          -1.5573   -2.2067    0.1743 C.3     1  UNL1        0.0278
      8 N          -0.4461   -1.2137    0.2549 N.am    1  UNL1       -0.2945
      9 C          -0.4929   -0.2053   -0.7604 C.3     1  UNL1        0.0398
     10 C          -1.6111    0.7668   -0.6134 C.ar    1  UNL1       -0.0301
     11 C          -2.7688    0.5133   -1.3355 C.ar    1  UNL1       -0.0565
     12 C          -3.8417    1.3414   -1.2418 C.ar    1  UNL1       -0.0537
     13 C          -3.8074    2.4577   -0.4258 C.ar    1  UNL1       -0.0179
     14 C          -4.9896    3.2937   -0.3715 C.ar    1  UNL1       -0.0178
     15 C          -4.8912    4.6458   -0.1559 C.ar    1  UNL1       -0.0527
     16 C          -6.0207    5.4612   -0.0994 C.ar    1  UNL1       -0.0428
     17 C          -7.2511    4.8533   -0.2696 C.ar    1  UNL1        0.0410
     18 CL         -8.6684    5.8922   -0.1959 Cl      1  UNL1       -0.0835
     19 C          -7.3758    3.5097   -0.4854 C.ar    1  UNL1       -0.0428
     20 C          -6.2234    2.7159   -0.5373 C.ar    1  UNL1       -0.0527
     21 C          -2.6713    2.7008    0.2769 C.ar    1  UNL1       -0.0537
     22 C          -1.5732    1.8697    0.1929 C.ar    1  UNL1       -0.0565
     23 C           0.4887   -1.3101    1.2718 C.2     1  UNL1        0.2357
     24 O           0.1826   -2.3129    2.1146 O.2     1  UNL1       -0.2736
     25 C           1.6890   -0.6627    1.6871 C.3     1  UNL1        0.1017
     26 N           2.2489    0.4714    1.0762 N.ar    1  UNL1       -0.3148
     27 C           3.0505    0.2742   -0.0125 C.ar    1  UNL1        0.1735
     28 S           3.3670   -1.3640   -0.6790 S.3     1  UNL1       -0.0829
     29 C           4.8561   -2.0045    0.1219 C.3     1  UNL1        0.0262
     30 C           6.0698   -1.2389   -0.2537 C.ar    1  UNL1       -0.0370
     31 C           6.4599   -0.1457    0.4856 C.ar    1  UNL1       -0.0551
     32 C           7.5903    0.5604    0.1330 C.ar    1  UNL1       -0.0262
     33 C           8.3399    0.1814   -0.9592 C.ar    1  UNL1        0.1234
     34 F           9.4647    0.8931   -1.2996 F       1  UNL1       -0.2055
     35 C           7.9766   -0.9084   -1.7203 C.ar    1  UNL1       -0.0262
     36 C           6.8402   -1.5920   -1.3395 C.ar    1  UNL1       -0.0551
     37 N           3.6456    1.3140   -0.6126 N.ar    1  UNL1       -0.1848
     38 C           3.4768    2.5603   -0.1706 C.ar    1  UNL1        0.2773
     39 O           4.0184    3.5512   -0.7100 O.2     1  UNL1       -0.2655
     40 C           2.6681    2.8091    0.9391 C.ar    1  UNL1        0.0382
     41 C           2.0669    1.7421    1.5430 C.ar    1  UNL1        0.0299
     42 C           1.2987    2.2008    2.7276 C.3     1  UNL1       -0.0115
     43 C           1.1093    3.6780    2.4500 C.3     1  UNL1       -0.0435
     44 C           2.3040    4.0668    1.6504 C.3     1  UNL1       -0.0205
     45 H           0.0894   -6.8492   -1.4187 H       1  UNL1        0.0242
     46 H          -0.1136   -5.8277    0.0089 H       1  UNL1        0.0242
     47 H           0.7742   -5.2109   -1.4949 H       1  UNL1        0.0242
     48 H          -2.0351   -6.2215   -1.9219 H       1  UNL1        0.0424
     49 H          -1.1538   -4.7709   -2.6227 H       1  UNL1        0.0424
     50 H          -3.1196   -3.6641   -2.5497 H       1  UNL1        0.0424
     51 H          -3.8173   -5.0566   -1.7282 H       1  UNL1        0.0424
     52 H          -4.1059   -3.1884    0.3234 H       1  UNL1        0.0242
     53 H          -5.3399   -3.6825   -0.8292 H       1  UNL1        0.0242
     54 H          -4.4580   -2.2073   -1.2171 H       1  UNL1        0.0242
     55 H          -0.8870   -2.9390   -1.7096 H       1  UNL1        0.0442
     56 H          -0.1958   -3.8252   -0.3562 H       1  UNL1        0.0442
     57 H          -2.4117   -1.6780   -0.2265 H       1  UNL1        0.0477
     58 H          -1.7437   -2.5104    1.2272 H       1  UNL1        0.0477
     59 H          -0.6656   -0.7713   -1.7376 H       1  UNL1        0.0514
     60 H           0.4633    0.3133   -0.9478 H       1  UNL1        0.0514
     61 H          -2.8780   -0.3342   -2.0201 H       1  UNL1        0.0621
     62 H          -4.7496    1.1387   -1.8114 H       1  UNL1        0.0624
     63 H          -3.9254    5.0906   -0.0273 H       1  UNL1        0.0624
     64 H          -5.9595    6.5267    0.0694 H       1  UNL1        0.0632
     65 H          -8.3458    3.0555   -0.6155 H       1  UNL1        0.0632
     66 H          -6.3771    1.6666   -0.7089 H       1  UNL1        0.0624
     67 H          -2.6138    3.5666    0.9244 H       1  UNL1        0.0624
     68 H          -0.6660    2.0501    0.7322 H       1  UNL1        0.0621
     69 H           1.6803   -0.4353    2.8221 H       1  UNL1        0.0588
     70 H           2.5088   -1.4746    1.6836 H       1  UNL1        0.0588
     71 H           4.7393   -1.9922    1.2130 H       1  UNL1        0.0429
     72 H           5.0099   -3.0613   -0.1879 H       1  UNL1        0.0429
     73 H           5.9154    0.1979    1.3484 H       1  UNL1        0.0621
     74 H           7.9251    1.4323    0.6996 H       1  UNL1        0.0646
     75 H           8.5763   -1.1904   -2.5713 H       1  UNL1        0.0646
     76 H           6.5464   -2.4482   -1.9304 H       1  UNL1        0.0621
     77 H           0.3198    1.7560    2.8570 H       1  UNL1        0.0328
     78 H           1.9448    2.1439    3.6317 H       1  UNL1        0.0328
     79 H           0.1571    3.9218    1.9657 H       1  UNL1        0.0272
     80 H           1.0888    4.2424    3.4286 H       1  UNL1        0.0272
     81 H           3.1241    4.3916    2.3250 H       1  UNL1        0.0315
     82 H           2.0142    4.8377    0.9100 H       1  UNL1        0.0315
@<TRIPOS>BOND
     1     1     2    1
     2     2     3    1
     3     3     4    1
     4     4     5    1
     5     3     6    1
     6     6     7    1
     7     7     8    1
     8     8     9    1
     9     9    10    1
    10    10    11   ar
    11    11    12   ar
    12    12    13   ar
    13    13    14    1
    14    14    15   ar
    15    15    16   ar
    16    16    17   ar
    17    17    18    1
    18    17    19   ar
    19    19    20   ar
    20    13    21   ar
    21    21    22   ar
    22     8    23   am
    23    23    24    2
    24    23    25    1
    25    25    26    1
    26    26    27   ar
    27    27    28    1
    28    28    29    1
    29    29    30    1
    30    30    31   ar
    31    31    32   ar
    32    32    33   ar
    33    33    34    1
    34    33    35   ar
    35    35    36   ar
    36    27    37   ar
    37    37    38   ar
    38    38    39    2
    39    38    40   ar
    40    40    41   ar
    41    41    42    1
    42    42    43    1
    43    43    44    1
    44    22    10   ar
    45    41    26   ar
    46    20    14   ar
    47    36    30   ar
    48    44    40    1
    49     1    45    1
    50     1    46    1
    51     1    47    1
    52     2    48    1
    53     2    49    1
    54     4    50    1
    55     4    51    1
    56     5    52    1
    57     5    53    1
    58     5    54    1
    59     6    55    1
    60     6    56    1
    61     7    57    1
    62     7    58    1
    63     9    59    1
    64     9    60    1
    65    11    61    1
    66    12    62    1
    67    15    63    1
    68    16    64    1
    69    19    65    1
    70    20    66    1
    71    21    67    1
    72    22    68    1
    73    25    69    1
    74    25    70    1
    75    29    71    1
    76    29    72    1
    77    31    73    1
    78    32    74    1
    79    35    75    1
    80    36    76    1
    81    42    77    1
    82    42    78    1
    83    43    79    1
    84    43    80    1
    85    44    81    1
    86    44    82    1
