@<TRIPOS>MOLECULE
*****
 61 66 0 0 0
SMALL
GASTEIGER

@<TRIPOS>ATOM
      1 C          -0.0173   -1.1849    0.8954 C.3     1  UNL1       -0.0351
      2 C           0.0488   -1.6854   -0.5505 C.3     1  UNL1        0.0935
      3 C          -1.3602   -1.5577   -1.0990 C.ar    1  UNL1        0.0158
      4 C          -2.3211   -0.8577   -0.4314 C.ar    1  UNL1       -0.0463
      5 C          -3.5838   -0.6948   -1.0174 C.ar    1  UNL1       -0.0217
      6 C          -4.5769    0.0904   -0.3573 C.2     1  UNL1       -0.0172
      7 C          -5.2321    0.1563    0.7054 C.2     1  UNL1        0.1492
      8 F          -5.0058   -0.8103    1.6651 F       1  UNL1       -0.2032
      9 C          -6.2585    1.2203    0.9170 C.ar    1  UNL1        0.0990
     10 C          -6.7617    1.5592    2.1363 C.ar    1  UNL1       -0.0322
     11 C          -7.7141    2.5978    2.2749 C.ar    1  UNL1       -0.0408
     12 C          -8.1472    3.2813    1.1596 C.ar    1  UNL1        0.0699
     13 C          -9.0276    4.3818    1.1469 C.1     1  UNL1        0.1007
     14 N          -9.7857    5.3294    1.1567 N.1     1  UNL1       -0.1908
     15 C          -7.5907    2.8732   -0.0773 C.ar    1  UNL1        0.0457
     16 N          -6.6972    1.8955   -0.1750 N.ar    1  UNL1       -0.2514
     17 C          -3.8076   -1.2405   -2.2429 C.ar    1  UNL1       -0.0518
     18 C          -2.8446   -1.9428   -2.9134 C.ar    1  UNL1       -0.0255
     19 C          -1.5861   -2.1291   -2.3673 C.ar    1  UNL1        0.1289
     20 F          -0.6521   -2.8397   -3.0298 F       1  UNL1       -0.2051
     21 N           0.3466   -3.0796   -0.5075 N.2     1  UNL1       -0.2521
     22 C           1.5177   -3.5449   -0.2810 C.2     1  UNL1        0.1485
     23 N           1.8408   -4.8930   -0.2343 N.pl3   1  UNL1       -0.3380
     24 S           2.8199   -2.3124   -0.0481 S.3     1  UNL1       -0.0746
     25 C           2.3757   -0.9446   -1.1476 C.3     1  UNL1        0.1054
     26 C           3.3619    0.1158   -1.3486 C.2     1  UNL1        0.2330
     27 O           3.5305    0.4628   -2.6143 O.2     1  UNL1       -0.2740
     28 N           4.1295    0.7989   -0.3877 N.am    1  UNL1       -0.2917
     29 C           4.1300    0.7074    1.0322 C.3     1  UNL1        0.0404
     30 C           5.5481    0.9196    1.4034 C.ar    1  UNL1       -0.0254
     31 C           6.2329    0.5999    2.5377 C.ar    1  UNL1       -0.0568
     32 C           7.6146    0.8506    2.6096 C.ar    1  UNL1       -0.0614
     33 C           8.2481    1.4046    1.5596 C.ar    1  UNL1       -0.0614
     34 C           7.5350    1.7472    0.3522 C.ar    1  UNL1       -0.0568
     35 C           6.1794    1.4990    0.2915 C.ar    1  UNL1       -0.0254
     36 C           5.1401    1.7800   -0.7366 C.3     1  UNL1        0.0404
     37 C           1.6757   -1.3933   -2.4894 C.3     1  UNL1       -0.0220
     38 C           0.9354   -0.8333   -1.3775 C.3     1  UNL1        0.0134
     39 H          -0.9058   -1.7259    1.3372 H       1  UNL1        0.0256
     40 H           0.9460   -1.5200    1.3420 H       1  UNL1        0.0256
     41 H          -0.1298   -0.0875    0.9663 H       1  UNL1        0.0256
     42 H          -2.1438   -0.4285    0.5319 H       1  UNL1        0.0628
     43 H          -4.8652    0.9856   -1.0991 H       1  UNL1        0.0653
     44 H          -6.4465    1.0452    3.0243 H       1  UNL1        0.0640
     45 H          -8.1084    2.8701    3.2333 H       1  UNL1        0.0631
     46 H          -7.9600    3.4181   -0.9631 H       1  UNL1        0.0843
     47 H          -4.7993   -1.1379   -2.7284 H       1  UNL1        0.0624
     48 H          -3.0328   -2.3735   -3.9111 H       1  UNL1        0.0646
     49 H           1.8762   -5.4017    0.6751 H       1  UNL1        0.1442
     50 H           2.0499   -5.3864   -1.1733 H       1  UNL1        0.1442
     51 H           3.5565    1.5953    1.4830 H       1  UNL1        0.0514
     52 H           3.7237   -0.2548    1.4363 H       1  UNL1        0.0514
     53 H           5.7924    0.1412    3.4410 H       1  UNL1        0.0621
     54 H           8.1735    0.5726    3.5365 H       1  UNL1        0.0618
     55 H           9.3182    1.6003    1.5989 H       1  UNL1        0.0618
     56 H           8.1313    2.1688   -0.4209 H       1  UNL1        0.0621
     57 H           4.7196    2.8171   -0.6173 H       1  UNL1        0.0514
     58 H           5.5237    1.6388   -1.7872 H       1  UNL1        0.0514
     59 H           1.8566   -0.6753   -3.3757 H       1  UNL1        0.0287
     60 H           1.9280   -2.4075   -2.7578 H       1  UNL1        0.0287
     61 H           0.5555    0.2190   -1.4952 H       1  UNL1        0.0346
@<TRIPOS>BOND
     1     2     1    1
     2     2     3    1
     3     3     4   ar
     4     4     5   ar
     5     5     6    1
     6     6     7    2
     7     7     8    1
     8     7     9    1
     9     9    10   ar
    10    10    11   ar
    11    11    12   ar
    12    12    13    1
    13    13    14    3
    14    12    15   ar
    15    15    16   ar
    16     5    17   ar
    17    17    18   ar
    18    18    19   ar
    19    19    20    1
    20     2    21    1
    21    21    22    2
    22    22    23    1
    23    22    24    1
    24    24    25    1
    25    25    26    1
    26    26    27    2
    27    26    28   am
    28    28    29    1
    29    29    30    1
    30    30    31   ar
    31    31    32   ar
    32    32    33   ar
    33    33    34   ar
    34    34    35   ar
    35    35    36    1
    36    25    37    1
    37    37    38    1
    38    38     2    1
    39    19     3   ar
    40    38    25    1
    41    16     9   ar
    42    36    28    1
    43    35    30   ar
    44     1    39    1
    45     1    40    1
    46     1    41    1
    47     4    42    1
    48     6    43    1
    49    10    44    1
    50    11    45    1
    51    15    46    1
    52    17    47    1
    53    18    48    1
    54    23    49    1
    55    23    50    1
    56    29    51    1
    57    29    52    1
    58    31    53    1
    59    32    54    1
    60    33    55    1
    61    34    56    1
    62    36    57    1
    63    36    58    1
    64    37    59    1
    65    37    60    1
    66    38    61    1
