
     RDKit          3D

 61 66  0  0  0  0  0  0  0  0999 V2000
   -0.0173   -1.1849    0.8954 C   0  0  0  0  0  0  0  0  0  0  0  0
    0.0488   -1.6854   -0.5505 C   0  0  2  0  0  0  0  0  0  0  0  0
   -1.3602   -1.5577   -1.0990 C   0  0  0  0  0  0  0  0  0  0  0  0
   -2.3211   -0.8577   -0.4314 C   0  0  0  0  0  0  0  0  0  0  0  0
   -3.5838   -0.6948   -1.0174 C   0  0  0  0  0  0  0  0  0  0  0  0
   -4.5769    0.0904   -0.3573 C   0  0  0  0  0  0  0  0  0  0  0  0
   -5.2321    0.1563    0.7054 C   0  0  0  0  0  0  0  0  0  0  0  0
   -5.0058   -0.8103    1.6651 F   0  0  0  0  0  0  0  0  0  0  0  0
   -6.2585    1.2203    0.9170 C   0  0  0  0  0  0  0  0  0  0  0  0
   -6.7617    1.5592    2.1363 C   0  0  0  0  0  0  0  0  0  0  0  0
   -7.7141    2.5978    2.2749 C   0  0  0  0  0  0  0  0  0  0  0  0
   -8.1472    3.2813    1.1596 C   0  0  0  0  0  0  0  0  0  0  0  0
   -9.0276    4.3818    1.1469 C   0  0  0  0  0  0  0  0  0  0  0  0
   -9.7857    5.3294    1.1567 N   0  0  0  0  0  0  0  0  0  0  0  0
   -7.5907    2.8732   -0.0773 C   0  0  0  0  0  0  0  0  0  0  0  0
   -6.6972    1.8955   -0.1750 N   0  0  0  0  0  0  0  0  0  0  0  0
   -3.8076   -1.2405   -2.2429 C   0  0  0  0  0  0  0  0  0  0  0  0
   -2.8446   -1.9428   -2.9134 C   0  0  0  0  0  0  0  0  0  0  0  0
   -1.5861   -2.1291   -2.3673 C   0  0  0  0  0  0  0  0  0  0  0  0
   -0.6521   -2.8397   -3.0298 F   0  0  0  0  0  0  0  0  0  0  0  0
    0.3466   -3.0796   -0.5075 N   0  0  0  0  0  0  0  0  0  0  0  0
    1.5177   -3.5449   -0.2810 C   0  0  0  0  0  0  0  0  0  0  0  0
    1.8408   -4.8930   -0.2343 N   0  0  0  0  0  0  0  0  0  0  0  0
    2.8199   -2.3124   -0.0481 S   0  0  0  0  0  0  0  0  0  0  0  0
    2.3757   -0.9446   -1.1476 C   0  0  1  0  0  0  0  0  0  0  0  0
    3.3619    0.1158   -1.3486 C   0  0  0  0  0  0  0  0  0  0  0  0
    3.5305    0.4628   -2.6143 O   0  0  0  0  0  0  0  0  0  0  0  0
    4.1295    0.7989   -0.3877 N   0  0  0  0  0  0  0  0  0  0  0  0
    4.1300    0.7074    1.0322 C   0  0  0  0  0  0  0  0  0  0  0  0
    5.5481    0.9196    1.4034 C   0  0  0  0  0  0  0  0  0  0  0  0
    6.2329    0.5999    2.5377 C   0  0  0  0  0  0  0  0  0  0  0  0
    7.6146    0.8506    2.6096 C   0  0  0  0  0  0  0  0  0  0  0  0
    8.2481    1.4046    1.5596 C   0  0  0  0  0  0  0  0  0  0  0  0
    7.5350    1.7472    0.3522 C   0  0  0  0  0  0  0  0  0  0  0  0
    6.1794    1.4990    0.2915 C   0  0  0  0  0  0  0  0  0  0  0  0
    5.1401    1.7800   -0.7366 C   0  0  0  0  0  0  0  0  0  0  0  0
    1.6757   -1.3933   -2.4894 C   0  0  0  0  0  0  0  0  0  0  0  0
    0.9354   -0.8333   -1.3775 C   0  0  1  0  0  0  0  0  0  0  0  0
   -0.9058   -1.7259    1.3372 H   0  0  0  0  0  0  0  0  0  0  0  0
    0.9460   -1.5200    1.3420 H   0  0  0  0  0  0  0  0  0  0  0  0
   -0.1298   -0.0875    0.9663 H   0  0  0  0  0  0  0  0  0  0  0  0
   -2.1438   -0.4285    0.5319 H   0  0  0  0  0  0  0  0  0  0  0  0
   -4.8652    0.9856   -1.0991 H   0  0  0  0  0  0  0  0  0  0  0  0
   -6.4465    1.0452    3.0243 H   0  0  0  0  0  0  0  0  0  0  0  0
   -8.1084    2.8701    3.2333 H   0  0  0  0  0  0  0  0  0  0  0  0
   -7.9600    3.4181   -0.9631 H   0  0  0  0  0  0  0  0  0  0  0  0
   -4.7993   -1.1379   -2.7284 H   0  0  0  0  0  0  0  0  0  0  0  0
   -3.0328   -2.3735   -3.9111 H   0  0  0  0  0  0  0  0  0  0  0  0
    1.8762   -5.4017    0.6751 H   0  0  0  0  0  0  0  0  0  0  0  0
    2.0499   -5.3864   -1.1733 H   0  0  0  0  0  0  0  0  0  0  0  0
    3.5565    1.5953    1.4830 H   0  0  0  0  0  0  0  0  0  0  0  0
    3.7237   -0.2548    1.4363 H   0  0  0  0  0  0  0  0  0  0  0  0
    5.7924    0.1412    3.4410 H   0  0  0  0  0  0  0  0  0  0  0  0
    8.1735    0.5726    3.5365 H   0  0  0  0  0  0  0  0  0  0  0  0
    9.3182    1.6003    1.5989 H   0  0  0  0  0  0  0  0  0  0  0  0
    8.1313    2.1688   -0.4209 H   0  0  0  0  0  0  0  0  0  0  0  0
    4.7196    2.8171   -0.6173 H   0  0  0  0  0  0  0  0  0  0  0  0
    5.5237    1.6388   -1.7872 H   0  0  0  0  0  0  0  0  0  0  0  0
    1.8566   -0.6753   -3.3757 H   0  0  0  0  0  0  0  0  0  0  0  0
    1.9280   -2.4075   -2.7578 H   0  0  0  0  0  0  0  0  0  0  0  0
    0.5555    0.2190   -1.4952 H   0  0  0  0  0  0  0  0  0  0  0  0
  2  1  1  1
  2  3  1  0
  3  4  2  0
  4  5  1  0
  5  6  1  0
  6  7  2  0
  7  8  1  0
  7  9  1  0
  9 10  2  0
 10 11  1  0
 11 12  2  0
 12 13  1  0
 13 14  3  0
 12 15  1  0
 15 16  2  0
  5 17  2  0
 17 18  1  0
 18 19  2  0
 19 20  1  0
  2 21  1  0
 21 22  2  0
 22 23  1  0
 22 24  1  0
 24 25  1  0
 25 26  1  6
 26 27  2  0
 26 28  1  0
 28 29  1  0
 29 30  1  0
 30 31  2  0
 31 32  1  0
 32 33  2  0
 33 34  1  0
 34 35  2  0
 35 36  1  0
 25 37  1  0
 37 38  1  0
 38  2  1  0
 19  3  1  0
 38 25  1  0
 16  9  1  0
 36 28  1  0
 35 30  1  0
  1 39  1  0
  1 40  1  0
  1 41  1  0
  4 42  1  0
  6 43  1  0
 10 44  1  0
 11 45  1  0
 15 46  1  0
 17 47  1  0
 18 48  1  0
 23 49  1  0
 23 50  1  0
 29 51  1  0
 29 52  1  0
 31 53  1  0
 32 54  1  0
 33 55  1  0
 34 56  1  0
 36 57  1  0
 36 58  1  0
 37 59  1  0
 37 60  1  0
 38 61  1  6
M  END
$$$$
