@<TRIPOS>MOLECULE
*****
 60 64 0 0 0
SMALL
GASTEIGER

@<TRIPOS>ATOM
      1 C          -2.2423   -2.8554   -3.4548 C.3     1  UNL1       -0.0397
      2 C          -2.7914   -2.2194   -2.2171 C.ar    1  UNL1       -0.0496
      3 C          -4.1495   -2.0988   -2.0075 C.ar    1  UNL1       -0.0567
      4 C          -4.6937   -1.5207   -0.8834 C.ar    1  UNL1       -0.0336
      5 C          -3.8052   -1.0373    0.0837 C.ar    1  UNL1        0.0982
      6 N          -4.2813   -0.4280    1.2705 N.ar    1  UNL1       -0.1496
      7 N          -4.9377    0.7104    1.3742 N.ar    1  UNL1       -0.1556
      8 C          -5.2243    0.9610    2.6856 C.ar    1  UNL1        0.0697
      9 C          -4.7021   -0.0964    3.3841 C.ar    1  UNL1        0.0697
     10 N          -4.1392   -0.9157    2.4895 N.ar    1  UNL1       -0.1556
     11 C          -2.4455   -1.1400   -0.0910 C.ar    1  UNL1        0.0642
     12 C          -1.5575   -0.6370    0.9294 C.2     1  UNL1        0.2491
     13 O          -1.1948   -1.4503    1.8490 O.2     1  UNL1       -0.2699
     14 N          -1.0641    0.6750    0.9881 N.am    1  UNL1       -0.2897
     15 C          -0.1721    1.0444    2.0825 C.3     1  UNL1        0.0388
     16 C          -0.9409    2.0570    2.9083 C.3     1  UNL1        0.0635
     17 O          -1.7422    2.8305    2.0986 O.3     1  UNL1       -0.3764
     18 C          -1.1906    3.0340    0.8140 C.3     1  UNL1        0.0666
     19 C          -1.3622    1.7366    0.0521 C.3     1  UNL1        0.0537
     20 C          -0.5691    1.6976   -1.2089 C.3     1  UNL1       -0.0068
     21 C           0.8819    1.7883   -1.0313 C.ar    1  UNL1       -0.0449
     22 C           1.4961    3.0213   -1.0076 C.ar    1  UNL1       -0.0585
     23 C           2.8629    3.0573   -0.8433 C.ar    1  UNL1       -0.0608
     24 C           3.5986    1.8989   -0.7064 C.ar    1  UNL1       -0.0510
     25 C           3.0085    0.6489   -0.7264 C.ar    1  UNL1        0.0194
     26 C           3.7910   -0.5737   -0.5811 C.ar    1  UNL1        0.1599
     27 N           3.1903   -1.7751   -0.6045 N.ar    1  UNL1       -0.2356
     28 C           3.8941   -2.9299   -0.4715 C.ar    1  UNL1        0.0317
     29 C           5.2668   -2.8949   -0.3064 C.ar    1  UNL1       -0.0225
     30 C           5.8669   -1.6542   -0.2848 C.ar    1  UNL1        0.0421
     31 C           7.3397   -1.6083   -0.1080 C.3     1  UNL1       -0.0222
     32 N           5.1068   -0.5363   -0.4230 N.ar    1  UNL1       -0.2325
     33 C           1.6400    0.6204   -0.8912 C.ar    1  UNL1       -0.0478
     34 C          -1.9450   -1.7247   -1.2288 C.ar    1  UNL1       -0.0446
     35 H          -2.7970   -3.7889   -3.6922 H       1  UNL1        0.0278
     36 H          -1.1752   -3.0727   -3.2538 H       1  UNL1        0.0278
     37 H          -2.3436   -2.0988   -4.2635 H       1  UNL1        0.0278
     38 H          -4.7943   -2.4875   -2.7836 H       1  UNL1        0.0621
     39 H          -5.7555   -1.4335   -0.7333 H       1  UNL1        0.0640
     40 H          -5.7628    1.8406    3.0492 H       1  UNL1        0.0864
     41 H          -4.7356   -0.2433    4.4440 H       1  UNL1        0.0864
     42 H           0.1524    0.1776    2.6682 H       1  UNL1        0.0487
     43 H           0.6977    1.5674    1.6636 H       1  UNL1        0.0487
     44 H          -1.5824    1.5169    3.6395 H       1  UNL1        0.0575
     45 H          -0.2217    2.6733    3.5102 H       1  UNL1        0.0575
     46 H          -1.8026    3.8076    0.3380 H       1  UNL1        0.0578
     47 H          -0.1351    3.2772    0.9270 H       1  UNL1        0.0578
     48 H          -2.4587    1.6570   -0.1561 H       1  UNL1        0.0526
     49 H          -0.8321    0.8507   -1.8664 H       1  UNL1        0.0332
     50 H          -0.8750    2.6088   -1.8078 H       1  UNL1        0.0332
     51 H           0.9292    3.9527   -1.1148 H       1  UNL1        0.0620
     52 H           3.3200    4.0509   -0.8288 H       1  UNL1        0.0618
     53 H           4.6834    1.9512   -0.5770 H       1  UNL1        0.0625
     54 H           3.4190   -3.8960   -0.4894 H       1  UNL1        0.0831
     55 H           5.8544   -3.8044   -0.1977 H       1  UNL1        0.0650
     56 H           7.6063   -1.2999    0.9361 H       1  UNL1        0.0293
     57 H           7.7924   -2.5541   -0.4132 H       1  UNL1        0.0293
     58 H           7.7414   -0.7732   -0.7536 H       1  UNL1        0.0293
     59 H           1.1681   -0.3557   -0.9082 H       1  UNL1        0.0627
     60 H          -0.8860   -1.8092   -1.3737 H       1  UNL1        0.0628
@<TRIPOS>BOND
     1     1     2    1
     2     2     3   ar
     3     3     4   ar
     4     4     5   ar
     5     5     6    1
     6     6     7   ar
     7     7     8   ar
     8     8     9   ar
     9     9    10   ar
    10     5    11   ar
    11    11    12    1
    12    12    13    2
    13    12    14   am
    14    14    15    1
    15    15    16    1
    16    16    17    1
    17    17    18    1
    18    18    19    1
    19    19    20    1
    20    20    21    1
    21    21    22   ar
    22    22    23   ar
    23    23    24   ar
    24    24    25   ar
    25    25    26    1
    26    26    27   ar
    27    27    28   ar
    28    28    29   ar
    29    29    30   ar
    30    30    31    1
    31    30    32   ar
    32    25    33   ar
    33    11    34   ar
    34    34     2   ar
    35    10     6   ar
    36    19    14    1
    37    33    21   ar
    38    32    26   ar
    39     1    35    1
    40     1    36    1
    41     1    37    1
    42     3    38    1
    43     4    39    1
    44     8    40    1
    45     9    41    1
    46    15    42    1
    47    15    43    1
    48    16    44    1
    49    16    45    1
    50    18    46    1
    51    18    47    1
    52    19    48    1
    53    20    49    1
    54    20    50    1
    55    22    51    1
    56    23    52    1
    57    24    53    1
    58    28    54    1
    59    29    55    1
    60    31    56    1
    61    31    57    1
    62    31    58    1
    63    33    59    1
    64    34    60    1
