
     RDKit          3D

 60 64  0  0  0  0  0  0  0  0999 V2000
   -2.2423   -2.8554   -3.4548 C   0  0  0  0  0  0  0  0  0  0  0  0
   -2.7914   -2.2194   -2.2171 C   0  0  0  0  0  0  0  0  0  0  0  0
   -4.1495   -2.0988   -2.0075 C   0  0  0  0  0  0  0  0  0  0  0  0
   -4.6937   -1.5207   -0.8834 C   0  0  0  0  0  0  0  0  0  0  0  0
   -3.8052   -1.0373    0.0837 C   0  0  0  0  0  0  0  0  0  0  0  0
   -4.2813   -0.4280    1.2705 N   0  0  0  0  0  0  0  0  0  0  0  0
   -4.9377    0.7104    1.3742 N   0  0  0  0  0  0  0  0  0  0  0  0
   -5.2243    0.9610    2.6856 C   0  0  0  0  0  0  0  0  0  0  0  0
   -4.7021   -0.0964    3.3841 C   0  0  0  0  0  0  0  0  0  0  0  0
   -4.1392   -0.9157    2.4895 N   0  0  0  0  0  0  0  0  0  0  0  0
   -2.4455   -1.1400   -0.0910 C   0  0  0  0  0  0  0  0  0  0  0  0
   -1.5575   -0.6370    0.9294 C   0  0  0  0  0  0  0  0  0  0  0  0
   -1.1948   -1.4503    1.8490 O   0  0  0  0  0  0  0  0  0  0  0  0
   -1.0641    0.6750    0.9881 N   0  0  0  0  0  0  0  0  0  0  0  0
   -0.1721    1.0444    2.0825 C   0  0  0  0  0  0  0  0  0  0  0  0
   -0.9409    2.0570    2.9083 C   0  0  0  0  0  0  0  0  0  0  0  0
   -1.7422    2.8305    2.0986 O   0  0  0  0  0  0  0  0  0  0  0  0
   -1.1906    3.0340    0.8140 C   0  0  0  0  0  0  0  0  0  0  0  0
   -1.3622    1.7366    0.0521 C   0  0  1  0  0  0  0  0  0  0  0  0
   -0.5691    1.6976   -1.2089 C   0  0  0  0  0  0  0  0  0  0  0  0
    0.8819    1.7883   -1.0313 C   0  0  0  0  0  0  0  0  0  0  0  0
    1.4961    3.0213   -1.0076 C   0  0  0  0  0  0  0  0  0  0  0  0
    2.8629    3.0573   -0.8433 C   0  0  0  0  0  0  0  0  0  0  0  0
    3.5986    1.8989   -0.7064 C   0  0  0  0  0  0  0  0  0  0  0  0
    3.0085    0.6489   -0.7264 C   0  0  0  0  0  0  0  0  0  0  0  0
    3.7910   -0.5737   -0.5811 C   0  0  0  0  0  0  0  0  0  0  0  0
    3.1903   -1.7751   -0.6045 N   0  0  0  0  0  0  0  0  0  0  0  0
    3.8941   -2.9299   -0.4715 C   0  0  0  0  0  0  0  0  0  0  0  0
    5.2668   -2.8949   -0.3064 C   0  0  0  0  0  0  0  0  0  0  0  0
    5.8669   -1.6542   -0.2848 C   0  0  0  0  0  0  0  0  0  0  0  0
    7.3397   -1.6083   -0.1080 C   0  0  0  0  0  0  0  0  0  0  0  0
    5.1068   -0.5363   -0.4230 N   0  0  0  0  0  0  0  0  0  0  0  0
    1.6400    0.6204   -0.8912 C   0  0  0  0  0  0  0  0  0  0  0  0
   -1.9450   -1.7247   -1.2288 C   0  0  0  0  0  0  0  0  0  0  0  0
   -2.7970   -3.7889   -3.6922 H   0  0  0  0  0  0  0  0  0  0  0  0
   -1.1752   -3.0727   -3.2538 H   0  0  0  0  0  0  0  0  0  0  0  0
   -2.3436   -2.0988   -4.2635 H   0  0  0  0  0  0  0  0  0  0  0  0
   -4.7943   -2.4875   -2.7836 H   0  0  0  0  0  0  0  0  0  0  0  0
   -5.7555   -1.4335   -0.7333 H   0  0  0  0  0  0  0  0  0  0  0  0
   -5.7628    1.8406    3.0492 H   0  0  0  0  0  0  0  0  0  0  0  0
   -4.7356   -0.2433    4.4440 H   0  0  0  0  0  0  0  0  0  0  0  0
    0.1524    0.1776    2.6682 H   0  0  0  0  0  0  0  0  0  0  0  0
    0.6977    1.5674    1.6636 H   0  0  0  0  0  0  0  0  0  0  0  0
   -1.5824    1.5169    3.6395 H   0  0  0  0  0  0  0  0  0  0  0  0
   -0.2217    2.6733    3.5102 H   0  0  0  0  0  0  0  0  0  0  0  0
   -1.8026    3.8076    0.3380 H   0  0  0  0  0  0  0  0  0  0  0  0
   -0.1351    3.2772    0.9270 H   0  0  0  0  0  0  0  0  0  0  0  0
   -2.4587    1.6570   -0.1561 H   0  0  0  0  0  0  0  0  0  0  0  0
   -0.8321    0.8507   -1.8664 H   0  0  0  0  0  0  0  0  0  0  0  0
   -0.8750    2.6088   -1.8078 H   0  0  0  0  0  0  0  0  0  0  0  0
    0.9292    3.9527   -1.1148 H   0  0  0  0  0  0  0  0  0  0  0  0
    3.3200    4.0509   -0.8288 H   0  0  0  0  0  0  0  0  0  0  0  0
    4.6834    1.9512   -0.5770 H   0  0  0  0  0  0  0  0  0  0  0  0
    3.4190   -3.8960   -0.4894 H   0  0  0  0  0  0  0  0  0  0  0  0
    5.8544   -3.8044   -0.1977 H   0  0  0  0  0  0  0  0  0  0  0  0
    7.6063   -1.2999    0.9361 H   0  0  0  0  0  0  0  0  0  0  0  0
    7.7924   -2.5541   -0.4132 H   0  0  0  0  0  0  0  0  0  0  0  0
    7.7414   -0.7732   -0.7536 H   0  0  0  0  0  0  0  0  0  0  0  0
    1.1681   -0.3557   -0.9082 H   0  0  0  0  0  0  0  0  0  0  0  0
   -0.8860   -1.8092   -1.3737 H   0  0  0  0  0  0  0  0  0  0  0  0
  1  2  1  0
  2  3  2  0
  3  4  1  0
  4  5  2  0
  5  6  1  0
  6  7  1  0
  7  8  2  0
  8  9  1  0
  9 10  2  0
  5 11  1  0
 11 12  1  0
 12 13  2  0
 12 14  1  0
 14 15  1  0
 15 16  1  0
 16 17  1  0
 17 18  1  0
 18 19  1  0
 19 20  1  0
 20 21  1  0
 21 22  2  0
 22 23  1  0
 23 24  2  0
 24 25  1  0
 25 26  1  0
 26 27  2  0
 27 28  1  0
 28 29  2  0
 29 30  1  0
 30 31  1  0
 30 32  2  0
 25 33  2  0
 11 34  2  0
 34  2  1  0
 10  6  1  0
 19 14  1  0
 33 21  1  0
 32 26  1  0
  1 35  1  0
  1 36  1  0
  1 37  1  0
  3 38  1  0
  4 39  1  0
  8 40  1  0
  9 41  1  0
 15 42  1  0
 15 43  1  0
 16 44  1  0
 16 45  1  0
 18 46  1  0
 18 47  1  0
 19 48  1  6
 20 49  1  0
 20 50  1  0
 22 51  1  0
 23 52  1  0
 24 53  1  0
 28 54  1  0
 29 55  1  0
 31 56  1  0
 31 57  1  0
 31 58  1  0
 33 59  1  0
 34 60  1  0
M  END
$$$$
