@<TRIPOS>MOLECULE
*****
 57 60 0 0 0
SMALL
GASTEIGER

@<TRIPOS>ATOM
      1 C           7.2688    3.1569   -1.3770 C.3     1  UNL1        0.0001
      2 N           6.5684    1.9271   -1.1674 N.am    1  UNL1       -0.3172
      3 C           5.6741    1.6954   -0.0843 C.2     1  UNL1        0.2296
      4 O           5.5035    2.6365    0.7264 O.2     1  UNL1       -0.2743
      5 C           4.9863    0.3655    0.0416 C.3     1  UNL1        0.1052
      6 C           4.1193   -0.0370   -1.1024 C.3     1  UNL1       -0.0220
      7 C           3.5455    0.3619    0.2314 C.3     1  UNL1        0.0134
      8 C           2.9318   -0.4989    1.2124 C.3     1  UNL1        0.0935
      9 C           2.1044    0.4586    2.1623 C.3     1  UNL1       -0.0351
     10 C           1.8905   -1.3741    0.6309 C.ar    1  UNL1        0.0158
     11 C           0.5416   -1.0192    0.6320 C.ar    1  UNL1       -0.0463
     12 C          -0.4448   -1.7747    0.0324 C.ar    1  UNL1       -0.0217
     13 C          -1.8521   -1.3152    0.0826 C.2     1  UNL1       -0.0171
     14 C          -2.6305   -1.3260   -0.9859 C.2     1  UNL1        0.1507
     15 F          -2.0378   -1.7946   -2.1381 F       1  UNL1       -0.2032
     16 C          -4.0071   -0.8790   -0.9812 C.ar    1  UNL1        0.1172
     17 C          -4.6827   -0.4447    0.1328 C.ar    1  UNL1        0.0596
     18 N          -5.9516   -0.0076    0.1239 N.ar    1  UNL1       -0.2178
     19 C          -6.6063    0.0085   -1.0479 C.ar    1  UNL1        0.2339
     20 O          -7.9243    0.4458   -1.1483 O.3     1  UNL1       -0.4677
     21 C          -8.7126    0.9025   -0.1029 C.3     1  UNL1        0.1486
     22 C          -8.2235    2.0853    0.6168 C.2     1  UNL1        0.1674
     23 C          -6.9708    2.7662    0.1902 C.3     1  UNL1       -0.0026
     24 O          -8.8148    2.5625    1.5869 O.2     1  UNL1       -0.2941
     25 C          -5.9579   -0.4212   -2.1916 C.ar    1  UNL1        0.0898
     26 N          -4.6757   -0.8590   -2.1549 N.ar    1  UNL1       -0.2459
     27 C          -0.0596   -2.9356   -0.5922 C.ar    1  UNL1       -0.0518
     28 C           1.2749   -3.3114   -0.6057 C.ar    1  UNL1       -0.0255
     29 C           2.2604   -2.5391    0.0036 C.ar    1  UNL1        0.1289
     30 F           3.5168   -3.0314   -0.0358 F       1  UNL1       -0.2051
     31 N           3.6895   -1.2406    2.1472 N.2     1  UNL1       -0.2521
     32 C           4.9174   -1.5115    2.2094 C.2     1  UNL1        0.1485
     33 N           5.4903   -2.2952    3.2638 N.pl3   1  UNL1       -0.3380
     34 S           5.9362   -0.8672    0.8949 S.3     1  UNL1       -0.0746
     35 H           8.3126    2.9712   -1.7251 H       1  UNL1        0.0426
     36 H           6.8184    3.7889   -2.1754 H       1  UNL1        0.0426
     37 H           7.3624    3.7755   -0.4497 H       1  UNL1        0.0426
     38 H           6.7196    1.1339   -1.8547 H       1  UNL1        0.1484
     39 H           4.0856    0.7042   -1.9427 H       1  UNL1        0.0287
     40 H           4.1942   -1.0497   -1.4658 H       1  UNL1        0.0287
     41 H           3.0671    1.4034    0.1459 H       1  UNL1        0.0346
     42 H           2.8799    0.8852    2.8508 H       1  UNL1        0.0256
     43 H           1.6530    1.2448    1.5682 H       1  UNL1        0.0256
     44 H           1.4504   -0.2050    2.7154 H       1  UNL1        0.0256
     45 H           0.2185   -0.1112    1.1155 H       1  UNL1        0.0628
     46 H          -2.2247   -0.9661    1.0346 H       1  UNL1        0.0653
     47 H          -4.1752   -0.4497    1.0928 H       1  UNL1        0.0853
     48 H          -8.9229    0.1021    0.6616 H       1  UNL1        0.0778
     49 H          -9.7138    1.1494   -0.5259 H       1  UNL1        0.0778
     50 H          -6.1600    2.6338    0.9402 H       1  UNL1        0.0307
     51 H          -7.2097    3.8709    0.1689 H       1  UNL1        0.0307
     52 H          -6.6697    2.5060   -0.8411 H       1  UNL1        0.0307
     53 H          -6.5122   -0.3946   -3.1182 H       1  UNL1        0.0884
     54 H          -0.8094   -3.5455   -1.0707 H       1  UNL1        0.0624
     55 H           1.5739   -4.2302   -1.1006 H       1  UNL1        0.0646
     56 H           6.0385   -1.7880    3.9820 H       1  UNL1        0.1442
     57 H           5.3561   -3.3187    3.2969 H       1  UNL1        0.1442
@<TRIPOS>BOND
     1     1     2    1
     2     2     3   am
     3     3     4    2
     4     5     3    1
     5     5     6    1
     6     6     7    1
     7     7     8    1
     8     8     9    1
     9     8    10    1
    10    10    11   ar
    11    11    12   ar
    12    12    13    1
    13    13    14    2
    14    14    15    1
    15    14    16    1
    16    16    17   ar
    17    17    18   ar
    18    18    19   ar
    19    19    20    1
    20    20    21    1
    21    21    22    1
    22    22    23    1
    23    22    24    2
    24    19    25   ar
    25    25    26   ar
    26    12    27   ar
    27    27    28   ar
    28    28    29   ar
    29    29    30    1
    30     8    31    1
    31    31    32    2
    32    32    33    1
    33    32    34    1
    34     7     5    1
    35    29    10   ar
    36    34     5    1
    37    26    16   ar
    38     1    35    1
    39     1    36    1
    40     1    37    1
    41     2    38    1
    42     6    39    1
    43     6    40    1
    44     7    41    1
    45     9    42    1
    46     9    43    1
    47     9    44    1
    48    11    45    1
    49    13    46    1
    50    17    47    1
    51    21    48    1
    52    21    49    1
    53    23    50    1
    54    23    51    1
    55    23    52    1
    56    25    53    1
    57    27    54    1
    58    28    55    1
    59    33    56    1
    60    33    57    1
