
     RDKit          3D

 35 36  0  0  0  0  0  0  0  0999 V2000
    6.1901    1.3808    1.0176 N   0  0  0  0  0  0  0  0  0  0  0  0
    6.0444   -0.0120    0.5938 C   0  0  0  0  0  0  0  0  0  0  0  0
    4.5873   -0.1554    0.2676 C   0  0  0  0  0  0  0  0  0  0  0  0
    3.9485    0.9318    0.4511 O   0  0  0  0  0  0  0  0  0  0  0  0
    3.8958   -1.3023   -0.1934 N   0  0  0  0  0  0  0  0  0  0  0  0
    2.5315   -0.9686   -0.3659 C   0  0  0  0  0  0  0  0  0  0  0  0
    1.7728   -1.1847    0.7786 C   0  0  0  0  0  0  0  0  0  0  0  0
    0.4116   -0.8947    0.7393 C   0  0  0  0  0  0  0  0  0  0  0  0
   -0.1828   -0.4058   -0.3970 C   0  0  0  0  0  0  0  0  0  0  0  0
   -1.5332   -0.1028   -0.4833 O   0  0  0  0  0  0  0  0  0  0  0  0
   -2.3554   -0.2986    0.6386 C   0  0  0  0  0  0  0  0  0  0  0  0
   -3.7326    0.1092    0.2454 C   0  0  0  0  0  0  0  0  0  0  0  0
   -4.0991    1.4182    0.4414 C   0  0  0  0  0  0  0  0  0  0  0  0
   -5.3272    1.9162    0.1244 C   0  0  0  0  0  0  0  0  0  0  0  0
   -6.2524    1.0550   -0.4241 C   0  0  0  0  0  0  0  0  0  0  0  0
   -5.8966   -0.2634   -0.6264 C   0  0  0  0  0  0  0  0  0  0  0  0
   -4.6383   -0.7815   -0.3035 C   0  0  0  0  0  0  0  0  0  0  0  0
    0.6200   -0.2127   -1.4985 C   0  0  0  0  0  0  0  0  0  0  0  0
    1.9726   -0.4760   -1.5361 C   0  0  0  0  0  0  0  0  0  0  0  0
    5.7028    1.4516    1.9394 H   0  0  0  0  0  0  0  0  0  0  0  0
    5.6186    1.9633    0.3512 H   0  0  0  0  0  0  0  0  0  0  0  0
    6.6724   -0.1393   -0.3242 H   0  0  0  0  0  0  0  0  0  0  0  0
    6.3581   -0.7063    1.4020 H   0  0  0  0  0  0  0  0  0  0  0  0
    4.5092   -2.1373   -0.3102 H   0  0  0  0  0  0  0  0  0  0  0  0
    2.1620   -1.5654    1.7095 H   0  0  0  0  0  0  0  0  0  0  0  0
   -0.2247   -1.0478    1.6123 H   0  0  0  0  0  0  0  0  0  0  0  0
   -1.9902    0.3228    1.5022 H   0  0  0  0  0  0  0  0  0  0  0  0
   -2.3881   -1.3399    1.0038 H   0  0  0  0  0  0  0  0  0  0  0  0
   -3.3981    2.1238    0.8703 H   0  0  0  0  0  0  0  0  0  0  0  0
   -5.5847    2.9522    0.2913 H   0  0  0  0  0  0  0  0  0  0  0  0
   -7.2565    1.3560   -0.7099 H   0  0  0  0  0  0  0  0  0  0  0  0
   -6.5669   -1.0107   -1.0547 H   0  0  0  0  0  0  0  0  0  0  0  0
   -4.3667   -1.8089   -0.4632 H   0  0  0  0  0  0  0  0  0  0  0  0
    0.1791    0.1687   -2.3992 H   0  0  0  0  0  0  0  0  0  0  0  0
    2.6169   -0.3358   -2.3741 H   0  0  0  0  0  0  0  0  0  0  0  0
  1  2  1  0
  2  3  1  0
  3  4  2  0
  3  5  1  0
  5  6  1  0
  6  7  2  0
  7  8  1  0
  8  9  2  0
  9 10  1  0
 10 11  1  0
 11 12  1  0
 12 13  2  0
 13 14  1  0
 14 15  2  0
 15 16  1  0
 16 17  2  0
  9 18  1  0
 18 19  2  0
 19  6  1  0
 17 12  1  0
  1 20  1  0
  1 21  1  0
  2 22  1  0
  2 23  1  0
  5 24  1  0
  7 25  1  0
  8 26  1  0
 11 27  1  0
 11 28  1  0
 13 29  1  0
 14 30  1  0
 15 31  1  0
 16 32  1  0
 17 33  1  0
 18 34  1  0
 19 35  1  0
M  END
$$$$
