
     RDKit          3D

 63 69  0  0  0  0  0  0  0  0999 V2000
    5.3156    0.3305   -3.2478 C   0  0  0  0  0  0  0  0  0  0  0  0
    5.6231   -0.1661   -1.8901 C   0  0  0  0  0  0  0  0  0  0  0  0
    6.8124   -0.3202   -1.5346 O   0  0  0  0  0  0  0  0  0  0  0  0
    4.5954   -0.4727   -0.9783 N   0  0  0  0  0  0  0  0  0  0  0  0
    3.1490   -0.4196   -1.0387 C   0  0  0  0  0  0  0  0  0  0  0  0
    3.0600   -1.3506    0.1274 C   0  0  0  0  0  0  0  0  0  0  0  0
    2.1597   -0.9046    1.1717 N   0  0  0  0  0  0  0  0  0  0  0  0
    2.5144   -0.5989    2.4321 C   0  0  0  0  0  0  0  0  0  0  0  0
    1.4453   -0.2150    3.1760 C   0  0  0  0  0  0  0  0  0  0  0  0
    1.3973    0.2019    4.5989 C   0  0  0  0  0  0  0  0  0  0  0  0
    1.5653    1.6251    4.9731 C   0  0  0  0  0  0  0  0  0  0  0  0
    2.7122    0.7292    5.2104 C   0  0  0  0  0  0  0  0  0  0  0  0
    0.3551   -0.2855    2.3280 C   0  0  0  0  0  0  0  0  0  0  0  0
    0.8086   -0.7071    1.1113 C   0  0  0  0  0  0  0  0  0  0  0  0
   -0.3263   -0.7913    0.1932 C   0  0  0  0  0  0  0  0  0  0  0  0
   -0.2239    0.1174   -0.9838 C   0  0  0  0  0  0  0  0  0  0  0  0
   -0.3370    1.4939   -0.8559 C   0  0  0  0  0  0  0  0  0  0  0  0
   -0.2495    2.3344   -1.9431 C   0  0  0  0  0  0  0  0  0  0  0  0
   -0.0442    1.7844   -3.1869 C   0  0  0  0  0  0  0  0  0  0  0  0
    0.0683    2.8589   -4.5809 Cl  0  0  0  0  0  0  0  0  0  0  0  0
    0.0719    0.4014   -3.3337 C   0  0  0  0  0  0  0  0  0  0  0  0
   -0.0184   -0.4301   -2.2300 C   0  0  0  0  0  0  0  0  0  0  0  0
   -1.4900   -0.3879    0.9785 N   0  0  0  0  0  0  0  0  0  0  0  0
   -2.8125   -0.3465    0.4238 C   0  0  0  0  0  0  0  0  0  0  0  0
   -3.8920    0.0344    1.1810 C   0  0  0  0  0  0  0  0  0  0  0  0
   -5.1764    0.0789    0.6580 C   0  0  0  0  0  0  0  0  0  0  0  0
   -6.3334    0.4936    1.4917 C   0  0  0  0  0  0  0  0  0  0  0  0
   -5.3434   -0.2744   -0.6612 C   0  0  0  0  0  0  0  0  0  0  0  0
   -6.4355   -0.3364   -1.4533 N   0  0  0  0  0  0  0  0  0  0  0  0
   -6.0568   -0.7364   -2.6469 N   0  0  0  0  0  0  0  0  0  0  0  0
   -4.7492   -0.9358   -2.6511 N   0  0  0  0  0  0  0  0  0  0  0  0
   -3.9453   -1.3854   -3.7935 C   0  0  0  0  0  0  0  0  0  0  0  0
   -4.2514   -0.6615   -1.4332 C   0  0  0  0  0  0  0  0  0  0  0  0
   -3.0375   -0.6818   -0.8628 N   0  0  0  0  0  0  0  0  0  0  0  0
   -1.0988   -0.0687    2.2944 C   0  0  0  0  0  0  0  0  0  0  0  0
   -1.7887    0.3206    3.2695 O   0  0  0  0  0  0  0  0  0  0  0  0
    4.5060   -0.9640    0.3895 C   0  0  0  0  0  0  0  0  0  0  0  0
    4.4511   -0.2279   -3.7042 H   0  0  0  0  0  0  0  0  0  0  0  0
    6.2152    0.1910   -3.8964 H   0  0  0  0  0  0  0  0  0  0  0  0
    4.9914    1.3968   -3.2434 H   0  0  0  0  0  0  0  0  0  0  0  0
    2.8091   -0.9656   -1.9666 H   0  0  0  0  0  0  0  0  0  0  0  0
    2.7322    0.5794   -0.9131 H   0  0  0  0  0  0  0  0  0  0  0  0
    2.9929   -2.4249   -0.1061 H   0  0  0  0  0  0  0  0  0  0  0  0
    3.5391   -0.6558    2.8086 H   0  0  0  0  0  0  0  0  0  0  0  0
    0.7448   -0.4119    5.2601 H   0  0  0  0  0  0  0  0  0  0  0  0
    1.0262    1.9806    5.8762 H   0  0  0  0  0  0  0  0  0  0  0  0
    1.6995    2.4184    4.1881 H   0  0  0  0  0  0  0  0  0  0  0  0
    2.9439    0.3167    6.2061 H   0  0  0  0  0  0  0  0  0  0  0  0
    3.5832    0.8225    4.5242 H   0  0  0  0  0  0  0  0  0  0  0  0
   -0.5101   -1.8180   -0.1876 H   0  0  0  0  0  0  0  0  0  0  0  0
   -0.4990    1.8966    0.1411 H   0  0  0  0  0  0  0  0  0  0  0  0
   -0.3343    3.3987   -1.8640 H   0  0  0  0  0  0  0  0  0  0  0  0
    0.2346   -0.0322   -4.3203 H   0  0  0  0  0  0  0  0  0  0  0  0
    0.0803   -1.4911   -2.4145 H   0  0  0  0  0  0  0  0  0  0  0  0
   -3.8040    0.3224    2.2313 H   0  0  0  0  0  0  0  0  0  0  0  0
   -6.6412   -0.3355    2.1866 H   0  0  0  0  0  0  0  0  0  0  0  0
   -7.1507    0.7857    0.8136 H   0  0  0  0  0  0  0  0  0  0  0  0
   -6.1022    1.3622    2.1360 H   0  0  0  0  0  0  0  0  0  0  0  0
   -3.0129   -1.8691   -3.3947 H   0  0  0  0  0  0  0  0  0  0  0  0
   -3.7151   -0.5474   -4.4607 H   0  0  0  0  0  0  0  0  0  0  0  0
   -4.5380   -2.1204   -4.3656 H   0  0  0  0  0  0  0  0  0  0  0  0
    4.5391   -0.1229    1.1371 H   0  0  0  0  0  0  0  0  0  0  0  0
    5.1756   -1.8126    0.6255 H   0  0  0  0  0  0  0  0  0  0  0  0
  1  2  1  0
  2  3  2  0
  2  4  1  0
  4  5  1  0
  5  6  1  0
  6  7  1  0
  7  8  1  0
  8  9  2  0
  9 10  1  0
 10 11  1  0
 11 12  1  0
  9 13  1  0
 13 14  2  0
 14 15  1  0
 15 16  1  0
 16 17  2  0
 17 18  1  0
 18 19  2  0
 19 20  1  0
 19 21  1  0
 21 22  2  0
 15 23  1  0
 23 24  1  0
 24 25  2  0
 25 26  1  0
 26 27  1  0
 26 28  2  0
 28 29  1  0
 29 30  2  0
 30 31  1  0
 31 32  1  0
 31 33  1  0
 33 34  2  0
 23 35  1  0
 35 36  2  0
  6 37  1  0
 37  4  1  0
 14  7  1  0
 22 16  1  0
 34 24  1  0
 12 10  1  0
 35 13  1  0
 33 28  1  0
  1 38  1  0
  1 39  1  0
  1 40  1  0
  5 41  1  0
  5 42  1  0
  6 43  1  0
  8 44  1  0
 10 45  1  0
 11 46  1  0
 11 47  1  0
 12 48  1  0
 12 49  1  0
 15 50  1  0
 17 51  1  0
 18 52  1  0
 21 53  1  0
 22 54  1  0
 25 55  1  0
 27 56  1  0
 27 57  1  0
 27 58  1  0
 32 59  1  0
 32 60  1  0
 32 61  1  0
 37 62  1  0
 37 63  1  0
M  END
$$$$
