@<TRIPOS>MOLECULE
*****
 63 69 0 0 0
SMALL
GASTEIGER

@<TRIPOS>ATOM
      1 C           5.3156    0.3305   -3.2478 C.3     1  UNL1        0.0124
      2 C           5.6231   -0.1661   -1.8901 C.2     1  UNL1        0.2126
      3 O           6.8124   -0.3202   -1.5346 O.2     1  UNL1       -0.2759
      4 N           4.5954   -0.4727   -0.9783 N.am    1  UNL1       -0.2977
      5 C           3.1490   -0.4196   -1.0387 C.3     1  UNL1        0.0370
      6 C           3.0600   -1.3506    0.1274 C.3     1  UNL1        0.0657
      7 N           2.1597   -0.9046    1.1717 N.ar    1  UNL1       -0.3417
      8 C           2.5144   -0.5989    2.4321 C.ar    1  UNL1        0.0095
      9 C           1.4453   -0.2150    3.1760 C.ar    1  UNL1       -0.0143
     10 C           1.3973    0.2019    4.5989 C.3     1  UNL1       -0.0137
     11 C           1.5653    1.6251    4.9731 C.3     1  UNL1       -0.0456
     12 C           2.7122    0.7292    5.2104 C.3     1  UNL1       -0.0456
     13 C           0.3551   -0.2855    2.3280 C.ar    1  UNL1        0.0636
     14 C           0.8086   -0.7071    1.1113 C.ar    1  UNL1        0.0571
     15 C          -0.3263   -0.7913    0.1932 C.3     1  UNL1        0.0986
     16 C          -0.2239    0.1174   -0.9838 C.ar    1  UNL1       -0.0207
     17 C          -0.3370    1.4939   -0.8559 C.ar    1  UNL1       -0.0550
     18 C          -0.2495    2.3344   -1.9431 C.ar    1  UNL1       -0.0431
     19 C          -0.0442    1.7844   -3.1869 C.ar    1  UNL1        0.0410
     20 CL          0.0683    2.8589   -4.5809 Cl      1  UNL1       -0.0835
     21 C           0.0719    0.4014   -3.3337 C.ar    1  UNL1       -0.0431
     22 C          -0.0184   -0.4301   -2.2300 C.ar    1  UNL1       -0.0550
     23 N          -1.4900   -0.3879    0.9785 N.am    1  UNL1       -0.2388
     24 C          -2.8125   -0.3465    0.4238 C.ar    1  UNL1        0.1313
     25 C          -3.8920    0.0344    1.1810 C.ar    1  UNL1       -0.0161
     26 C          -5.1764    0.0789    0.6580 C.ar    1  UNL1       -0.0164
     27 C          -6.3334    0.4936    1.4917 C.3     1  UNL1       -0.0374
     28 C          -5.3434   -0.2744   -0.6612 C.ar    1  UNL1        0.1345
     29 N          -6.4355   -0.3364   -1.4533 N.ar    1  UNL1       -0.1276
     30 N          -6.0568   -0.7364   -2.6469 N.ar    1  UNL1       -0.0635
     31 N          -4.7492   -0.9358   -2.6511 N.ar    1  UNL1       -0.2297
     32 C          -3.9453   -1.3854   -3.7935 C.3     1  UNL1        0.0341
     33 C          -4.2514   -0.6615   -1.4332 C.ar    1  UNL1        0.1803
     34 N          -3.0375   -0.6818   -0.8628 N.ar    1  UNL1       -0.2108
     35 C          -1.0988   -0.0687    2.2944 C.2     1  UNL1        0.2548
     36 O          -1.7887    0.3206    3.2695 O.2     1  UNL1       -0.2695
     37 C           4.5060   -0.9640    0.3895 C.3     1  UNL1        0.0370
     38 H           4.4511   -0.2279   -3.7042 H       1  UNL1        0.0323
     39 H           6.2152    0.1910   -3.8964 H       1  UNL1        0.0323
     40 H           4.9914    1.3968   -3.2434 H       1  UNL1        0.0323
     41 H           2.8091   -0.9656   -1.9666 H       1  UNL1        0.0485
     42 H           2.7322    0.5794   -0.9131 H       1  UNL1        0.0485
     43 H           2.9929   -2.4249   -0.1061 H       1  UNL1        0.0559
     44 H           3.5391   -0.6558    2.8086 H       1  UNL1        0.0812
     45 H           0.7448   -0.4119    5.2601 H       1  UNL1        0.0349
     46 H           1.0262    1.9806    5.8762 H       1  UNL1        0.0271
     47 H           1.6995    2.4184    4.1881 H       1  UNL1        0.0271
     48 H           2.9439    0.3167    6.2061 H       1  UNL1        0.0271
     49 H           3.5832    0.8225    4.5242 H       1  UNL1        0.0271
     50 H          -0.5101   -1.8180   -0.1876 H       1  UNL1        0.0620
     51 H          -0.4990    1.8966    0.1411 H       1  UNL1        0.0621
     52 H          -0.3343    3.3987   -1.8640 H       1  UNL1        0.0632
     53 H           0.2346   -0.0322   -4.3203 H       1  UNL1        0.0632
     54 H           0.0803   -1.4911   -2.4145 H       1  UNL1        0.0621
     55 H          -3.8040    0.3224    2.2313 H       1  UNL1        0.0655
     56 H          -6.6412   -0.3355    2.1866 H       1  UNL1        0.0278
     57 H          -7.1507    0.7857    0.8136 H       1  UNL1        0.0278
     58 H          -6.1022    1.3622    2.1360 H       1  UNL1        0.0278
     59 H          -3.0129   -1.8691   -3.3947 H       1  UNL1        0.0474
     60 H          -3.7151   -0.5474   -4.4607 H       1  UNL1        0.0474
     61 H          -4.5380   -2.1204   -4.3656 H       1  UNL1        0.0474
     62 H           4.5391   -0.1229    1.1371 H       1  UNL1        0.0485
     63 H           5.1756   -1.8126    0.6255 H       1  UNL1        0.0485
@<TRIPOS>BOND
     1     1     2    1
     2     2     3    2
     3     2     4   am
     4     4     5    1
     5     5     6    1
     6     6     7    1
     7     7     8   ar
     8     8     9   ar
     9     9    10    1
    10    10    11    1
    11    11    12    1
    12     9    13   ar
    13    13    14   ar
    14    14    15    1
    15    15    16    1
    16    16    17   ar
    17    17    18   ar
    18    18    19   ar
    19    19    20    1
    20    19    21   ar
    21    21    22   ar
    22    15    23    1
    23    23    24    1
    24    24    25   ar
    25    25    26   ar
    26    26    27    1
    27    26    28   ar
    28    28    29   ar
    29    29    30   ar
    30    30    31   ar
    31    31    32    1
    32    31    33   ar
    33    33    34   ar
    34    23    35   am
    35    35    36    2
    36     6    37    1
    37    37     4    1
    38    14     7   ar
    39    22    16   ar
    40    34    24   ar
    41    12    10    1
    42    35    13    1
    43    33    28   ar
    44     1    38    1
    45     1    39    1
    46     1    40    1
    47     5    41    1
    48     5    42    1
    49     6    43    1
    50     8    44    1
    51    10    45    1
    52    11    46    1
    53    11    47    1
    54    12    48    1
    55    12    49    1
    56    15    50    1
    57    17    51    1
    58    18    52    1
    59    21    53    1
    60    22    54    1
    61    25    55    1
    62    27    56    1
    63    27    57    1
    64    27    58    1
    65    32    59    1
    66    32    60    1
    67    32    61    1
    68    37    62    1
    69    37    63    1
