
     RDKit          3D

 28 27  0  0  0  0  0  0  0  0999 V2000
   -3.7937   -1.4164    0.2737 N   0  0  0  0  0  0  0  0  0  0  0  0
   -2.5281   -0.6807    0.3497 C   0  0  1  0  0  0  0  0  0  0  0  0
   -1.9210   -0.6063   -1.0454 C   0  0  0  0  0  0  0  0  0  0  0  0
   -0.6117    0.1441   -1.0198 C   0  0  0  0  0  0  0  0  0  0  0  0
    0.4244   -0.4757   -0.1390 C   0  0  0  0  0  0  0  0  0  0  0  0
    1.6060    0.3934   -0.2519 N   0  0  0  0  0  0  0  0  0  0  0  0
    2.7490    0.0413    0.4847 C   0  0  0  0  0  0  0  0  0  0  0  0
    2.9928   -1.1427    0.9169 N   0  0  0  0  0  0  0  0  0  0  0  0
    3.7558    1.0162    0.8148 N   0  0  0  0  0  0  0  0  0  0  0  0
    5.0319    0.7104    1.3028 N   0  0  0  0  0  4  0  0  0  0  0  0
    6.0004    1.2444    0.4581 O   0  0  0  0  0  1  0  0  0  0  0  0
    5.3347    0.0594    2.3358 O   0  0  0  0  0  0  0  0  0  0  0  0
   -2.8853    0.6727    0.8432 C   0  0  0  0  0  0  0  0  0  0  0  0
   -2.7280    1.9896    1.2568 O   0  0  0  0  0  0  0  0  0  0  0  0
   -4.1147    0.8345    1.0586 O   0  0  0  0  0  0  0  0  0  0  0  0
   -4.2443   -1.1109   -0.6377 H   0  0  0  0  0  0  0  0  0  0  0  0
   -3.5026   -2.4295    0.1526 H   0  0  0  0  0  0  0  0  0  0  0  0
   -1.8331   -1.1872    1.0264 H   0  0  0  0  0  0  0  0  0  0  0  0
   -1.8574   -1.6083   -1.5067 H   0  0  0  0  0  0  0  0  0  0  0  0
   -2.6225   -0.0079   -1.6635 H   0  0  0  0  0  0  0  0  0  0  0  0
   -0.8365    1.1464   -0.5964 H   0  0  0  0  0  0  0  0  0  0  0  0
   -0.2059    0.2235   -2.0401 H   0  0  0  0  0  0  0  0  0  0  0  0
    0.6972   -1.4937   -0.4577 H   0  0  0  0  0  0  0  0  0  0  0  0
    0.1631   -0.4607    0.9336 H   0  0  0  0  0  0  0  0  0  0  0  0
    1.6514    1.2694   -0.8538 H   0  0  0  0  0  0  0  0  0  0  0  0
    2.3124   -1.9033    0.7190 H   0  0  0  0  0  0  0  0  0  0  0  0
    3.4940    2.0338    0.6716 H   0  0  0  0  0  0  0  0  0  0  0  0
   -2.5284    2.7440    0.5914 H   0  0  0  0  0  0  0  0  0  0  0  0
  1  2  1  0
  2  3  1  0
  3  4  1  0
  4  5  1  0
  5  6  1  0
  6  7  1  0
  7  8  2  3
  7  9  1  0
  9 10  1  0
 10 11  1  0
 10 12  2  0
  2 13  1  0
 13 14  1  0
 13 15  2  0
  1 16  1  0
  1 17  1  0
  2 18  1  1
  3 19  1  0
  3 20  1  0
  4 21  1  0
  4 22  1  0
  5 23  1  0
  5 24  1  0
  6 25  1  0
  8 26  1  0
  9 27  1  0
 14 28  1  0
M  CHG  2  10   1  11  -1
M  END
$$$$
