@<TRIPOS>MOLECULE
*****
 34 34 0 0 0
SMALL
GASTEIGER

@<TRIPOS>ATOM
      1 O           0.5265   -3.3926    0.1364 O.3     1  UNL1       -0.3864
      2 C           0.4414   -2.1578   -0.4518 C.3     1  UNL1        0.1141
      3 C          -0.5490   -1.2194    0.2470 C.3     1  UNL1        0.1119
      4 O          -1.7524   -1.8804    0.4193 O.3     1  UNL1       -0.3865
      5 C          -0.7489   -0.0764   -0.7262 C.3     1  UNL1        0.1138
      6 C          -1.8143    0.8814   -0.2371 C.3     1  UNL1        0.0879
      7 O          -2.9190    0.0978    0.1524 O.3     1  UNL1       -0.2841
      8 P          -4.1846    1.0250    0.7202 P.3     1  UNL1        0.4724
      9 O          -4.3872    2.3739   -0.2694 O.3     1  UNL1       -0.3026
     10 O          -3.8492    1.4967    2.3054 O.3     1  UNL1       -0.3026
     11 O          -5.4341    0.1588    0.6760 O.2     1  UNL1       -0.2275
     12 O           0.4031    0.5245   -1.1467 O.3     1  UNL1       -0.3400
     13 C           1.5124    0.1039   -0.4240 C.3     1  UNL1        0.1988
     14 O           2.6705    0.7119   -0.8180 O.3     1  UNL1       -0.2540
     15 P           3.4658    1.6192    0.3249 P.3     1  UNL1        0.4747
     16 O           4.3490    2.8508   -0.4580 O.3     1  UNL1       -0.3025
     17 O           4.6532    0.6050    1.0230 O.3     1  UNL1       -0.3025
     18 O           2.6269    2.1267    1.4463 O.2     1  UNL1       -0.2274
     19 C           1.7427   -1.3910   -0.5005 C.3     1  UNL1        0.1346
     20 O           2.5035   -1.6832   -1.6218 O.3     1  UNL1       -0.3841
     21 H           0.8455   -4.0383   -0.5483 H       1  UNL1        0.2100
     22 H           0.0614   -2.2512   -1.5059 H       1  UNL1        0.0648
     23 H          -0.1911   -0.9102    1.2399 H       1  UNL1        0.0647
     24 H          -1.8023   -2.3216    1.3185 H       1  UNL1        0.2100
     25 H          -1.1999   -0.5639   -1.6392 H       1  UNL1        0.0647
     26 H          -2.1656    1.5124   -1.0664 H       1  UNL1        0.0592
     27 H          -1.4837    1.4227    0.6650 H       1  UNL1        0.0592
     28 H          -4.1253    2.1843   -1.1969 H       1  UNL1        0.2220
     29 H          -4.2515    0.8336    2.9400 H       1  UNL1        0.2220
     30 H           1.3460    0.3660    0.6409 H       1  UNL1        0.0943
     31 H           4.2237    2.8090   -1.4397 H       1  UNL1        0.2220
     32 H           4.9993    1.0512    1.8156 H       1  UNL1        0.2220
     33 H           2.3326   -1.6602    0.3901 H       1  UNL1        0.0671
     34 H           2.1549   -1.2087   -2.4108 H       1  UNL1        0.2101
@<TRIPOS>BOND
     1     1     2    1
     2     2     3    1
     3     3     4    1
     4     3     5    1
     5     5     6    1
     6     6     7    1
     7     7     8    1
     8     8     9    1
     9     8    10    1
    10     8    11    2
    11     5    12    1
    12    12    13    1
    13    13    14    1
    14    14    15    1
    15    15    16    1
    16    15    17    1
    17    15    18    2
    18    13    19    1
    19    19    20    1
    20    19     2    1
    21     1    21    1
    22     2    22    1
    23     3    23    1
    24     4    24    1
    25     5    25    1
    26     6    26    1
    27     6    27    1
    28     9    28    1
    29    10    29    1
    30    13    30    1
    31    16    31    1
    32    17    32    1
    33    19    33    1
    34    20    34    1
