
     RDKit          3D

 34 34  0  0  0  0  0  0  0  0999 V2000
    0.5265   -3.3926    0.1364 O   0  0  0  0  0  0  0  0  0  0  0  0
    0.4414   -2.1578   -0.4518 C   0  0  1  0  0  0  0  0  0  0  0  0
   -0.5490   -1.2194    0.2470 C   0  0  2  0  0  0  0  0  0  0  0  0
   -1.7524   -1.8804    0.4193 O   0  0  0  0  0  0  0  0  0  0  0  0
   -0.7489   -0.0764   -0.7262 C   0  0  1  0  0  0  0  0  0  0  0  0
   -1.8143    0.8814   -0.2371 C   0  0  0  0  0  0  0  0  0  0  0  0
   -2.9190    0.0978    0.1524 O   0  0  0  0  0  0  0  0  0  0  0  0
   -4.1846    1.0250    0.7202 P   0  0  0  0  0  0  0  0  0  0  0  0
   -4.3872    2.3739   -0.2694 O   0  0  0  0  0  0  0  0  0  0  0  0
   -3.8492    1.4967    2.3054 O   0  0  0  0  0  0  0  0  0  0  0  0
   -5.4341    0.1588    0.6760 O   0  0  0  0  0  0  0  0  0  0  0  0
    0.4031    0.5245   -1.1467 O   0  0  0  0  0  0  0  0  0  0  0  0
    1.5124    0.1039   -0.4240 C   0  0  2  0  0  0  0  0  0  0  0  0
    2.6705    0.7119   -0.8180 O   0  0  0  0  0  0  0  0  0  0  0  0
    3.4658    1.6192    0.3249 P   0  0  0  0  0  0  0  0  0  0  0  0
    4.3490    2.8508   -0.4580 O   0  0  0  0  0  0  0  0  0  0  0  0
    4.6532    0.6050    1.0230 O   0  0  0  0  0  0  0  0  0  0  0  0
    2.6269    2.1267    1.4463 O   0  0  0  0  0  0  0  0  0  0  0  0
    1.7427   -1.3910   -0.5005 C   0  0  2  0  0  0  0  0  0  0  0  0
    2.5035   -1.6832   -1.6218 O   0  0  0  0  0  0  0  0  0  0  0  0
    0.8455   -4.0383   -0.5483 H   0  0  0  0  0  0  0  0  0  0  0  0
    0.0614   -2.2512   -1.5059 H   0  0  0  0  0  0  0  0  0  0  0  0
   -0.1911   -0.9102    1.2399 H   0  0  0  0  0  0  0  0  0  0  0  0
   -1.8023   -2.3216    1.3185 H   0  0  0  0  0  0  0  0  0  0  0  0
   -1.1999   -0.5639   -1.6392 H   0  0  0  0  0  0  0  0  0  0  0  0
   -2.1656    1.5124   -1.0664 H   0  0  0  0  0  0  0  0  0  0  0  0
   -1.4837    1.4227    0.6650 H   0  0  0  0  0  0  0  0  0  0  0  0
   -4.1253    2.1843   -1.1969 H   0  0  0  0  0  0  0  0  0  0  0  0
   -4.2515    0.8336    2.9400 H   0  0  0  0  0  0  0  0  0  0  0  0
    1.3460    0.3660    0.6409 H   0  0  0  0  0  0  0  0  0  0  0  0
    4.2237    2.8090   -1.4397 H   0  0  0  0  0  0  0  0  0  0  0  0
    4.9993    1.0512    1.8156 H   0  0  0  0  0  0  0  0  0  0  0  0
    2.3326   -1.6602    0.3901 H   0  0  0  0  0  0  0  0  0  0  0  0
    2.1549   -1.2087   -2.4108 H   0  0  0  0  0  0  0  0  0  0  0  0
  1  2  1  0
  2  3  1  0
  3  4  1  0
  3  5  1  0
  5  6  1  0
  6  7  1  0
  7  8  1  0
  8  9  1  0
  8 10  1  0
  8 11  2  0
  5 12  1  0
 12 13  1  0
 13 14  1  0
 14 15  1  0
 15 16  1  0
 15 17  1  0
 15 18  2  0
 13 19  1  0
 19 20  1  0
 19  2  1  0
  1 21  1  0
  2 22  1  6
  3 23  1  1
  4 24  1  0
  5 25  1  6
  6 26  1  0
  6 27  1  0
  9 28  1  0
 10 29  1  0
 13 30  1  1
 16 31  1  0
 17 32  1  0
 19 33  1  1
 20 34  1  0
M  END
$$$$
