
     RDKit          3D

 52 55  0  0  0  0  0  0  0  0999 V2000
   -2.2710   -0.0681    2.0320 C   0  0  0  0  0  0  0  0  0  0  0  0
   -1.6889    0.7697    0.8768 C   0  0  1  0  0  0  0  0  0  0  0  0
   -0.2539    0.9796    1.2775 C   0  0  0  0  0  0  0  0  0  0  0  0
    0.8221    0.6849    0.5224 C   0  0  0  0  0  0  0  0  0  0  0  0
    2.1017    0.9203    1.0304 C   0  0  0  0  0  0  0  0  0  0  0  0
    3.2667    0.6251    0.2699 N   0  0  0  0  0  0  0  0  0  0  0  0
    3.9334   -0.6193    0.2978 C   0  0  0  0  0  0  0  0  0  0  0  0
    3.4706   -1.5173    1.0373 O   0  0  0  0  0  0  0  0  0  0  0  0
    5.1295   -0.9052   -0.4904 C   0  0  0  0  0  0  0  0  0  0  0  0
    5.6919   -2.1601   -0.3784 C   0  0  0  0  0  0  0  0  0  0  0  0
    6.8198   -2.5066   -1.0886 C   0  0  0  0  0  0  0  0  0  0  0  0
    7.3510   -1.5425   -1.9088 C   0  0  0  0  0  0  0  0  0  0  0  0
    8.7924   -1.9846   -2.8168 Cl  0  0  0  0  0  0  0  0  0  0  0  0
    6.7780   -0.3054   -2.0049 C   0  0  0  0  0  0  0  0  0  0  0  0
    5.6869   -0.0040   -1.3033 N   0  0  0  0  0  0  0  0  0  0  0  0
    2.2300    1.4490    2.2940 C   0  0  0  0  0  0  0  0  0  0  0  0
    1.1480    1.7603    3.0892 C   0  0  0  0  0  0  0  0  0  0  0  0
   -0.1040    1.5190    2.5652 C   0  0  0  0  0  0  0  0  0  0  0  0
   -1.1684    1.8364    3.3484 F   0  0  0  0  0  0  0  0  0  0  0  0
   -1.8627    0.0139   -0.3857 C   0  0  0  0  0  0  0  0  0  0  0  0
   -3.1668    0.1416   -1.0840 C   0  0  0  0  0  0  0  0  0  0  0  0
   -3.0674   -0.5330   -2.4330 C   0  0  0  0  0  0  0  0  0  0  0  0
   -3.4790   -1.9715   -2.4072 C   0  0  0  0  0  0  0  0  0  0  0  0
   -3.5446   -2.4693   -1.1073 O   0  0  0  0  0  0  0  0  0  0  0  0
   -4.5393   -1.8394   -0.3696 C   0  0  0  0  0  0  0  0  0  0  0  0
   -4.3757   -0.3296   -0.3637 C   0  0  0  0  0  0  0  0  0  0  0  0
   -3.3958    1.9361   -1.4142 S   0  0  0  0  0  0  0  0  0  0  0  0
   -3.0034    2.6991    0.1399 C   0  0  0  0  0  0  0  0  0  0  0  0
   -3.4872    3.9884    0.4458 N   0  0  0  0  0  0  0  0  0  0  0  0
   -2.2891    2.0597    0.9482 N   0  0  0  0  0  0  0  0  0  0  0  0
   -3.0947    0.4568    2.5480 H   0  0  0  0  0  0  0  0  0  0  0  0
   -2.6383   -1.0450    1.6446 H   0  0  0  0  0  0  0  0  0  0  0  0
   -1.5117   -0.3229    2.7916 H   0  0  0  0  0  0  0  0  0  0  0  0
    0.7103    0.2715   -0.4570 H   0  0  0  0  0  0  0  0  0  0  0  0
    3.6589    1.3682   -0.3491 H   0  0  0  0  0  0  0  0  0  0  0  0
    5.2745   -2.9298    0.2712 H   0  0  0  0  0  0  0  0  0  0  0  0
    7.2421   -3.4992   -0.9829 H   0  0  0  0  0  0  0  0  0  0  0  0
    7.2659    0.4020   -2.6815 H   0  0  0  0  0  0  0  0  0  0  0  0
    3.2391    1.6264    2.6752 H   0  0  0  0  0  0  0  0  0  0  0  0
    1.2474    2.1770    4.0854 H   0  0  0  0  0  0  0  0  0  0  0  0
   -1.7063   -1.0802   -0.1553 H   0  0  0  0  0  0  0  0  0  0  0  0
   -1.0821    0.2322   -1.1756 H   0  0  0  0  0  0  0  0  0  0  0  0
   -2.0593   -0.3705   -2.8535 H   0  0  0  0  0  0  0  0  0  0  0  0
   -3.7877    0.0100   -3.1063 H   0  0  0  0  0  0  0  0  0  0  0  0
   -2.7142   -2.5647   -2.9472 H   0  0  0  0  0  0  0  0  0  0  0  0
   -4.4453   -2.1558   -2.9367 H   0  0  0  0  0  0  0  0  0  0  0  0
   -5.5561   -2.1096   -0.7193 H   0  0  0  0  0  0  0  0  0  0  0  0
   -4.4716   -2.2457    0.6720 H   0  0  0  0  0  0  0  0  0  0  0  0
   -5.2629    0.1011   -0.9288 H   0  0  0  0  0  0  0  0  0  0  0  0
   -4.4966    0.0421    0.6523 H   0  0  0  0  0  0  0  0  0  0  0  0
   -3.9578    4.2540    1.3370 H   0  0  0  0  0  0  0  0  0  0  0  0
   -3.3786    4.7547   -0.2564 H   0  0  0  0  0  0  0  0  0  0  0  0
  2  1  1  1
  2  3  1  0
  3  4  2  0
  4  5  1  0
  5  6  1  0
  6  7  1  0
  7  8  2  0
  7  9  1  0
  9 10  2  0
 10 11  1  0
 11 12  2  0
 12 13  1  0
 12 14  1  0
 14 15  2  0
  5 16  2  0
 16 17  1  0
 17 18  2  0
 18 19  1  0
  2 20  1  0
 20 21  1  0
 21 22  1  0
 22 23  1  0
 23 24  1  0
 24 25  1  0
 25 26  1  0
 21 27  1  0
 27 28  1  0
 28 29  1  0
 28 30  2  0
 30  2  1  0
 18  3  1  0
 26 21  1  0
 15  9  1  0
  1 31  1  0
  1 32  1  0
  1 33  1  0
  4 34  1  0
  6 35  1  0
 10 36  1  0
 11 37  1  0
 14 38  1  0
 16 39  1  0
 17 40  1  0
 20 41  1  0
 20 42  1  0
 22 43  1  0
 22 44  1  0
 23 45  1  0
 23 46  1  0
 25 47  1  0
 25 48  1  0
 26 49  1  0
 26 50  1  0
 29 51  1  0
 29 52  1  0
M  END
$$$$
