@<TRIPOS>MOLECULE
*****
 52 55 0 0 0
SMALL
GASTEIGER

@<TRIPOS>ATOM
      1 C          -2.2710   -0.0681    2.0320 C.3     1  UNL1       -0.0354
      2 C          -1.6889    0.7697    0.8768 C.3     1  UNL1        0.0903
      3 C          -0.2539    0.9796    1.2775 C.ar    1  UNL1        0.0167
      4 C           0.8221    0.6849    0.5224 C.ar    1  UNL1       -0.0323
      5 C           2.1017    0.9203    1.0304 C.ar    1  UNL1        0.0342
      6 N           3.2667    0.6251    0.2699 N.am    1  UNL1       -0.2802
      7 C           3.9334   -0.6193    0.2978 C.2     1  UNL1        0.2666
      8 O           3.4706   -1.5173    1.0373 O.2     1  UNL1       -0.2682
      9 C           5.1295   -0.9052   -0.4904 C.ar    1  UNL1        0.1257
     10 C           5.6919   -2.1601   -0.3784 C.ar    1  UNL1       -0.0298
     11 C           6.8198   -2.5066   -1.0886 C.ar    1  UNL1       -0.0397
     12 C           7.3510   -1.5425   -1.9088 C.ar    1  UNL1        0.0591
     13 CL          8.7924   -1.9846   -2.8168 Cl      1  UNL1       -0.0820
     14 C           6.7780   -0.3054   -2.0049 C.ar    1  UNL1        0.0467
     15 N           5.6869   -0.0040   -1.3033 N.ar    1  UNL1       -0.2489
     16 C           2.2300    1.4490    2.2940 C.ar    1  UNL1       -0.0377
     17 C           1.1480    1.7603    3.0892 C.ar    1  UNL1       -0.0243
     18 C          -0.1040    1.5190    2.5652 C.ar    1  UNL1        0.1290
     19 F          -1.1684    1.8364    3.3484 F       1  UNL1       -0.2051
     20 C          -1.8627    0.0139   -0.3857 C.3     1  UNL1       -0.0084
     21 C          -3.1668    0.1416   -1.0840 C.3     1  UNL1        0.0305
     22 C          -3.0674   -0.5330   -2.4330 C.3     1  UNL1       -0.0142
     23 C          -3.4790   -1.9715   -2.4072 C.3     1  UNL1        0.0489
     24 O          -3.5446   -2.4693   -1.1073 O.3     1  UNL1       -0.3797
     25 C          -4.5393   -1.8394   -0.3696 C.3     1  UNL1        0.0489
     26 C          -4.3757   -0.3296   -0.3637 C.3     1  UNL1       -0.0142
     27 S          -3.3958    1.9361   -1.4142 S.3     1  UNL1       -0.0841
     28 C          -3.0034    2.6991    0.1399 C.2     1  UNL1        0.1480
     29 N          -3.4872    3.9884    0.4458 N.pl3   1  UNL1       -0.3380
     30 N          -2.2891    2.0597    0.9482 N.2     1  UNL1       -0.2524
     31 H          -3.0947    0.4568    2.5480 H       1  UNL1        0.0256
     32 H          -2.6383   -1.0450    1.6446 H       1  UNL1        0.0256
     33 H          -1.5117   -0.3229    2.7916 H       1  UNL1        0.0256
     34 H           0.7103    0.2715   -0.4570 H       1  UNL1        0.0640
     35 H           3.6589    1.3682   -0.3491 H       1  UNL1        0.1552
     36 H           5.2745   -2.9298    0.2712 H       1  UNL1        0.0641
     37 H           7.2421   -3.4992   -0.9829 H       1  UNL1        0.0633
     38 H           7.2659    0.4020   -2.6815 H       1  UNL1        0.0844
     39 H           3.2391    1.6264    2.6752 H       1  UNL1        0.0637
     40 H           1.2474    2.1770    4.0854 H       1  UNL1        0.0647
     41 H          -1.7063   -1.0802   -0.1553 H       1  UNL1        0.0305
     42 H          -1.0821    0.2322   -1.1756 H       1  UNL1        0.0305
     43 H          -2.0593   -0.3705   -2.8535 H       1  UNL1        0.0301
     44 H          -3.7877    0.0100   -3.1063 H       1  UNL1        0.0301
     45 H          -2.7142   -2.5647   -2.9472 H       1  UNL1        0.0560
     46 H          -4.4453   -2.1558   -2.9367 H       1  UNL1        0.0560
     47 H          -5.5561   -2.1096   -0.7193 H       1  UNL1        0.0560
     48 H          -4.4716   -2.2457    0.6720 H       1  UNL1        0.0560
     49 H          -5.2629    0.1011   -0.9288 H       1  UNL1        0.0301
     50 H          -4.4966    0.0421    0.6523 H       1  UNL1        0.0301
     51 H          -3.9578    4.2540    1.3370 H       1  UNL1        0.1442
     52 H          -3.3786    4.7547   -0.2564 H       1  UNL1        0.1442
@<TRIPOS>BOND
     1     2     1    1
     2     2     3    1
     3     3     4   ar
     4     4     5   ar
     5     5     6    1
     6     6     7   am
     7     7     8    2
     8     7     9    1
     9     9    10   ar
    10    10    11   ar
    11    11    12   ar
    12    12    13    1
    13    12    14   ar
    14    14    15   ar
    15     5    16   ar
    16    16    17   ar
    17    17    18   ar
    18    18    19    1
    19     2    20    1
    20    20    21    1
    21    21    22    1
    22    22    23    1
    23    23    24    1
    24    24    25    1
    25    25    26    1
    26    21    27    1
    27    27    28    1
    28    28    29    1
    29    28    30    2
    30    30     2    1
    31    18     3   ar
    32    26    21    1
    33    15     9   ar
    34     1    31    1
    35     1    32    1
    36     1    33    1
    37     4    34    1
    38     6    35    1
    39    10    36    1
    40    11    37    1
    41    14    38    1
    42    16    39    1
    43    17    40    1
    44    20    41    1
    45    20    42    1
    46    22    43    1
    47    22    44    1
    48    23    45    1
    49    23    46    1
    50    25    47    1
    51    25    48    1
    52    26    49    1
    53    26    50    1
    54    29    51    1
    55    29    52    1
