@<TRIPOS>MOLECULE
*****
 56 60 0 0 0
SMALL
GASTEIGER

@<TRIPOS>ATOM
      1 N          -0.9462   -2.1137    1.3643 N.pl3   1  UNL1       -0.3426
      2 C          -2.0821   -1.3055    1.0405 C.ar    1  UNL1        0.1250
      3 N          -3.2456   -1.7304    1.5062 N.ar    1  UNL1       -0.2394
      4 C          -4.4177   -1.1467    1.3035 C.ar    1  UNL1        0.0386
      5 C          -4.4038    0.0105    0.5324 C.ar    1  UNL1        0.0176
      6 C          -5.6470    0.7034    0.2677 C.ar    1  UNL1        0.0221
      7 C          -5.8617    2.0501    0.3453 C.ar    1  UNL1        0.0572
      8 N          -7.1505    2.2600    0.0199 N.ar    1  UNL1       -0.1790
      9 N          -7.7502    1.1134   -0.2566 N.ar    1  UNL1       -0.2687
     10 C          -9.1354    0.9082   -0.6497 C.3     1  UNL1        0.0646
     11 C          -9.9972    0.6983    0.5642 C.3     1  UNL1        0.0637
     12 O          -9.9497    1.7877    1.4100 O.3     1  UNL1       -0.3932
     13 C          -6.8251    0.1185   -0.1079 C.ar    1  UNL1        0.0334
     14 C          -3.1973    0.4712    0.0363 C.ar    1  UNL1        0.0324
     15 S          -2.7711    1.8767   -0.9873 S.2     1  UNL1       -0.0953
     16 C          -0.9740    1.5597   -1.0654 C.ar    1  UNL1       -0.0153
     17 C          -0.8765    0.3987   -0.2924 C.ar    1  UNL1        0.0002
     18 C           0.5084   -0.1130   -0.1050 C.ar    1  UNL1       -0.0166
     19 C           1.1171   -0.2518    1.1066 C.ar    1  UNL1       -0.0522
     20 C           2.4173   -0.7575    1.2225 C.ar    1  UNL1       -0.0399
     21 C           3.0799   -1.1173    0.0676 C.ar    1  UNL1        0.0348
     22 N           4.3983   -1.6398    0.0706 N.am    1  UNL1       -0.2692
     23 C           5.5065   -0.7422   -0.0250 C.2     1  UNL1        0.3081
     24 O           5.2279    0.4680   -0.1064 O.2     1  UNL1       -0.2522
     25 N           6.8387   -1.1908   -0.0278 N.am    1  UNL1       -0.2691
     26 C           8.0018   -0.3721   -0.1192 C.ar    1  UNL1        0.0375
     27 C           9.2490   -1.0180   -0.1053 C.ar    1  UNL1       -0.0403
     28 C          10.4186   -0.3080   -0.1889 C.ar    1  UNL1       -0.0573
     29 C          10.4306    1.0635   -0.2899 C.ar    1  UNL1       -0.0263
     30 C           9.2110    1.6828   -0.3026 C.ar    1  UNL1        0.1252
     31 F           9.1859    3.0408   -0.4016 F       1  UNL1       -0.2054
     32 C           8.0171    0.9787   -0.2188 C.ar    1  UNL1       -0.0052
     33 C           2.4570   -0.9733   -1.1567 C.ar    1  UNL1       -0.0399
     34 C           1.1831   -0.4755   -1.2388 C.ar    1  UNL1       -0.0522
     35 C          -1.9624   -0.1361    0.2461 C.ar    1  UNL1        0.0370
     36 H          -0.4092   -2.6550    0.6535 H       1  UNL1        0.1437
     37 H          -0.6075   -2.1927    2.3605 H       1  UNL1        0.1437
     38 H          -5.3245   -1.5123    1.6897 H       1  UNL1        0.0837
     39 H          -5.1886    2.8548    0.6072 H       1  UNL1        0.0854
     40 H          -9.2195    0.0254   -1.3192 H       1  UNL1        0.0531
     41 H          -9.4463    1.8090   -1.2242 H       1  UNL1        0.0531
     42 H          -9.6606   -0.2451    1.0439 H       1  UNL1        0.0575
     43 H         -11.0499    0.6153    0.2024 H       1  UNL1        0.0575
     44 H          -9.6476    1.4416    2.3045 H       1  UNL1        0.2095
     45 H          -7.0607   -0.9244   -0.2761 H       1  UNL1        0.0832
     46 H          -0.2900    2.1847   -1.6018 H       1  UNL1        0.0700
     47 H           0.5935    0.0458    1.9972 H       1  UNL1        0.0624
     48 H           2.8976   -0.8680    2.1738 H       1  UNL1        0.0636
     49 H           4.5403   -2.6658    0.1421 H       1  UNL1        0.1564
     50 H           6.9888   -2.2487    0.0458 H       1  UNL1        0.1564
     51 H           9.2867   -2.1117   -0.0260 H       1  UNL1        0.0636
     52 H          11.3736   -0.8243   -0.1766 H       1  UNL1        0.0619
     53 H          11.3777    1.5734   -0.3528 H       1  UNL1        0.0646
     54 H           7.0878    1.5355   -0.2347 H       1  UNL1        0.0665
     55 H           2.9723   -1.2555   -2.0867 H       1  UNL1        0.0636
     56 H           0.7314   -0.3806   -2.2404 H       1  UNL1        0.0624
@<TRIPOS>BOND
     1     1     2    1
     2     2     3   ar
     3     3     4   ar
     4     4     5   ar
     5     5     6    1
     6     6     7   ar
     7     7     8   ar
     8     8     9   ar
     9     9    10    1
    10    10    11    1
    11    11    12    1
    12     9    13   ar
    13     5    14   ar
    14    14    15   ar
    15    15    16   ar
    16    16    17   ar
    17    17    18    1
    18    18    19   ar
    19    19    20   ar
    20    20    21   ar
    21    21    22    1
    22    22    23   am
    23    23    24    2
    24    23    25   am
    25    25    26    1
    26    26    27   ar
    27    27    28   ar
    28    28    29   ar
    29    29    30   ar
    30    30    31    1
    31    30    32   ar
    32    21    33   ar
    33    33    34   ar
    34    17    35   ar
    35    35     2   ar
    36    13     6   ar
    37    35    14   ar
    38    34    18   ar
    39    32    26   ar
    40     1    36    1
    41     1    37    1
    42     4    38    1
    43     7    39    1
    44    10    40    1
    45    10    41    1
    46    11    42    1
    47    11    43    1
    48    12    44    1
    49    13    45    1
    50    16    46    1
    51    19    47    1
    52    20    48    1
    53    22    49    1
    54    25    50    1
    55    27    51    1
    56    28    52    1
    57    29    53    1
    58    32    54    1
    59    33    55    1
    60    34    56    1
