@<TRIPOS>MOLECULE
*****
 24 24 0 0 0
SMALL
GASTEIGER

@<TRIPOS>ATOM
      1 N          -1.7550    1.1267   -1.0697 N.3     1  UNL1       -0.3170
      2 CA         -1.7682   -0.1822   -0.4456 C.3     1  UNL1        0.1213
      3 C          -0.8671   -0.2015    0.7449 C.3     1  UNL1        0.0484
      4 N           0.5114    0.0982    0.4361 N.ar    1  UNL1       -0.3478
      5 C           1.0481    1.3316    0.4379 C.ar    1  UNL1        0.0085
      6 C           2.3641    1.5971    0.1408 C.ar    1  UNL1        0.0049
      7 C           3.1459    0.5215   -0.1705 C.ar    1  UNL1        0.2228
      8 O           4.3696    0.6814   -0.4563 O.2     1  UNL1       -0.2839
      9 C           2.6910   -0.7684   -0.1988 C.ar    1  UNL1        0.1801
     10 O           3.4239   -1.9071   -0.5048 O.3     1  UNL1       -0.5022
     11 C           1.3415   -0.9242    0.1187 C.ar    1  UNL1        0.0502
     12 C          -3.1641   -0.3941    0.0786 C.2     1  UNL1        0.3235
     13 O          -3.2391   -1.6557    0.6989 O.3     1  UNL1       -0.4795
     14 OXT        -4.2245    0.2830    0.0798 O.2     1  UNL1       -0.2492
     15 H1         -2.0540    1.1271   -2.0574 H       1  UNL1        0.1190
     16 H2         -2.2415    1.8190   -0.4634 H       1  UNL1        0.1190
     17 HA         -1.5582   -0.9788   -1.1824 H       1  UNL1        0.0592
     18 H          -1.2795    0.5552    1.4640 H       1  UNL1        0.0512
     19 H          -0.9795   -1.1844    1.2512 H       1  UNL1        0.0512
     20 H           0.3650    2.1431    0.6959 H       1  UNL1        0.0810
     21 H           2.7799    2.5962    0.1469 H       1  UNL1        0.0671
     22 H           4.2276   -1.8121   -1.0939 H       1  UNL1        0.2923
     23 H           0.9310   -1.9252    0.1110 H       1  UNL1        0.0847
     24 H          -4.0682   -1.9465    1.2382 H       1  UNL1        0.2951
@<TRIPOS>BOND
     1     1     2    1
     2     2     3    1
     3     3     4    1
     4     4     5   ar
     5     5     6   ar
     6     6     7   ar
     7     7     8    2
     8     7     9   ar
     9     9    10    1
    10     9    11   ar
    11     2    12    1
    12    12    13    1
    13    12    14    2
    14    11     4   ar
    15     1    15    1
    16     1    16    1
    17     2    17    1
    18     3    18    1
    19     3    19    1
    20     5    20    1
    21     6    21    1
    22    10    22    1
    23    11    23    1
    24    13    24    1
