
     RDKit          3D

 24 24  0  0  0  0  0  0  0  0999 V2000
   -1.7550    1.1267   -1.0697 N   0  0  0  0  0  0  0  0  0  0  0  0
   -1.7682   -0.1822   -0.4456 C   0  0  1  0  0  0  0  0  0  0  0  0
   -0.8671   -0.2015    0.7449 C   0  0  0  0  0  0  0  0  0  0  0  0
    0.5114    0.0982    0.4361 N   0  0  0  0  0  0  0  0  0  0  0  0
    1.0481    1.3316    0.4379 C   0  0  0  0  0  0  0  0  0  0  0  0
    2.3641    1.5971    0.1408 C   0  0  0  0  0  0  0  0  0  0  0  0
    3.1459    0.5215   -0.1705 C   0  0  0  0  0  0  0  0  0  0  0  0
    4.3696    0.6814   -0.4563 O   0  0  0  0  0  0  0  0  0  0  0  0
    2.6910   -0.7684   -0.1988 C   0  0  0  0  0  0  0  0  0  0  0  0
    3.4239   -1.9071   -0.5048 O   0  0  0  0  0  0  0  0  0  0  0  0
    1.3415   -0.9242    0.1187 C   0  0  0  0  0  0  0  0  0  0  0  0
   -3.1641   -0.3941    0.0786 C   0  0  0  0  0  0  0  0  0  0  0  0
   -3.2391   -1.6557    0.6989 O   0  0  0  0  0  0  0  0  0  0  0  0
   -4.2245    0.2830    0.0798 O   0  0  0  0  0  0  0  0  0  0  0  0
   -2.0540    1.1271   -2.0574 H   0  0  0  0  0  0  0  0  0  0  0  0
   -2.2415    1.8190   -0.4634 H   0  0  0  0  0  0  0  0  0  0  0  0
   -1.5582   -0.9788   -1.1824 H   0  0  0  0  0  0  0  0  0  0  0  0
   -1.2795    0.5552    1.4640 H   0  0  0  0  0  0  0  0  0  0  0  0
   -0.9795   -1.1844    1.2512 H   0  0  0  0  0  0  0  0  0  0  0  0
    0.3650    2.1431    0.6959 H   0  0  0  0  0  0  0  0  0  0  0  0
    2.7799    2.5962    0.1469 H   0  0  0  0  0  0  0  0  0  0  0  0
    4.2276   -1.8121   -1.0939 H   0  0  0  0  0  0  0  0  0  0  0  0
    0.9310   -1.9252    0.1110 H   0  0  0  0  0  0  0  0  0  0  0  0
   -4.0682   -1.9465    1.2382 H   0  0  0  0  0  0  0  0  0  0  0  0
  1  2  1  0
  2  3  1  0
  3  4  1  0
  4  5  1  0
  5  6  2  0
  6  7  1  0
  7  8  2  0
  7  9  1  0
  9 10  1  0
  9 11  2  0
  2 12  1  0
 12 13  1  0
 12 14  2  0
 11  4  1  0
  1 15  1  0
  1 16  1  0
  2 17  1  6
  3 18  1  0
  3 19  1  0
  5 20  1  0
  6 21  1  0
 10 22  1  0
 11 23  1  0
 13 24  1  0
M  END
$$$$
