@<TRIPOS>MOLECULE
*****
 56 59 0 0 0
SMALL
GASTEIGER

@<TRIPOS>ATOM
      1 C          -4.5976   -2.5823    0.4416 C.3     1  UNL1       -0.0129
      2 N          -3.7100   -2.4597   -0.6788 N.3     1  UNL1       -0.3051
      3 C          -4.4857   -2.2514   -1.8723 C.3     1  UNL1       -0.0129
      4 C          -2.7637   -1.3743   -0.4641 C.3     1  UNL1        0.0325
      5 C          -1.7754   -1.6922    0.6369 C.3     1  UNL1        0.1023
      6 O          -0.8519   -0.7138    0.8959 O.3     1  UNL1       -0.4888
      7 C          -0.9601    0.5706    1.3477 C.ar    1  UNL1        0.1422
      8 C          -2.1368    1.1987    1.6918 C.ar    1  UNL1       -0.0103
      9 C          -2.2007    2.5113    2.1521 C.ar    1  UNL1       -0.0114
     10 C          -3.4630    3.1335    2.5008 C.ar    1  UNL1        0.0194
     11 C          -3.6682    4.0904    3.4539 C.ar    1  UNL1        0.0568
     12 N          -4.9944    4.3921    3.4457 N.ar    1  UNL1       -0.1817
     13 N          -5.6038    3.6676    2.5368 N.ar    1  UNL1       -0.2841
     14 C          -4.6732    2.8666    1.9248 C.ar    1  UNL1        0.0300
     15 C          -1.0042    3.1960    2.2599 C.ar    1  UNL1       -0.0520
     16 C           0.1645    2.5773    1.9199 C.ar    1  UNL1       -0.0363
     17 C           0.2489    1.2952    1.4677 C.ar    1  UNL1        0.0756
     18 N           1.4775    0.6564    1.0988 N.am    1  UNL1       -0.2823
     19 C           1.9866    0.6672   -0.2033 C.2     1  UNL1        0.2239
     20 O           1.3573    1.2589   -1.1109 O.2     1  UNL1       -0.2750
     21 C           3.2483   -0.0071   -0.5219 C.3     1  UNL1        0.0739
     22 C           3.2125   -1.4895   -0.1810 C.3     1  UNL1        0.1010
     23 O           4.5612   -1.9245   -0.2702 O.3     1  UNL1       -0.4909
     24 C           5.3545   -1.5813   -1.3786 C.ar    1  UNL1        0.1237
     25 C           6.5610   -2.2174   -1.6113 C.ar    1  UNL1       -0.0197
     26 C           7.3191   -1.8678   -2.6976 C.ar    1  UNL1       -0.0583
     27 C           6.8535   -0.8756   -3.5450 C.ar    1  UNL1       -0.0613
     28 C           5.6544   -0.2510   -3.3043 C.ar    1  UNL1       -0.0551
     29 C           4.8825   -0.5948   -2.2133 C.ar    1  UNL1       -0.0049
     30 C           3.6011    0.0864   -1.9874 C.3     1  UNL1       -0.0099
     31 H          -5.3251   -3.4146    0.1993 H       1  UNL1        0.0391
     32 H          -4.1184   -2.8826    1.3880 H       1  UNL1        0.0391
     33 H          -5.1917   -1.6579    0.6097 H       1  UNL1        0.0391
     34 H          -4.0266   -2.7283   -2.7719 H       1  UNL1        0.0391
     35 H          -5.4603   -2.7791   -1.7197 H       1  UNL1        0.0391
     36 H          -4.5976   -1.1750   -2.0747 H       1  UNL1        0.0391
     37 H          -2.1484   -1.2572   -1.4128 H       1  UNL1        0.0460
     38 H          -3.3277   -0.4557   -0.3288 H       1  UNL1        0.0460
     39 H          -1.3113   -2.6715    0.3328 H       1  UNL1        0.0709
     40 H          -2.3523   -1.9857    1.5710 H       1  UNL1        0.0709
     41 H          -3.0833    0.6905    1.6350 H       1  UNL1        0.0661
     42 H          -2.8929    4.5256    4.0997 H       1  UNL1        0.0854
     43 H          -6.6308    3.7218    2.3408 H       1  UNL1        0.1882
     44 H          -4.8961    2.1527    1.1215 H       1  UNL1        0.0830
     45 H          -1.0706    4.2148    2.6195 H       1  UNL1        0.0624
     46 H           1.0866    3.1383    2.0145 H       1  UNL1        0.0637
     47 H           2.0107    0.1612    1.8457 H       1  UNL1        0.1549
     48 H           4.1008    0.4229    0.0437 H       1  UNL1        0.0431
     49 H           2.8308   -1.6743    0.8369 H       1  UNL1        0.0704
     50 H           2.5776   -1.9795   -0.9249 H       1  UNL1        0.0704
     51 H           6.9109   -2.9825   -0.9506 H       1  UNL1        0.0654
     52 H           8.2632   -2.3094   -2.9491 H       1  UNL1        0.0619
     53 H           7.4107   -0.5664   -4.4140 H       1  UNL1        0.0618
     54 H           5.2836    0.5201   -3.9547 H       1  UNL1        0.0621
     55 H           2.7709   -0.4465   -2.5363 H       1  UNL1        0.0323
     56 H           3.5931    1.1327   -2.3549 H       1  UNL1        0.0323
@<TRIPOS>BOND
     1     1     2    1
     2     2     3    1
     3     2     4    1
     4     4     5    1
     5     5     6    1
     6     6     7    1
     7     7     8   ar
     8     8     9   ar
     9     9    10    1
    10    10    11   ar
    11    11    12   ar
    12    12    13   ar
    13    13    14   ar
    14     9    15   ar
    15    15    16   ar
    16    16    17   ar
    17    17    18    1
    18    18    19   am
    19    19    20    2
    20    19    21    1
    21    21    22    1
    22    22    23    1
    23    23    24    1
    24    24    25   ar
    25    25    26   ar
    26    26    27   ar
    27    27    28   ar
    28    28    29   ar
    29    29    30    1
    30    17     7   ar
    31    30    21    1
    32    14    10   ar
    33    29    24   ar
    34     1    31    1
    35     1    32    1
    36     1    33    1
    37     3    34    1
    38     3    35    1
    39     3    36    1
    40     4    37    1
    41     4    38    1
    42     5    39    1
    43     5    40    1
    44     8    41    1
    45    11    42    1
    46    13    43    1
    47    14    44    1
    48    15    45    1
    49    16    46    1
    50    18    47    1
    51    21    48    1
    52    22    49    1
    53    22    50    1
    54    25    51    1
    55    26    52    1
    56    27    53    1
    57    28    54    1
    58    30    55    1
    59    30    56    1
