@<TRIPOS>MOLECULE
*****
 75 80 0 0 0
SMALL
GASTEIGER

@<TRIPOS>ATOM
      1 C          -2.8227    7.9842    0.6481 C.3     1  UNL1        0.0804
      2 O          -2.1748    6.7507    0.8413 O.3     1  UNL1       -0.4795
      3 C          -2.3044    5.6814   -0.0257 C.ar    1  UNL1        0.2191
      4 C          -1.6273    4.5015    0.2451 C.ar    1  UNL1        0.0404
      5 C          -1.7212    3.4063   -0.5848 C.ar    1  UNL1        0.1364
      6 N          -1.0540    2.1883   -0.3502 N.am    1  UNL1       -0.2240
      7 C           0.2737    1.9171   -0.8542 C.2     1  UNL1        0.3219
      8 O           0.7877    2.4705   -1.8590 O.2     1  UNL1       -0.2512
      9 N           0.8207    0.9239    0.0217 N.am    1  UNL1       -0.1905
     10 C           2.1364    0.3401   -0.0780 C.ar    1  UNL1        0.0636
     11 C           3.0394    0.7750   -1.0197 C.ar    1  UNL1       -0.0363
     12 C           4.2820    0.1842   -1.0920 C.ar    1  UNL1       -0.0339
     13 C           4.6134   -0.8379   -0.2216 C.ar    1  UNL1        0.0713
     14 C           5.9340   -1.5045   -0.2581 C.ar    1  UNL1        0.0033
     15 C           6.8883   -1.1052   -1.1926 C.ar    1  UNL1       -0.0515
     16 C           8.1356   -1.6989   -1.2633 C.ar    1  UNL1       -0.0471
     17 C           8.4319   -2.7103   -0.3827 C.ar    1  UNL1        0.0591
     18 C           9.7370   -3.3823   -0.4040 C.2     1  UNL1        0.3368
     19 O          10.6346   -3.0662   -1.2194 O.2     1  UNL1       -0.2451
     20 O           9.9981   -4.4000    0.5003 O.3     1  UNL1       -0.4771
     21 C           7.4816   -3.0968    0.5363 C.ar    1  UNL1       -0.0442
     22 C           6.2148   -2.5005    0.6151 C.ar    1  UNL1       -0.0405
     23 C           5.2462   -2.9785    1.6405 C.3     1  UNL1       -0.0391
     24 N           3.7052   -1.2357    0.6846 N.ar    1  UNL1       -0.2531
     25 C           2.4940   -0.6819    0.7774 C.ar    1  UNL1        0.0501
     26 C          -0.1567    0.6262    1.0055 C.2     1  UNL1        0.2516
     27 O           0.0375    0.1559    2.1365 O.2     1  UNL1       -0.2724
     28 C          -1.4478    1.0101    0.3629 C.3     1  UNL1        0.1240
     29 C          -2.4610    1.2556    1.4304 C.3     1  UNL1       -0.0095
     30 C          -2.9194   -0.0490    2.0077 C.3     1  UNL1        0.0017
     31 N          -3.4401   -0.9571    1.0229 N.3     1  UNL1       -0.2965
     32 C          -4.7214   -0.5304    0.4965 C.3     1  UNL1        0.0415
     33 C          -5.2015   -1.4912   -0.5076 C.ar    1  UNL1        0.0581
     34 N          -5.1481   -1.2302   -1.8385 N.ar    1  UNL1       -0.2583
     35 C          -5.5922   -2.1195   -2.7417 C.ar    1  UNL1        0.0279
     36 C          -6.1271   -3.3464   -2.3756 C.ar    1  UNL1       -0.0433
     37 C          -6.1944   -3.6396   -1.0286 C.ar    1  UNL1       -0.0557
     38 C          -5.7277   -2.6985   -0.1398 C.ar    1  UNL1       -0.0279
     39 C          -5.8051   -3.0256    1.3053 C.3     1  UNL1       -0.0380
     40 C          -2.4869   -1.2399   -0.0032 C.3     1  UNL1        0.0017
     41 C          -1.9450    0.0056   -0.6220 C.3     1  UNL1       -0.0095
     42 N          -2.5001    3.5355   -1.6691 N.ar    1  UNL1       -0.2200
     43 C          -3.1693    4.6575   -1.9649 C.ar    1  UNL1        0.1219
     44 N          -3.0587    5.7293   -1.1245 N.ar    1  UNL1       -0.2013
     45 H          -2.5336    8.4821   -0.2914 H       1  UNL1        0.0660
     46 H          -2.4790    8.6716    1.4684 H       1  UNL1        0.0660
     47 H          -3.9347    7.9091    0.7281 H       1  UNL1        0.0660
     48 H          -1.0093    4.4427    1.1331 H       1  UNL1        0.0705
     49 H           2.8046    1.5821   -1.7179 H       1  UNL1        0.0637
     50 H           4.9516    0.5553   -1.8408 H       1  UNL1        0.0639
     51 H           6.6535   -0.3123   -1.8828 H       1  UNL1        0.0624
     52 H           8.8728   -1.3742   -2.0025 H       1  UNL1        0.0626
     53 H          10.8704   -4.9509    0.4799 H       1  UNL1        0.2954
     54 H           7.6850   -3.8923    1.2447 H       1  UNL1        0.0628
     55 H           4.9760   -2.1799    2.3398 H       1  UNL1        0.0278
     56 H           4.3544   -3.3889    1.1386 H       1  UNL1        0.0278
     57 H           5.7557   -3.7821    2.2499 H       1  UNL1        0.0278
     58 H           1.8008   -1.0587    1.5344 H       1  UNL1        0.0849
     59 H          -3.3623    1.7584    0.9915 H       1  UNL1        0.0303
     60 H          -2.0684    1.8650    2.2717 H       1  UNL1        0.0303
     61 H          -3.7353    0.1814    2.7334 H       1  UNL1        0.0427
     62 H          -2.1404   -0.5799    2.5741 H       1  UNL1        0.0427
     63 H          -5.4442   -0.2888    1.2728 H       1  UNL1        0.0491
     64 H          -4.5194    0.4389   -0.0464 H       1  UNL1        0.0491
     65 H          -5.5547   -1.9223   -3.8164 H       1  UNL1        0.0829
     66 H          -6.4779   -4.0428   -3.1392 H       1  UNL1        0.0633
     67 H          -6.6109   -4.5971   -0.7305 H       1  UNL1        0.0621
     68 H          -6.7230   -3.6444    1.4663 H       1  UNL1        0.0278
     69 H          -5.8870   -2.1581    1.9565 H       1  UNL1        0.0278
     70 H          -4.9460   -3.7053    1.5729 H       1  UNL1        0.0278
     71 H          -2.9631   -1.8501   -0.7970 H       1  UNL1        0.0427
     72 H          -1.6302   -1.7872    0.4709 H       1  UNL1        0.0427
     73 H          -2.7891    0.4963   -1.1789 H       1  UNL1        0.0303
     74 H          -1.1963   -0.2390   -1.4059 H       1  UNL1        0.0303
     75 H          -3.8050    4.7988   -2.8270 H       1  UNL1        0.1049
@<TRIPOS>BOND
     1     1     2    1
     2     2     3    1
     3     3     4   ar
     4     4     5   ar
     5     5     6    1
     6     6     7   am
     7     7     8    2
     8     7     9   am
     9     9    10    1
    10    10    11   ar
    11    11    12   ar
    12    12    13   ar
    13    13    14    1
    14    14    15   ar
    15    15    16   ar
    16    16    17   ar
    17    17    18    1
    18    18    19    2
    19    18    20    1
    20    17    21   ar
    21    21    22   ar
    22    22    23    1
    23    13    24   ar
    24    24    25   ar
    25     9    26   am
    26    26    27    2
    27    26    28    1
    28    28    29    1
    29    29    30    1
    30    30    31    1
    31    31    32    1
    32    32    33    1
    33    33    34   ar
    34    34    35   ar
    35    35    36   ar
    36    36    37   ar
    37    37    38   ar
    38    38    39    1
    39    31    40    1
    40    40    41    1
    41     5    42   ar
    42    42    43   ar
    43    43    44   ar
    44    44     3   ar
    45    28     6    1
    46    38    33   ar
    47    25    10   ar
    48    41    28    1
    49    22    14   ar
    50     1    45    1
    51     1    46    1
    52     1    47    1
    53     4    48    1
    54    11    49    1
    55    12    50    1
    56    15    51    1
    57    16    52    1
    58    20    53    1
    59    21    54    1
    60    23    55    1
    61    23    56    1
    62    23    57    1
    63    25    58    1
    64    29    59    1
    65    29    60    1
    66    30    61    1
    67    30    62    1
    68    32    63    1
    69    32    64    1
    70    35    65    1
    71    36    66    1
    72    37    67    1
    73    39    68    1
    74    39    69    1
    75    39    70    1
    76    40    71    1
    77    40    72    1
    78    41    73    1
    79    41    74    1
    80    43    75    1
