
     RDKit          3D

 75 80  0  0  0  0  0  0  0  0999 V2000
   -2.8227    7.9842    0.6481 C   0  0  0  0  0  0  0  0  0  0  0  0
   -2.1748    6.7507    0.8413 O   0  0  0  0  0  0  0  0  0  0  0  0
   -2.3044    5.6814   -0.0257 C   0  0  0  0  0  0  0  0  0  0  0  0
   -1.6273    4.5015    0.2451 C   0  0  0  0  0  0  0  0  0  0  0  0
   -1.7212    3.4063   -0.5848 C   0  0  0  0  0  0  0  0  0  0  0  0
   -1.0540    2.1883   -0.3502 N   0  0  0  0  0  0  0  0  0  0  0  0
    0.2737    1.9171   -0.8542 C   0  0  0  0  0  0  0  0  0  0  0  0
    0.7877    2.4705   -1.8590 O   0  0  0  0  0  0  0  0  0  0  0  0
    0.8207    0.9239    0.0217 N   0  0  0  0  0  0  0  0  0  0  0  0
    2.1364    0.3401   -0.0780 C   0  0  0  0  0  0  0  0  0  0  0  0
    3.0394    0.7750   -1.0197 C   0  0  0  0  0  0  0  0  0  0  0  0
    4.2820    0.1842   -1.0920 C   0  0  0  0  0  0  0  0  0  0  0  0
    4.6134   -0.8379   -0.2216 C   0  0  0  0  0  0  0  0  0  0  0  0
    5.9340   -1.5045   -0.2581 C   0  0  0  0  0  0  0  0  0  0  0  0
    6.8883   -1.1052   -1.1926 C   0  0  0  0  0  0  0  0  0  0  0  0
    8.1356   -1.6989   -1.2633 C   0  0  0  0  0  0  0  0  0  0  0  0
    8.4319   -2.7103   -0.3827 C   0  0  0  0  0  0  0  0  0  0  0  0
    9.7370   -3.3823   -0.4040 C   0  0  0  0  0  0  0  0  0  0  0  0
   10.6346   -3.0662   -1.2194 O   0  0  0  0  0  0  0  0  0  0  0  0
    9.9981   -4.4000    0.5003 O   0  0  0  0  0  0  0  0  0  0  0  0
    7.4816   -3.0968    0.5363 C   0  0  0  0  0  0  0  0  0  0  0  0
    6.2148   -2.5005    0.6151 C   0  0  0  0  0  0  0  0  0  0  0  0
    5.2462   -2.9785    1.6405 C   0  0  0  0  0  0  0  0  0  0  0  0
    3.7052   -1.2357    0.6846 N   0  0  0  0  0  0  0  0  0  0  0  0
    2.4940   -0.6819    0.7774 C   0  0  0  0  0  0  0  0  0  0  0  0
   -0.1567    0.6262    1.0055 C   0  0  0  0  0  0  0  0  0  0  0  0
    0.0375    0.1559    2.1365 O   0  0  0  0  0  0  0  0  0  0  0  0
   -1.4478    1.0101    0.3629 C   0  0  0  0  0  0  0  0  0  0  0  0
   -2.4610    1.2556    1.4304 C   0  0  0  0  0  0  0  0  0  0  0  0
   -2.9194   -0.0490    2.0077 C   0  0  0  0  0  0  0  0  0  0  0  0
   -3.4401   -0.9571    1.0229 N   0  0  0  0  0  0  0  0  0  0  0  0
   -4.7214   -0.5304    0.4965 C   0  0  0  0  0  0  0  0  0  0  0  0
   -5.2015   -1.4912   -0.5076 C   0  0  0  0  0  0  0  0  0  0  0  0
   -5.1481   -1.2302   -1.8385 N   0  0  0  0  0  0  0  0  0  0  0  0
   -5.5922   -2.1195   -2.7417 C   0  0  0  0  0  0  0  0  0  0  0  0
   -6.1271   -3.3464   -2.3756 C   0  0  0  0  0  0  0  0  0  0  0  0
   -6.1944   -3.6396   -1.0286 C   0  0  0  0  0  0  0  0  0  0  0  0
   -5.7277   -2.6985   -0.1398 C   0  0  0  0  0  0  0  0  0  0  0  0
   -5.8051   -3.0256    1.3053 C   0  0  0  0  0  0  0  0  0  0  0  0
   -2.4869   -1.2399   -0.0032 C   0  0  0  0  0  0  0  0  0  0  0  0
   -1.9450    0.0056   -0.6220 C   0  0  0  0  0  0  0  0  0  0  0  0
   -2.5001    3.5355   -1.6691 N   0  0  0  0  0  0  0  0  0  0  0  0
   -3.1693    4.6575   -1.9649 C   0  0  0  0  0  0  0  0  0  0  0  0
   -3.0587    5.7293   -1.1245 N   0  0  0  0  0  0  0  0  0  0  0  0
   -2.5336    8.4821   -0.2914 H   0  0  0  0  0  0  0  0  0  0  0  0
   -2.4790    8.6716    1.4684 H   0  0  0  0  0  0  0  0  0  0  0  0
   -3.9347    7.9091    0.7281 H   0  0  0  0  0  0  0  0  0  0  0  0
   -1.0093    4.4427    1.1331 H   0  0  0  0  0  0  0  0  0  0  0  0
    2.8046    1.5821   -1.7179 H   0  0  0  0  0  0  0  0  0  0  0  0
    4.9516    0.5553   -1.8408 H   0  0  0  0  0  0  0  0  0  0  0  0
    6.6535   -0.3123   -1.8828 H   0  0  0  0  0  0  0  0  0  0  0  0
    8.8728   -1.3742   -2.0025 H   0  0  0  0  0  0  0  0  0  0  0  0
   10.8704   -4.9509    0.4799 H   0  0  0  0  0  0  0  0  0  0  0  0
    7.6850   -3.8923    1.2447 H   0  0  0  0  0  0  0  0  0  0  0  0
    4.9760   -2.1799    2.3398 H   0  0  0  0  0  0  0  0  0  0  0  0
    4.3544   -3.3889    1.1386 H   0  0  0  0  0  0  0  0  0  0  0  0
    5.7557   -3.7821    2.2499 H   0  0  0  0  0  0  0  0  0  0  0  0
    1.8008   -1.0587    1.5344 H   0  0  0  0  0  0  0  0  0  0  0  0
   -3.3623    1.7584    0.9915 H   0  0  0  0  0  0  0  0  0  0  0  0
   -2.0684    1.8650    2.2717 H   0  0  0  0  0  0  0  0  0  0  0  0
   -3.7353    0.1814    2.7334 H   0  0  0  0  0  0  0  0  0  0  0  0
   -2.1404   -0.5799    2.5741 H   0  0  0  0  0  0  0  0  0  0  0  0
   -5.4442   -0.2888    1.2728 H   0  0  0  0  0  0  0  0  0  0  0  0
   -4.5194    0.4389   -0.0464 H   0  0  0  0  0  0  0  0  0  0  0  0
   -5.5547   -1.9223   -3.8164 H   0  0  0  0  0  0  0  0  0  0  0  0
   -6.4779   -4.0428   -3.1392 H   0  0  0  0  0  0  0  0  0  0  0  0
   -6.6109   -4.5971   -0.7305 H   0  0  0  0  0  0  0  0  0  0  0  0
   -6.7230   -3.6444    1.4663 H   0  0  0  0  0  0  0  0  0  0  0  0
   -5.8870   -2.1581    1.9565 H   0  0  0  0  0  0  0  0  0  0  0  0
   -4.9460   -3.7053    1.5729 H   0  0  0  0  0  0  0  0  0  0  0  0
   -2.9631   -1.8501   -0.7970 H   0  0  0  0  0  0  0  0  0  0  0  0
   -1.6302   -1.7872    0.4709 H   0  0  0  0  0  0  0  0  0  0  0  0
   -2.7891    0.4963   -1.1789 H   0  0  0  0  0  0  0  0  0  0  0  0
   -1.1963   -0.2390   -1.4059 H   0  0  0  0  0  0  0  0  0  0  0  0
   -3.8050    4.7988   -2.8270 H   0  0  0  0  0  0  0  0  0  0  0  0
  1  2  1  0
  2  3  1  0
  3  4  2  0
  4  5  1  0
  5  6  1  0
  6  7  1  0
  7  8  2  0
  7  9  1  0
  9 10  1  0
 10 11  2  0
 11 12  1  0
 12 13  2  0
 13 14  1  0
 14 15  2  0
 15 16  1  0
 16 17  2  0
 17 18  1  0
 18 19  2  0
 18 20  1  0
 17 21  1  0
 21 22  2  0
 22 23  1  0
 13 24  1  0
 24 25  2  0
  9 26  1  0
 26 27  2  0
 26 28  1  0
 28 29  1  0
 29 30  1  0
 30 31  1  0
 31 32  1  0
 32 33  1  0
 33 34  2  0
 34 35  1  0
 35 36  2  0
 36 37  1  0
 37 38  2  0
 38 39  1  0
 31 40  1  0
 40 41  1  0
  5 42  2  0
 42 43  1  0
 43 44  2  0
 44  3  1  0
 28  6  1  0
 38 33  1  0
 25 10  1  0
 41 28  1  0
 22 14  1  0
  1 45  1  0
  1 46  1  0
  1 47  1  0
  4 48  1  0
 11 49  1  0
 12 50  1  0
 15 51  1  0
 16 52  1  0
 20 53  1  0
 21 54  1  0
 23 55  1  0
 23 56  1  0
 23 57  1  0
 25 58  1  0
 29 59  1  0
 29 60  1  0
 30 61  1  0
 30 62  1  0
 32 63  1  0
 32 64  1  0
 35 65  1  0
 36 66  1  0
 37 67  1  0
 39 68  1  0
 39 69  1  0
 39 70  1  0
 40 71  1  0
 40 72  1  0
 41 73  1  0
 41 74  1  0
 43 75  1  0
M  END
$$$$
