@<TRIPOS>MOLECULE
*****
 77 82 0 0 0
SMALL
GASTEIGER

@<TRIPOS>ATOM
      1 C          -6.1790    5.2616   -0.6951 C.3     1  UNL1       -0.0397
      2 C          -6.0219    3.8026   -0.4801 C.ar    1  UNL1       -0.0503
      3 C          -6.3185    2.9155   -1.4922 C.ar    1  UNL1       -0.0568
      4 C          -6.1783    1.5616   -1.3091 C.ar    1  UNL1       -0.0359
      5 C          -5.7319    1.0116   -0.0997 C.ar    1  UNL1        0.0674
      6 N          -5.5979   -0.3902    0.0519 N.ar    1  UNL1       -0.2181
      7 N          -6.4744   -1.2589   -0.4779 N.ar    1  UNL1       -0.1691
      8 C          -6.0907   -2.5053   -0.1802 C.ar    1  UNL1        0.0706
      9 C          -6.7126   -3.8068   -0.5272 C.3     1  UNL1        0.0063
     10 C          -6.1802   -4.3314   -1.8639 C.3     1  UNL1       -0.0546
     11 C          -8.2017   -3.5560   -0.6769 C.3     1  UNL1       -0.0546
     12 C          -6.4442   -4.8458    0.5257 C.3     1  UNL1       -0.0546
     13 C          -4.9321   -2.3802    0.5616 C.ar    1  UNL1        0.0021
     14 C          -4.6404   -1.0369    0.6954 C.ar    1  UNL1        0.1299
     15 N          -3.5444   -0.4633    1.3797 N.am    1  UNL1       -0.2538
     16 C          -2.3209   -0.1938    0.6567 C.2     1  UNL1        0.3092
     17 O          -2.2700   -0.4674   -0.5477 O.2     1  UNL1       -0.2521
     18 N          -1.1909    0.3727    1.2987 N.am    1  UNL1       -0.2686
     19 C           0.0502    0.6886    0.7052 C.ar    1  UNL1        0.0427
     20 C           0.3453    0.5673   -0.6304 C.ar    1  UNL1       -0.0363
     21 C           1.6005    0.8815   -1.1652 C.ar    1  UNL1       -0.0169
     22 C           2.6081    1.3345   -0.3464 C.ar    1  UNL1        0.1381
     23 O           3.8666    1.6481   -0.8874 O.3     1  UNL1       -0.4373
     24 C           4.9903    0.8718   -0.5806 C.ar    1  UNL1        0.2249
     25 C           4.8225   -0.2575    0.1890 C.ar    1  UNL1        0.0186
     26 C           5.9659   -0.9967    0.4607 C.ar    1  UNL1        0.0362
     27 N           7.1480   -0.6164   -0.0071 N.ar    1  UNL1       -0.2225
     28 C           7.3359    0.4721   -0.7540 C.ar    1  UNL1        0.2226
     29 N           8.5842    0.8992   -1.2705 N.pl3   1  UNL1       -0.2835
     30 C           9.8358    0.2933   -1.0742 C.ar    1  UNL1        0.0336
     31 C          10.0594   -0.6889   -0.1557 C.ar    1  UNL1       -0.0405
     32 C          11.3379   -1.2550   -0.0362 C.ar    1  UNL1       -0.0600
     33 C          12.3810   -0.8585   -0.8107 C.ar    1  UNL1       -0.0616
     34 C          12.1717    0.1292   -1.7393 C.ar    1  UNL1       -0.0600
     35 C          10.9252    0.6932   -1.8680 C.ar    1  UNL1       -0.0405
     36 N           6.2059    1.1942   -1.0168 N.ar    1  UNL1       -0.1789
     37 C           2.3274    1.4634    0.9915 C.ar    1  UNL1        0.0262
     38 C           3.3308    1.9415    1.8036 C.ar    1  UNL1       -0.0505
     39 C           3.1371    2.1250    3.1790 C.ar    1  UNL1       -0.0611
     40 C           1.9339    1.8248    3.7187 C.ar    1  UNL1       -0.0611
     41 C           0.9250    1.3446    2.8923 C.ar    1  UNL1       -0.0521
     42 C           1.0705    1.1490    1.5320 C.ar    1  UNL1        0.0069
     43 C          -5.4389    1.9061    0.9034 C.ar    1  UNL1       -0.0359
     44 C          -5.5828    3.2680    0.7106 C.ar    1  UNL1       -0.0568
     45 H          -5.2977    5.8303   -0.3132 H       1  UNL1        0.0278
     46 H          -6.2488    5.4938   -1.7807 H       1  UNL1        0.0278
     47 H          -7.0921    5.6616   -0.2262 H       1  UNL1        0.0278
     48 H          -6.6695    3.3414   -2.4431 H       1  UNL1        0.0621
     49 H          -6.4220    0.8857   -2.1267 H       1  UNL1        0.0639
     50 H          -6.0561   -3.5236   -2.6003 H       1  UNL1        0.0239
     51 H          -6.8687   -5.1208   -2.2015 H       1  UNL1        0.0239
     52 H          -5.1682   -4.7596   -1.6489 H       1  UNL1        0.0239
     53 H          -8.4351   -3.1550   -1.6800 H       1  UNL1        0.0239
     54 H          -8.7180   -4.5093   -0.4780 H       1  UNL1        0.0239
     55 H          -8.5176   -2.7814    0.0502 H       1  UNL1        0.0239
     56 H          -6.7449   -4.4261    1.5173 H       1  UNL1        0.0239
     57 H          -5.3734   -5.1172    0.4797 H       1  UNL1        0.0239
     58 H          -7.0550   -5.7303    0.2911 H       1  UNL1        0.0239
     59 H          -4.3309   -3.1782    0.9815 H       1  UNL1        0.0671
     60 H          -3.5487   -0.2191    2.3896 H       1  UNL1        0.1578
     61 H          -1.3513    0.5657    2.3357 H       1  UNL1        0.1564
     62 H          -0.4276    0.2182   -1.2954 H       1  UNL1        0.0637
     63 H           1.7871    0.7689   -2.2317 H       1  UNL1        0.0655
     64 H           3.8583   -0.5741    0.5668 H       1  UNL1        0.0686
     65 H           5.8885   -1.8926    1.0608 H       1  UNL1        0.0832
     66 H           8.5747    1.7903   -1.8783 H       1  UNL1        0.1550
     67 H           9.2685   -1.0450    0.5009 H       1  UNL1        0.0636
     68 H          11.4661   -2.0355    0.7107 H       1  UNL1        0.0618
     69 H          13.3573   -1.3374   -0.6717 H       1  UNL1        0.0618
     70 H          12.9960    0.4519   -2.3606 H       1  UNL1        0.0618
     71 H          10.7298    1.4685   -2.5876 H       1  UNL1        0.0636
     72 H           4.2731    2.1963    1.3541 H       1  UNL1        0.0625
     73 H           3.9523    2.4977    3.7597 H       1  UNL1        0.0618
     74 H           1.7176    1.9415    4.7690 H       1  UNL1        0.0618
     75 H          -0.0154    1.1181    3.3652 H       1  UNL1        0.0624
     76 H          -5.0946    1.5081    1.8486 H       1  UNL1        0.0639
     77 H          -5.3409    3.9556    1.5297 H       1  UNL1        0.0621
@<TRIPOS>BOND
     1     1     2    1
     2     2     3   ar
     3     3     4   ar
     4     4     5   ar
     5     5     6    1
     6     6     7   ar
     7     7     8   ar
     8     8     9    1
     9     9    10    1
    10     9    11    1
    11     9    12    1
    12     8    13   ar
    13    13    14   ar
    14    14    15    1
    15    15    16   am
    16    16    17    2
    17    16    18   am
    18    18    19    1
    19    19    20   ar
    20    20    21   ar
    21    21    22   ar
    22    22    23    1
    23    23    24    1
    24    24    25   ar
    25    25    26   ar
    26    26    27   ar
    27    27    28   ar
    28    28    29    1
    29    29    30    1
    30    30    31   ar
    31    31    32   ar
    32    32    33   ar
    33    33    34   ar
    34    34    35   ar
    35    28    36   ar
    36    22    37   ar
    37    37    38   ar
    38    38    39   ar
    39    39    40   ar
    40    40    41   ar
    41    41    42   ar
    42     5    43   ar
    43    43    44   ar
    44    44     2   ar
    45    14     6   ar
    46    42    19   ar
    47    36    24   ar
    48    42    37   ar
    49    35    30   ar
    50     1    45    1
    51     1    46    1
    52     1    47    1
    53     3    48    1
    54     4    49    1
    55    10    50    1
    56    10    51    1
    57    10    52    1
    58    11    53    1
    59    11    54    1
    60    11    55    1
    61    12    56    1
    62    12    57    1
    63    12    58    1
    64    13    59    1
    65    15    60    1
    66    18    61    1
    67    20    62    1
    68    21    63    1
    69    25    64    1
    70    26    65    1
    71    29    66    1
    72    31    67    1
    73    32    68    1
    74    33    69    1
    75    34    70    1
    76    35    71    1
    77    38    72    1
    78    39    73    1
    79    40    74    1
    80    41    75    1
    81    43    76    1
    82    44    77    1
