
     RDKit          3D

 77 82  0  0  0  0  0  0  0  0999 V2000
   -6.1790    5.2616   -0.6951 C   0  0  0  0  0  0  0  0  0  0  0  0
   -6.0219    3.8026   -0.4801 C   0  0  0  0  0  0  0  0  0  0  0  0
   -6.3185    2.9155   -1.4922 C   0  0  0  0  0  0  0  0  0  0  0  0
   -6.1783    1.5616   -1.3091 C   0  0  0  0  0  0  0  0  0  0  0  0
   -5.7319    1.0116   -0.0997 C   0  0  0  0  0  0  0  0  0  0  0  0
   -5.5979   -0.3902    0.0519 N   0  0  0  0  0  0  0  0  0  0  0  0
   -6.4744   -1.2589   -0.4779 N   0  0  0  0  0  0  0  0  0  0  0  0
   -6.0907   -2.5053   -0.1802 C   0  0  0  0  0  0  0  0  0  0  0  0
   -6.7126   -3.8068   -0.5272 C   0  0  0  0  0  0  0  0  0  0  0  0
   -6.1802   -4.3314   -1.8639 C   0  0  0  0  0  0  0  0  0  0  0  0
   -8.2017   -3.5560   -0.6769 C   0  0  0  0  0  0  0  0  0  0  0  0
   -6.4442   -4.8458    0.5257 C   0  0  0  0  0  0  0  0  0  0  0  0
   -4.9321   -2.3802    0.5616 C   0  0  0  0  0  0  0  0  0  0  0  0
   -4.6404   -1.0369    0.6954 C   0  0  0  0  0  0  0  0  0  0  0  0
   -3.5444   -0.4633    1.3797 N   0  0  0  0  0  0  0  0  0  0  0  0
   -2.3209   -0.1938    0.6567 C   0  0  0  0  0  0  0  0  0  0  0  0
   -2.2700   -0.4674   -0.5477 O   0  0  0  0  0  0  0  0  0  0  0  0
   -1.1909    0.3727    1.2987 N   0  0  0  0  0  0  0  0  0  0  0  0
    0.0502    0.6886    0.7052 C   0  0  0  0  0  0  0  0  0  0  0  0
    0.3453    0.5673   -0.6304 C   0  0  0  0  0  0  0  0  0  0  0  0
    1.6005    0.8815   -1.1652 C   0  0  0  0  0  0  0  0  0  0  0  0
    2.6081    1.3345   -0.3464 C   0  0  0  0  0  0  0  0  0  0  0  0
    3.8666    1.6481   -0.8874 O   0  0  0  0  0  0  0  0  0  0  0  0
    4.9903    0.8718   -0.5806 C   0  0  0  0  0  0  0  0  0  0  0  0
    4.8225   -0.2575    0.1890 C   0  0  0  0  0  0  0  0  0  0  0  0
    5.9659   -0.9967    0.4607 C   0  0  0  0  0  0  0  0  0  0  0  0
    7.1480   -0.6164   -0.0071 N   0  0  0  0  0  0  0  0  0  0  0  0
    7.3359    0.4721   -0.7540 C   0  0  0  0  0  0  0  0  0  0  0  0
    8.5842    0.8992   -1.2705 N   0  0  0  0  0  0  0  0  0  0  0  0
    9.8358    0.2933   -1.0742 C   0  0  0  0  0  0  0  0  0  0  0  0
   10.0594   -0.6889   -0.1557 C   0  0  0  0  0  0  0  0  0  0  0  0
   11.3379   -1.2550   -0.0362 C   0  0  0  0  0  0  0  0  0  0  0  0
   12.3810   -0.8585   -0.8107 C   0  0  0  0  0  0  0  0  0  0  0  0
   12.1717    0.1292   -1.7393 C   0  0  0  0  0  0  0  0  0  0  0  0
   10.9252    0.6932   -1.8680 C   0  0  0  0  0  0  0  0  0  0  0  0
    6.2059    1.1942   -1.0168 N   0  0  0  0  0  0  0  0  0  0  0  0
    2.3274    1.4634    0.9915 C   0  0  0  0  0  0  0  0  0  0  0  0
    3.3308    1.9415    1.8036 C   0  0  0  0  0  0  0  0  0  0  0  0
    3.1371    2.1250    3.1790 C   0  0  0  0  0  0  0  0  0  0  0  0
    1.9339    1.8248    3.7187 C   0  0  0  0  0  0  0  0  0  0  0  0
    0.9250    1.3446    2.8923 C   0  0  0  0  0  0  0  0  0  0  0  0
    1.0705    1.1490    1.5320 C   0  0  0  0  0  0  0  0  0  0  0  0
   -5.4389    1.9061    0.9034 C   0  0  0  0  0  0  0  0  0  0  0  0
   -5.5828    3.2680    0.7106 C   0  0  0  0  0  0  0  0  0  0  0  0
   -5.2977    5.8303   -0.3132 H   0  0  0  0  0  0  0  0  0  0  0  0
   -6.2488    5.4938   -1.7807 H   0  0  0  0  0  0  0  0  0  0  0  0
   -7.0921    5.6616   -0.2262 H   0  0  0  0  0  0  0  0  0  0  0  0
   -6.6695    3.3414   -2.4431 H   0  0  0  0  0  0  0  0  0  0  0  0
   -6.4220    0.8857   -2.1267 H   0  0  0  0  0  0  0  0  0  0  0  0
   -6.0561   -3.5236   -2.6003 H   0  0  0  0  0  0  0  0  0  0  0  0
   -6.8687   -5.1208   -2.2015 H   0  0  0  0  0  0  0  0  0  0  0  0
   -5.1682   -4.7596   -1.6489 H   0  0  0  0  0  0  0  0  0  0  0  0
   -8.4351   -3.1550   -1.6800 H   0  0  0  0  0  0  0  0  0  0  0  0
   -8.7180   -4.5093   -0.4780 H   0  0  0  0  0  0  0  0  0  0  0  0
   -8.5176   -2.7814    0.0502 H   0  0  0  0  0  0  0  0  0  0  0  0
   -6.7449   -4.4261    1.5173 H   0  0  0  0  0  0  0  0  0  0  0  0
   -5.3734   -5.1172    0.4797 H   0  0  0  0  0  0  0  0  0  0  0  0
   -7.0550   -5.7303    0.2911 H   0  0  0  0  0  0  0  0  0  0  0  0
   -4.3309   -3.1782    0.9815 H   0  0  0  0  0  0  0  0  0  0  0  0
   -3.5487   -0.2191    2.3896 H   0  0  0  0  0  0  0  0  0  0  0  0
   -1.3513    0.5657    2.3357 H   0  0  0  0  0  0  0  0  0  0  0  0
   -0.4276    0.2182   -1.2954 H   0  0  0  0  0  0  0  0  0  0  0  0
    1.7871    0.7689   -2.2317 H   0  0  0  0  0  0  0  0  0  0  0  0
    3.8583   -0.5741    0.5668 H   0  0  0  0  0  0  0  0  0  0  0  0
    5.8885   -1.8926    1.0608 H   0  0  0  0  0  0  0  0  0  0  0  0
    8.5747    1.7903   -1.8783 H   0  0  0  0  0  0  0  0  0  0  0  0
    9.2685   -1.0450    0.5009 H   0  0  0  0  0  0  0  0  0  0  0  0
   11.4661   -2.0355    0.7107 H   0  0  0  0  0  0  0  0  0  0  0  0
   13.3573   -1.3374   -0.6717 H   0  0  0  0  0  0  0  0  0  0  0  0
   12.9960    0.4519   -2.3606 H   0  0  0  0  0  0  0  0  0  0  0  0
   10.7298    1.4685   -2.5876 H   0  0  0  0  0  0  0  0  0  0  0  0
    4.2731    2.1963    1.3541 H   0  0  0  0  0  0  0  0  0  0  0  0
    3.9523    2.4977    3.7597 H   0  0  0  0  0  0  0  0  0  0  0  0
    1.7176    1.9415    4.7690 H   0  0  0  0  0  0  0  0  0  0  0  0
   -0.0154    1.1181    3.3652 H   0  0  0  0  0  0  0  0  0  0  0  0
   -5.0946    1.5081    1.8486 H   0  0  0  0  0  0  0  0  0  0  0  0
   -5.3409    3.9556    1.5297 H   0  0  0  0  0  0  0  0  0  0  0  0
  1  2  1  0
  2  3  2  0
  3  4  1  0
  4  5  2  0
  5  6  1  0
  6  7  1  0
  7  8  2  0
  8  9  1  0
  9 10  1  0
  9 11  1  0
  9 12  1  0
  8 13  1  0
 13 14  2  0
 14 15  1  0
 15 16  1  0
 16 17  2  0
 16 18  1  0
 18 19  1  0
 19 20  2  0
 20 21  1  0
 21 22  2  0
 22 23  1  0
 23 24  1  0
 24 25  2  0
 25 26  1  0
 26 27  2  0
 27 28  1  0
 28 29  1  0
 29 30  1  0
 30 31  2  0
 31 32  1  0
 32 33  2  0
 33 34  1  0
 34 35  2  0
 28 36  2  0
 22 37  1  0
 37 38  2  0
 38 39  1  0
 39 40  2  0
 40 41  1  0
 41 42  2  0
  5 43  1  0
 43 44  2  0
 44  2  1  0
 14  6  1  0
 42 19  1  0
 36 24  1  0
 42 37  1  0
 35 30  1  0
  1 45  1  0
  1 46  1  0
  1 47  1  0
  3 48  1  0
  4 49  1  0
 10 50  1  0
 10 51  1  0
 10 52  1  0
 11 53  1  0
 11 54  1  0
 11 55  1  0
 12 56  1  0
 12 57  1  0
 12 58  1  0
 13 59  1  0
 15 60  1  0
 18 61  1  0
 20 62  1  0
 21 63  1  0
 25 64  1  0
 26 65  1  0
 29 66  1  0
 31 67  1  0
 32 68  1  0
 33 69  1  0
 34 70  1  0
 35 71  1  0
 38 72  1  0
 39 73  1  0
 40 74  1  0
 41 75  1  0
 43 76  1  0
 44 77  1  0
M  END
$$$$
