
     RDKit          3D

 39 39  0  0  0  0  0  0  0  0999 V2000
    6.5784   -0.8319   -0.0516 O   0  0  0  0  0  0  0  0  0  0  0  0
    5.8969    0.1183   -0.4781 C   0  0  0  0  0  0  0  0  0  0  0  0
    4.4494    0.2585   -0.1247 C   0  0  0  0  0  0  0  0  0  0  0  0
    4.0064   -0.8809    0.7761 C   0  0  0  0  0  0  0  0  0  0  0  0
    2.5494   -0.7106    1.1192 C   0  0  0  0  0  0  0  0  0  0  0  0
    1.6412   -0.7119   -0.0809 C   0  0  0  0  0  0  0  0  0  0  0  0
    0.2175   -0.5355    0.4665 C   0  0  0  0  0  0  0  0  0  0  0  0
   -0.7729   -0.5254   -0.6841 C   0  0  0  0  0  0  0  0  0  0  0  0
   -2.1429   -0.3543   -0.1375 C   0  0  0  0  0  0  0  0  0  0  0  0
   -2.3106   -0.2461    1.1171 O   0  0  0  0  0  0  0  0  0  0  0  0
   -3.2930   -0.3070   -0.9889 N   0  0  0  0  0  0  0  0  0  0  0  0
   -4.5564   -0.1410   -0.3725 C   0  0  0  0  0  0  0  0  0  0  0  0
   -5.0721    1.1356   -0.1531 C   0  0  0  0  0  0  0  0  0  0  0  0
   -6.2929    1.3207    0.4419 C   0  0  0  0  0  0  0  0  0  0  0  0
   -7.0664    0.2495    0.8504 C   0  0  0  0  0  0  0  0  0  0  0  0
   -6.5622   -1.0159    0.6363 C   0  0  0  0  0  0  0  0  0  0  0  0
   -5.3383   -1.1993    0.0398 C   0  0  0  0  0  0  0  0  0  0  0  0
    6.4694    1.1063   -1.3174 N   0  0  0  0  0  0  0  0  0  0  0  0
    7.7666    1.0804   -1.7010 O   0  0  0  0  0  0  0  0  0  0  0  0
    4.2940    1.2335    0.3784 H   0  0  0  0  0  0  0  0  0  0  0  0
    3.8285    0.2566   -1.0392 H   0  0  0  0  0  0  0  0  0  0  0  0
    4.1590   -1.8539    0.2452 H   0  0  0  0  0  0  0  0  0  0  0  0
    4.6106   -0.9303    1.6976 H   0  0  0  0  0  0  0  0  0  0  0  0
    2.4027    0.2948    1.6114 H   0  0  0  0  0  0  0  0  0  0  0  0
    2.1969   -1.4433    1.8628 H   0  0  0  0  0  0  0  0  0  0  0  0
    1.6815   -1.6703   -0.6023 H   0  0  0  0  0  0  0  0  0  0  0  0
    1.8331    0.1667   -0.7352 H   0  0  0  0  0  0  0  0  0  0  0  0
    0.0499   -1.4090    1.1298 H   0  0  0  0  0  0  0  0  0  0  0  0
    0.1573    0.3926    1.0589 H   0  0  0  0  0  0  0  0  0  0  0  0
   -0.4919    0.3420   -1.3389 H   0  0  0  0  0  0  0  0  0  0  0  0
   -0.6716   -1.4190   -1.3032 H   0  0  0  0  0  0  0  0  0  0  0  0
   -3.1525   -0.3961   -2.0184 H   0  0  0  0  0  0  0  0  0  0  0  0
   -4.4863    1.9869   -0.4635 H   0  0  0  0  0  0  0  0  0  0  0  0
   -6.6326    2.3515    0.5814 H   0  0  0  0  0  0  0  0  0  0  0  0
   -8.0359    0.3949    1.3229 H   0  0  0  0  0  0  0  0  0  0  0  0
   -7.1892   -1.8407    0.9663 H   0  0  0  0  0  0  0  0  0  0  0  0
   -4.9801   -2.1965   -0.1098 H   0  0  0  0  0  0  0  0  0  0  0  0
    5.8785    1.8912   -1.6611 H   0  0  0  0  0  0  0  0  0  0  0  0
    8.3807    1.1289   -0.9407 H   0  0  0  0  0  0  0  0  0  0  0  0
  1  2  2  0
  2  3  1  0
  3  4  1  0
  4  5  1  0
  5  6  1  0
  6  7  1  0
  7  8  1  0
  8  9  1  0
  9 10  2  0
  9 11  1  0
 11 12  1  0
 12 13  2  0
 13 14  1  0
 14 15  2  0
 15 16  1  0
 16 17  2  0
  2 18  1  0
 18 19  1  0
 17 12  1  0
  3 20  1  0
  3 21  1  0
  4 22  1  0
  4 23  1  0
  5 24  1  0
  5 25  1  0
  6 26  1  0
  6 27  1  0
  7 28  1  0
  7 29  1  0
  8 30  1  0
  8 31  1  0
 11 32  1  0
 13 33  1  0
 14 34  1  0
 15 35  1  0
 16 36  1  0
 17 37  1  0
 18 38  1  0
 19 39  1  0
M  END
$$$$
