@<TRIPOS>MOLECULE
*****
 39 39 0 0 0
SMALL
GASTEIGER

@<TRIPOS>ATOM
      1 O           6.5784   -0.8319   -0.0516 O.2     1  UNL1       -0.2737
      2 C           5.8969    0.1183   -0.4781 C.2     1  UNL1        0.2354
      3 C           4.4494    0.2585   -0.1247 C.3     1  UNL1        0.0259
      4 C           4.0064   -0.8809    0.7761 C.3     1  UNL1       -0.0447
      5 C           2.5494   -0.7106    1.1192 C.3     1  UNL1       -0.0526
      6 C           1.6412   -0.7119   -0.0809 C.3     1  UNL1       -0.0526
      7 C           0.2175   -0.5355    0.4665 C.3     1  UNL1       -0.0448
      8 C          -0.7729   -0.5254   -0.6841 C.3     1  UNL1        0.0243
      9 C          -2.1429   -0.3543   -0.1375 C.2     1  UNL1        0.2172
     10 O          -2.3106   -0.2461    1.1171 O.2     1  UNL1       -0.2755
     11 N          -3.2930   -0.3070   -0.9889 N.am    1  UNL1       -0.2855
     12 C          -4.5564   -0.1410   -0.3725 C.ar    1  UNL1        0.0334
     13 C          -5.0721    1.1356   -0.1531 C.ar    1  UNL1       -0.0405
     14 C          -6.2929    1.3207    0.4419 C.ar    1  UNL1       -0.0600
     15 C          -7.0664    0.2495    0.8504 C.ar    1  UNL1       -0.0616
     16 C          -6.5622   -1.0159    0.6363 C.ar    1  UNL1       -0.0600
     17 C          -5.3383   -1.1993    0.0398 C.ar    1  UNL1       -0.0405
     18 N           6.4694    1.1063   -1.3174 N.am    1  UNL1       -0.1975
     19 O           7.7666    1.0804   -1.7010 O.3     1  UNL1       -0.2952
     20 H           4.2940    1.2335    0.3784 H       1  UNL1        0.0359
     21 H           3.8285    0.2566   -1.0392 H       1  UNL1        0.0359
     22 H           4.1590   -1.8539    0.2452 H       1  UNL1        0.0270
     23 H           4.6106   -0.9303    1.6976 H       1  UNL1        0.0270
     24 H           2.4027    0.2948    1.6114 H       1  UNL1        0.0265
     25 H           2.1969   -1.4433    1.8628 H       1  UNL1        0.0265
     26 H           1.6815   -1.6703   -0.6023 H       1  UNL1        0.0265
     27 H           1.8331    0.1667   -0.7352 H       1  UNL1        0.0265
     28 H           0.0499   -1.4090    1.1298 H       1  UNL1        0.0270
     29 H           0.1573    0.3926    1.0589 H       1  UNL1        0.0270
     30 H          -0.4919    0.3420   -1.3389 H       1  UNL1        0.0358
     31 H          -0.6716   -1.4190   -1.3032 H       1  UNL1        0.0358
     32 H          -3.1525   -0.3961   -2.0184 H       1  UNL1        0.1548
     33 H          -4.4863    1.9869   -0.4635 H       1  UNL1        0.0636
     34 H          -6.6326    2.3515    0.5814 H       1  UNL1        0.0618
     35 H          -8.0359    0.3949    1.3229 H       1  UNL1        0.0618
     36 H          -7.1892   -1.8407    0.9663 H       1  UNL1        0.0618
     37 H          -4.9801   -2.1965   -0.1098 H       1  UNL1        0.0636
     38 H           5.8785    1.8912   -1.6611 H       1  UNL1        0.1822
     39 H           8.3807    1.1289   -0.9407 H       1  UNL1        0.2414
@<TRIPOS>BOND
     1     1     2    2
     2     2     3    1
     3     3     4    1
     4     4     5    1
     5     5     6    1
     6     6     7    1
     7     7     8    1
     8     8     9    1
     9     9    10    2
    10     9    11   am
    11    11    12    1
    12    12    13   ar
    13    13    14   ar
    14    14    15   ar
    15    15    16   ar
    16    16    17   ar
    17     2    18   am
    18    18    19    1
    19    17    12   ar
    20     3    20    1
    21     3    21    1
    22     4    22    1
    23     4    23    1
    24     5    24    1
    25     5    25    1
    26     6    26    1
    27     6    27    1
    28     7    28    1
    29     7    29    1
    30     8    30    1
    31     8    31    1
    32    11    32    1
    33    13    33    1
    34    14    34    1
    35    15    35    1
    36    16    36    1
    37    17    37    1
    38    18    38    1
    39    19    39    1
