@<TRIPOS>MOLECULE
*****
 58 62 0 0 0
SMALL
GASTEIGER

@<TRIPOS>ATOM
      1 C          -0.1720   -3.6064   -1.1725 C.3     1  UNL1       -0.0351
      2 C          -0.4953   -2.3864   -0.2711 C.3     1  UNL1        0.0935
      3 C           0.4956   -1.3539   -0.6526 C.ar    1  UNL1        0.0158
      4 C           1.5654   -0.9225    0.1145 C.ar    1  UNL1       -0.0463
      5 C           2.3737    0.0329   -0.3790 C.ar    1  UNL1       -0.0217
      6 C           3.5255    0.6670    0.3224 C.2     1  UNL1       -0.0172
      7 C           4.6607    0.8328   -0.3837 C.2     1  UNL1        0.1492
      8 F           4.5933    0.3510   -1.6699 F       1  UNL1       -0.2032
      9 C           5.8203    1.5876    0.0317 C.ar    1  UNL1        0.0990
     10 C           6.8304    1.7514   -0.9308 C.ar    1  UNL1       -0.0322
     11 C           7.8918    2.6242   -0.6861 C.ar    1  UNL1       -0.0408
     12 C           7.9313    3.3063    0.4793 C.ar    1  UNL1        0.0699
     13 C           9.0015    4.3922    0.6594 C.1     1  UNL1        0.1007
     14 N           9.7882    5.1721    0.7983 N.1     1  UNL1       -0.1908
     15 C           6.9685    3.1414    1.4254 C.ar    1  UNL1        0.0457
     16 N           5.9305    2.2779    1.1680 N.ar    1  UNL1       -0.2514
     17 C           2.1515    0.5805   -1.6135 C.ar    1  UNL1       -0.0518
     18 C           1.1142    0.2004   -2.4283 C.ar    1  UNL1       -0.0255
     19 C           0.2902   -0.7864   -1.9053 C.ar    1  UNL1        0.1289
     20 F          -0.7169   -1.2044   -2.7371 F       1  UNL1       -0.2051
     21 N          -0.2469   -2.9041    1.0419 N.2     1  UNL1       -0.2521
     22 C          -0.9141   -2.6042    2.1019 C.2     1  UNL1        0.1485
     23 N          -0.6332   -3.1607    3.3680 N.pl3   1  UNL1       -0.3380
     24 S          -2.2327   -1.4364    1.9981 S.3     1  UNL1       -0.0746
     25 C          -2.7165   -1.2907    0.2984 C.3     1  UNL1        0.1054
     26 C          -4.2002   -1.3824    0.0431 C.2     1  UNL1        0.2326
     27 O          -4.7270   -2.5359   -0.1837 O.2     1  UNL1       -0.2741
     28 N          -5.0425   -0.2653    0.0248 N.am    1  UNL1       -0.2960
     29 C          -6.4583   -0.5038   -0.3484 C.3     1  UNL1        0.0382
     30 C          -7.2010    0.8375   -0.3693 C.3     1  UNL1        0.0635
     31 O          -7.0043    1.3969    0.8986 O.3     1  UNL1       -0.3767
     32 C          -5.7435    1.9200    0.9760 C.3     1  UNL1        0.0635
     33 C          -4.6597    1.0757    0.3347 C.3     1  UNL1        0.0382
     34 C          -1.9947   -0.3880   -0.5926 C.3     1  UNL1       -0.0220
     35 C          -1.8155   -1.9148   -0.6589 C.3     1  UNL1        0.0134
     36 H          -0.7841   -4.4474   -0.7838 H       1  UNL1        0.0256
     37 H           0.9170   -3.8361   -0.9314 H       1  UNL1        0.0256
     38 H          -0.3475   -3.3791   -2.2264 H       1  UNL1        0.0256
     39 H           1.7084   -1.3770    1.0621 H       1  UNL1        0.0628
     40 H           3.5153    0.9802    1.3211 H       1  UNL1        0.0653
     41 H           6.7969    1.2199   -1.8491 H       1  UNL1        0.0640
     42 H           8.6748    2.7803   -1.4374 H       1  UNL1        0.0631
     43 H           7.0540    3.6837    2.3439 H       1  UNL1        0.0843
     44 H           2.7855    1.3680   -2.0037 H       1  UNL1        0.0624
     45 H           0.9256    0.6107   -3.3959 H       1  UNL1        0.0646
     46 H          -0.4943   -2.6509    4.2300 H       1  UNL1        0.1442
     47 H          -0.5598   -4.2234    3.3823 H       1  UNL1        0.1442
     48 H          -6.5640   -1.0275   -1.3025 H       1  UNL1        0.0487
     49 H          -6.9434   -1.1097    0.4508 H       1  UNL1        0.0487
     50 H          -6.7804    1.5193   -1.1554 H       1  UNL1        0.0575
     51 H          -8.2741    0.6703   -0.5193 H       1  UNL1        0.0575
     52 H          -5.7898    2.9504    0.5639 H       1  UNL1        0.0575
     53 H          -5.5427    2.1042    2.0766 H       1  UNL1        0.0575
     54 H          -3.8188    1.0744    1.0794 H       1  UNL1        0.0487
     55 H          -4.4038    1.5788   -0.6141 H       1  UNL1        0.0487
     56 H          -1.1569    0.2239   -0.1978 H       1  UNL1        0.0287
     57 H          -2.5600    0.1246   -1.4031 H       1  UNL1        0.0287
     58 H          -2.3162   -2.3392   -1.5723 H       1  UNL1        0.0346
@<TRIPOS>BOND
     1     2     1    1
     2     2     3    1
     3     3     4   ar
     4     4     5   ar
     5     5     6    1
     6     6     7    2
     7     7     8    1
     8     7     9    1
     9     9    10   ar
    10    10    11   ar
    11    11    12   ar
    12    12    13    1
    13    13    14    3
    14    12    15   ar
    15    15    16   ar
    16     5    17   ar
    17    17    18   ar
    18    18    19   ar
    19    19    20    1
    20     2    21    1
    21    21    22    2
    22    22    23    1
    23    22    24    1
    24    24    25    1
    25    25    26    1
    26    26    27    2
    27    26    28   am
    28    28    29    1
    29    29    30    1
    30    30    31    1
    31    31    32    1
    32    32    33    1
    33    25    34    1
    34    34    35    1
    35    35     2    1
    36    19     3   ar
    37    35    25    1
    38    16     9   ar
    39    33    28    1
    40     1    36    1
    41     1    37    1
    42     1    38    1
    43     4    39    1
    44     6    40    1
    45    10    41    1
    46    11    42    1
    47    15    43    1
    48    17    44    1
    49    18    45    1
    50    23    46    1
    51    23    47    1
    52    29    48    1
    53    29    49    1
    54    30    50    1
    55    30    51    1
    56    32    52    1
    57    32    53    1
    58    33    54    1
    59    33    55    1
    60    34    56    1
    61    34    57    1
    62    35    58    1
