@<TRIPOS>MOLECULE
*****
 48 50 0 0 0
SMALL
GASTEIGER

@<TRIPOS>ATOM
      1 C           2.2674   -0.9047    0.9326 C.3     1  UNL1        0.0684
      2 C           0.9222   -1.3621    1.3830 C.3     1  UNL1        0.0373
      3 C          -0.0392   -1.6668    0.3224 C.2     1  UNL1        0.2164
      4 O           0.0729   -2.7662   -0.3140 O.2     1  UNL1       -0.2756
      5 N          -1.1011   -0.7491   -0.0088 N.am    1  UNL1       -0.3009
      6 C          -1.5818    0.5506    0.4345 C.3     1  UNL1        0.0178
      7 C          -3.0832    0.3370    0.6924 C.3     1  UNL1       -0.0210
      8 C          -3.7657    1.6147    0.3949 C.3     1  UNL1       -0.0485
      9 C          -5.1607    1.5066   -0.1266 C.3     1  UNL1       -0.0527
     10 C          -5.6340    0.0583   -0.1815 C.3     1  UNL1       -0.0527
     11 C          -4.5939   -0.6416   -1.0680 C.3     1  UNL1       -0.0485
     12 C          -3.3740   -0.7936   -0.2364 C.3     1  UNL1       -0.0210
     13 C          -2.0958   -0.9991   -1.0609 C.3     1  UNL1        0.0178
     14 C           2.2161    0.3676    0.1055 C.3     1  UNL1       -0.0143
     15 C           3.6077    0.7143   -0.2794 C.ar    1  UNL1       -0.0466
     16 C           4.2547    0.2980   -1.4240 C.ar    1  UNL1       -0.0586
     17 C           5.5595    0.6817   -1.6843 C.ar    1  UNL1       -0.0615
     18 C           6.2736    1.4948   -0.8172 C.ar    1  UNL1       -0.0617
     19 C           5.6559    1.9376    0.3517 C.ar    1  UNL1       -0.0615
     20 C           4.3440    1.5285    0.5744 C.ar    1  UNL1       -0.0586
     21 C           3.0820   -1.9466    0.2661 C.2     1  UNL1        0.3086
     22 O           2.6229   -2.5504   -0.8919 O.3     1  UNL1       -0.4804
     23 O           4.2069   -2.3336    0.7007 O.2     1  UNL1       -0.2507
     24 H           2.8325   -0.6357    1.8665 H       1  UNL1        0.0421
     25 H           0.5194   -0.6120    2.0868 H       1  UNL1        0.0366
     26 H           1.0848   -2.2879    1.9910 H       1  UNL1        0.0366
     27 H          -1.4333    1.2367   -0.4236 H       1  UNL1        0.0467
     28 H          -1.0726    0.9388    1.3228 H       1  UNL1        0.0467
     29 H          -3.1524    0.0450    1.7610 H       1  UNL1        0.0319
     30 H          -3.8036    2.2216    1.3319 H       1  UNL1        0.0269
     31 H          -3.1519    2.2530   -0.3012 H       1  UNL1        0.0269
     32 H          -5.1859    1.8522   -1.1844 H       1  UNL1        0.0265
     33 H          -5.8886    2.0784    0.4781 H       1  UNL1        0.0265
     34 H          -6.6455   -0.0018   -0.5753 H       1  UNL1        0.0265
     35 H          -5.5089   -0.3525    0.8380 H       1  UNL1        0.0265
     36 H          -4.4364   -0.1158   -2.0222 H       1  UNL1        0.0269
     37 H          -5.0692   -1.6414   -1.2843 H       1  UNL1        0.0269
     38 H          -3.4810   -1.7215    0.3716 H       1  UNL1        0.0319
     39 H          -2.0437   -2.0092   -1.4673 H       1  UNL1        0.0467
     40 H          -1.9476   -0.2028   -1.8055 H       1  UNL1        0.0467
     41 H           1.5777    0.2780   -0.7809 H       1  UNL1        0.0321
     42 H           1.8120    1.1510    0.7658 H       1  UNL1        0.0321
     43 H           3.7043   -0.3297   -2.0942 H       1  UNL1        0.0620
     44 H           6.0591    0.3466   -2.5919 H       1  UNL1        0.0618
     45 H           7.2929    1.8164   -0.9853 H       1  UNL1        0.0618
     46 H           6.1486    2.5752    1.0783 H       1  UNL1        0.0618
     47 H           3.8787    1.8794    1.4842 H       1  UNL1        0.0620
     48 H           3.2541   -3.1380   -1.4206 H       1  UNL1        0.2951
@<TRIPOS>BOND
     1     1     2    1
     2     2     3    1
     3     3     4    2
     4     3     5   am
     5     5     6    1
     6     6     7    1
     7     7     8    1
     8     8     9    1
     9     9    10    1
    10    10    11    1
    11    11    12    1
    12    12    13    1
    13     1    14    1
    14    14    15    1
    15    15    16   ar
    16    16    17   ar
    17    17    18   ar
    18    18    19   ar
    19    19    20   ar
    20     1    21    1
    21    21    22    1
    22    21    23    2
    23    13     5    1
    24    20    15   ar
    25    12     7    1
    26     1    24    1
    27     2    25    1
    28     2    26    1
    29     6    27    1
    30     6    28    1
    31     7    29    1
    32     8    30    1
    33     8    31    1
    34     9    32    1
    35     9    33    1
    36    10    34    1
    37    10    35    1
    38    11    36    1
    39    11    37    1
    40    12    38    1
    41    13    39    1
    42    13    40    1
    43    14    41    1
    44    14    42    1
    45    16    43    1
    46    17    44    1
    47    18    45    1
    48    19    46    1
    49    20    47    1
    50    22    48    1
