@<TRIPOS>MOLECULE
*****
 72 75 0 0 0
SMALL
GASTEIGER

@<TRIPOS>ATOM
      1 C           8.1017    2.9864   -0.2150 C.3     1  UNL1        0.0124
      2 C           6.6300    3.1730   -0.2384 C.2     1  UNL1        0.2125
      3 O           6.2079    4.3389   -0.4281 O.2     1  UNL1       -0.2759
      4 N           5.7084    2.1242   -0.0614 N.am    1  UNL1       -0.3017
      5 C           4.2930    2.3995   -0.0997 C.3     1  UNL1        0.0153
      6 C           3.6563    1.1083   -0.6450 C.3     1  UNL1       -0.0260
      7 C           3.7808    0.0836    0.4504 C.3     1  UNL1        0.0386
      8 C           3.1248   -1.1733    0.0400 C.2     1  UNL1        0.2188
      9 O           3.9158   -2.1801   -0.0792 O.2     1  UNL1       -0.2753
     10 N           1.7577   -1.3029   -0.2074 N.am    1  UNL1       -0.2999
     11 C           1.0828   -2.5344   -0.6140 C.3     1  UNL1        0.0223
     12 C          -0.0582   -2.5048    0.3706 C.3     1  UNL1        0.0125
     13 C          -1.1195   -3.4823    0.0218 C.ar    1  UNL1       -0.0420
     14 C          -1.4904   -4.3906    0.9807 C.ar    1  UNL1       -0.0582
     15 C          -2.4812   -5.3414    0.7238 C.ar    1  UNL1       -0.0615
     16 C          -3.0806   -5.3511   -0.5118 C.ar    1  UNL1       -0.0617
     17 C          -2.6841   -4.4259   -1.4498 C.ar    1  UNL1       -0.0615
     18 C          -1.7120   -3.4910   -1.2017 C.ar    1  UNL1       -0.0582
     19 C          -0.5534   -1.0784    0.2550 C.3     1  UNL1        0.0596
     20 C          -1.1399   -0.5930    1.4998 C.2     1  UNL1        0.2208
     21 O          -1.1331   -1.4110    2.4824 O.2     1  UNL1       -0.2752
     22 N          -1.6898    0.6751    1.6766 N.am    1  UNL1       -0.2999
     23 C          -2.2061    0.9789    3.0369 C.3     1  UNL1        0.0035
     24 C          -1.8106    1.6882    0.6548 C.3     1  UNL1        0.0394
     25 C          -3.1786    1.6492    0.0228 C.ar    1  UNL1       -0.0291
     26 C          -3.4653    0.9627   -1.1252 C.ar    1  UNL1       -0.0454
     27 C          -4.7208    0.9312   -1.6771 C.ar    1  UNL1        0.0556
     28 C          -5.0337    0.1836   -2.9269 C.3     1  UNL1        0.4174
     29 F          -4.5307    0.7717   -4.0457 F       1  UNL1       -0.1659
     30 F          -4.5514   -1.1293   -2.8554 F       1  UNL1       -0.1659
     31 F          -6.4051    0.0784   -3.0672 F       1  UNL1       -0.1659
     32 C          -5.7285    1.6240   -1.0404 C.ar    1  UNL1       -0.0385
     33 C          -5.4746    2.3323    0.1264 C.ar    1  UNL1        0.0556
     34 C          -6.5998    3.0529    0.7571 C.3     1  UNL1        0.4174
     35 F          -7.1428    2.2056    1.7147 F       1  UNL1       -0.1659
     36 F          -7.5807    3.2974   -0.1835 F       1  UNL1       -0.1659
     37 F          -6.1562    4.2149    1.3262 F       1  UNL1       -0.1659
     38 C          -4.2096    2.3398    0.6464 C.ar    1  UNL1       -0.0454
     39 C           0.7215   -0.3091   -0.1160 C.3     1  UNL1        0.0264
     40 C           5.2197   -0.1077    0.8266 C.3     1  UNL1       -0.0260
     41 C           6.1924    0.7913    0.1544 C.3     1  UNL1        0.0153
     42 H           8.4936    3.5404   -1.1057 H       1  UNL1        0.0323
     43 H           8.5298    3.3495    0.7249 H       1  UNL1        0.0323
     44 H           8.3009    1.9150   -0.4266 H       1  UNL1        0.0323
     45 H           3.8642    2.5165    0.9166 H       1  UNL1        0.0465
     46 H           4.0035    3.2203   -0.7523 H       1  UNL1        0.0465
     47 H           4.3412    0.7784   -1.4819 H       1  UNL1        0.0288
     48 H           2.6522    1.2915   -1.0115 H       1  UNL1        0.0288
     49 H           3.2384    0.4758    1.3532 H       1  UNL1        0.0395
     50 H           1.7379   -3.4165   -0.4866 H       1  UNL1        0.0471
     51 H           0.7203   -2.4093   -1.6479 H       1  UNL1        0.0471
     52 H           0.3474   -2.6653    1.3795 H       1  UNL1        0.0372
     53 H          -1.0310   -4.3952    1.9523 H       1  UNL1        0.0620
     54 H          -2.7594   -6.0506    1.4965 H       1  UNL1        0.0618
     55 H          -3.8599   -6.0834   -0.7434 H       1  UNL1        0.0618
     56 H          -3.1539   -4.4317   -2.4225 H       1  UNL1        0.0618
     57 H          -1.3901   -2.7590   -1.9278 H       1  UNL1        0.0620
     58 H          -1.2193   -1.0534   -0.6134 H       1  UNL1        0.0416
     59 H          -2.2265    2.0514    3.2257 H       1  UNL1        0.0429
     60 H          -1.4899    0.5230    3.7507 H       1  UNL1        0.0429
     61 H          -3.1982    0.5157    3.1408 H       1  UNL1        0.0429
     62 H          -1.0881    1.5921   -0.1660 H       1  UNL1        0.0514
     63 H          -1.7395    2.6807    1.1524 H       1  UNL1        0.0514
     64 H          -2.6874    0.4191   -1.6487 H       1  UNL1        0.0626
     65 H          -6.7431    1.6256   -1.4462 H       1  UNL1        0.0629
     66 H          -4.0137    2.8990    1.5653 H       1  UNL1        0.0626
     67 H           0.5678    0.2101   -1.0989 H       1  UNL1        0.0472
     68 H           0.8619    0.4544    0.6471 H       1  UNL1        0.0472
     69 H           5.4781   -1.1750    0.5603 H       1  UNL1        0.0288
     70 H           5.3361   -0.0875    1.9494 H       1  UNL1        0.0288
     71 H           7.0820    0.8871    0.8439 H       1  UNL1        0.0465
     72 H           6.5887    0.3967   -0.8007 H       1  UNL1        0.0465
@<TRIPOS>BOND
     1     1     2    1
     2     2     3    2
     3     2     4   am
     4     4     5    1
     5     5     6    1
     6     6     7    1
     7     7     8    1
     8     8     9    2
     9     8    10   am
    10    10    11    1
    11    11    12    1
    12    12    13    1
    13    13    14   ar
    14    14    15   ar
    15    15    16   ar
    16    16    17   ar
    17    17    18   ar
    18    12    19    1
    19    19    20    1
    20    20    21    2
    21    20    22   am
    22    22    23    1
    23    22    24    1
    24    24    25    1
    25    25    26   ar
    26    26    27   ar
    27    27    28    1
    28    28    29    1
    29    28    30    1
    30    28    31    1
    31    27    32   ar
    32    32    33   ar
    33    33    34    1
    34    34    35    1
    35    34    36    1
    36    34    37    1
    37    33    38   ar
    38    19    39    1
    39     7    40    1
    40    40    41    1
    41    41     4    1
    42    39    10    1
    43    18    13   ar
    44    38    25   ar
    45     1    42    1
    46     1    43    1
    47     1    44    1
    48     5    45    1
    49     5    46    1
    50     6    47    1
    51     6    48    1
    52     7    49    1
    53    11    50    1
    54    11    51    1
    55    12    52    1
    56    14    53    1
    57    15    54    1
    58    16    55    1
    59    17    56    1
    60    18    57    1
    61    19    58    1
    62    23    59    1
    63    23    60    1
    64    23    61    1
    65    24    62    1
    66    24    63    1
    67    26    64    1
    68    32    65    1
    69    38    66    1
    70    39    67    1
    71    39    68    1
    72    40    69    1
    73    40    70    1
    74    41    71    1
    75    41    72    1
