@<TRIPOS>MOLECULE
*****
 54 56 0 0 0
SMALL
GASTEIGER

@<TRIPOS>ATOM
      1 C           8.5243    2.9131   -0.3355 C.3     1  UNL1       -0.0306
      2 C           8.6513    1.4916    0.0984 C.3     1  UNL1        0.0898
      3 O           7.5088    0.7133   -0.1984 O.3     1  UNL1       -0.4626
      4 C           6.2397    0.9971    0.3014 C.2     1  UNL1        0.3451
      5 O           6.5088    2.0165    0.9756 O.2     1  UNL1       -0.2470
      6 C           5.2553   -0.0223   -0.2066 C.3     1  UNL1        0.1858
      7 O           3.9856    0.2888    0.3215 O.3     1  UNL1       -0.4808
      8 C           2.8522   -0.4737    0.0361 C.ar    1  UNL1        0.1216
      9 C           2.9779   -1.5682   -0.7902 C.ar    1  UNL1       -0.0196
     10 C           1.8209   -2.2811   -1.0338 C.ar    1  UNL1       -0.0549
     11 C           0.6093   -1.9431   -0.4998 C.ar    1  UNL1       -0.0439
     12 C          -0.6577   -2.6855   -0.7391 C.3     1  UNL1       -0.0260
     13 C          -1.4111   -2.6282    0.5740 C.3     1  UNL1       -0.0332
     14 C          -1.8913   -1.2676    0.9143 C.3     1  UNL1        0.0120
     15 C          -0.7257   -0.3089    1.0067 C.3     1  UNL1       -0.0118
     16 C           0.5028   -0.8420    0.3266 C.ar    1  UNL1       -0.0393
     17 C           1.6503   -0.0958    0.5967 C.ar    1  UNL1       -0.0164
     18 N          -2.8828   -0.7302    0.0260 N.3     1  UNL1       -0.3102
     19 C          -4.0823   -1.4730   -0.0717 C.3     1  UNL1        0.0264
     20 C          -5.0158   -0.8185   -1.0555 C.3     1  UNL1        0.0926
     21 O          -4.3780   -0.7842   -2.3085 O.3     1  UNL1       -0.3859
     22 C          -5.5202    0.4986   -0.6629 C.ar    1  UNL1       -0.0166
     23 C          -4.8347    1.6762   -0.8722 C.ar    1  UNL1       -0.0560
     24 C          -5.4368    2.8435   -0.4387 C.ar    1  UNL1       -0.0600
     25 C          -6.6658    2.8809    0.1799 C.ar    1  UNL1       -0.0434
     26 C          -7.3522    1.7215    0.3914 C.ar    1  UNL1        0.0413
     27 CL         -8.9224    1.6939    1.1722 Cl      1  UNL1       -0.0835
     28 C          -6.7515    0.5542   -0.0413 C.ar    1  UNL1       -0.0377
     29 H           7.7753    2.9812   -1.1479 H       1  UNL1        0.0262
     30 H           9.4935    3.2362   -0.7678 H       1  UNL1        0.0262
     31 H           8.3207    3.6165    0.4956 H       1  UNL1        0.0262
     32 H           8.8499    1.4987    1.1946 H       1  UNL1        0.0694
     33 H           9.5167    1.0206   -0.3721 H       1  UNL1        0.0694
     34 H           5.6128   -1.0169    0.1188 H       1  UNL1        0.0815
     35 H           5.2521   -0.0060   -1.3179 H       1  UNL1        0.0815
     36 H           3.9029   -1.8915   -1.2450 H       1  UNL1        0.0654
     37 H           1.7802   -3.1568   -1.6612 H       1  UNL1        0.0621
     38 H          -1.1766   -2.1137   -1.5458 H       1  UNL1        0.0314
     39 H          -0.4765   -3.7368   -1.0172 H       1  UNL1        0.0314
     40 H          -0.6315   -2.8839    1.3443 H       1  UNL1        0.0283
     41 H          -2.1575   -3.4238    0.6727 H       1  UNL1        0.0283
     42 H          -2.3578   -1.2960    1.9268 H       1  UNL1        0.0464
     43 H          -0.9822    0.6282    0.4766 H       1  UNL1        0.0328
     44 H          -0.4859   -0.0533    2.0712 H       1  UNL1        0.0328
     45 H           1.6448    0.7917    1.2439 H       1  UNL1        0.0657
     46 H          -3.1598    0.2403    0.3757 H       1  UNL1        0.1223
     47 H          -4.6115   -1.5464    0.9236 H       1  UNL1        0.0453
     48 H          -3.9640   -2.5143   -0.4168 H       1  UNL1        0.0453
     49 H          -5.8652   -1.5530   -1.2233 H       1  UNL1        0.0656
     50 H          -3.6255   -0.1350   -2.3190 H       1  UNL1        0.2103
     51 H          -3.8699    1.6802   -1.3602 H       1  UNL1        0.0621
     52 H          -4.9417    3.8047   -0.5772 H       1  UNL1        0.0618
     53 H          -7.0906    3.8334    0.5006 H       1  UNL1        0.0632
     54 H          -7.3116   -0.3708    0.1335 H       1  UNL1        0.0636
@<TRIPOS>BOND
     1     1     2    1
     2     2     3    1
     3     3     4    1
     4     4     5    2
     5     4     6    1
     6     6     7    1
     7     7     8    1
     8     8     9   ar
     9     9    10   ar
    10    10    11   ar
    11    11    12    1
    12    12    13    1
    13    13    14    1
    14    14    15    1
    15    15    16    1
    16    16    17   ar
    17    14    18    1
    18    18    19    1
    19    19    20    1
    20    20    21    1
    21    20    22    1
    22    22    23   ar
    23    23    24   ar
    24    24    25   ar
    25    25    26   ar
    26    26    27    1
    27    26    28   ar
    28    17     8   ar
    29    28    22   ar
    30    16    11   ar
    31     1    29    1
    32     1    30    1
    33     1    31    1
    34     2    32    1
    35     2    33    1
    36     6    34    1
    37     6    35    1
    38     9    36    1
    39    10    37    1
    40    12    38    1
    41    12    39    1
    42    13    40    1
    43    13    41    1
    44    14    42    1
    45    15    43    1
    46    15    44    1
    47    17    45    1
    48    18    46    1
    49    19    47    1
    50    19    48    1
    51    20    49    1
    52    21    50    1
    53    23    51    1
    54    24    52    1
    55    25    53    1
    56    28    54    1
