@<TRIPOS>MOLECULE
*****
 41 43 0 0 0
SMALL
GASTEIGER

@<TRIPOS>ATOM
      1 C          -2.4902   -2.6577   -0.5203 C.3     1  UNL1       -0.0507
      2 C          -1.4988   -1.6479   -1.0528 C.3     1  UNL1        0.0180
      3 N          -1.5533   -0.3898   -0.4041 N.3     1  UNL1       -0.1725
      4 C          -2.8083    0.2402   -0.4658 C.3     1  UNL1        0.0455
      5 C          -2.6882    1.7471   -0.5203 C.3     1  UNL1       -0.0219
      6 C          -3.5546    2.2715    0.5774 C.3     1  UNL1       -0.0025
      7 N          -4.2226    1.1792    1.1975 N.3     1  UNL1       -0.3144
      8 C          -3.7650   -0.0464    0.6288 C.3     1  UNL1        0.0132
      9 S          -0.5825   -0.1706    0.9405 S.O2    1  UNL1        0.0611
     10 O          -0.7898    1.1791    1.5611 O.2     1  UNL1       -0.1528
     11 O          -0.8893   -1.2203    1.9947 O.2     1  UNL1       -0.1528
     12 C           1.1373   -0.3205    0.5993 C.ar    1  UNL1        0.1061
     13 C           1.7594   -1.5479    0.6974 C.ar    1  UNL1       -0.0348
     14 C           3.1113   -1.6334    0.4229 C.ar    1  UNL1       -0.0522
     15 C           3.8584   -0.5255    0.0529 C.ar    1  UNL1       -0.0178
     16 C           5.2129   -0.6092   -0.2226 C.ar    1  UNL1       -0.0540
     17 C           5.9452    0.5143   -0.5924 C.ar    1  UNL1       -0.0612
     18 C           5.3398    1.7386   -0.6935 C.ar    1  UNL1       -0.0612
     19 C           3.9883    1.8170   -0.4177 C.ar    1  UNL1       -0.0540
     20 C           3.2403    0.7105   -0.0477 C.ar    1  UNL1       -0.0160
     21 C           1.8991    0.7728    0.2289 C.ar    1  UNL1       -0.0276
     22 H          -3.5218   -2.4856   -0.8908 H       1  UNL1        0.0243
     23 H          -2.5074   -2.7355    0.5655 H       1  UNL1        0.0243
     24 H          -2.1872   -3.6785   -0.8981 H       1  UNL1        0.0243
     25 H          -0.5168   -2.1171   -1.0797 H       1  UNL1        0.0441
     26 H          -1.7920   -1.4827   -2.1323 H       1  UNL1        0.0441
     27 H          -3.2791   -0.0519   -1.4518 H       1  UNL1        0.0493
     28 H          -3.0140    2.1709   -1.5120 H       1  UNL1        0.0293
     29 H          -1.6247    2.0478   -0.4330 H       1  UNL1        0.0293
     30 H          -2.9282    2.8776    1.2617 H       1  UNL1        0.0424
     31 H          -4.2941    3.0073    0.1433 H       1  UNL1        0.0424
     32 H          -5.2533    1.3161    1.1788 H       1  UNL1        0.1220
     33 H          -4.6758   -0.5922    0.2465 H       1  UNL1        0.0440
     34 H          -3.3687   -0.6777    1.4466 H       1  UNL1        0.0440
     35 H           1.2280   -2.4530    0.9827 H       1  UNL1        0.0637
     36 H           3.6264   -2.5815    0.4913 H       1  UNL1        0.0624
     37 H           5.6584   -1.5878   -0.1334 H       1  UNL1        0.0624
     38 H           7.0023    0.4324   -0.8043 H       1  UNL1        0.0618
     39 H           5.8608    2.6505   -0.9779 H       1  UNL1        0.0618
     40 H           3.5049    2.7850   -0.4967 H       1  UNL1        0.0624
     41 H           1.4328    1.7547    0.1436 H       1  UNL1        0.0643
@<TRIPOS>BOND
     1     1     2    1
     2     2     3    1
     3     3     4    1
     4     4     5    1
     5     5     6    1
     6     6     7    1
     7     7     8    1
     8     3     9    1
     9     9    10    2
    10     9    11    2
    11     9    12    1
    12    12    13   ar
    13    13    14   ar
    14    14    15   ar
    15    15    16   ar
    16    16    17   ar
    17    17    18   ar
    18    18    19   ar
    19    19    20   ar
    20    20    21   ar
    21     8     4    1
    22    21    12   ar
    23    20    15   ar
    24     1    22    1
    25     1    23    1
    26     1    24    1
    27     2    25    1
    28     2    26    1
    29     4    27    1
    30     5    28    1
    31     5    29    1
    32     6    30    1
    33     6    31    1
    34     7    32    1
    35     8    33    1
    36     8    34    1
    37    13    35    1
    38    14    36    1
    39    16    37    1
    40    17    38    1
    41    18    39    1
    42    19    40    1
    43    21    41    1
