@<TRIPOS>MOLECULE
*****
 46 50 0 0 0
SMALL
GASTEIGER

@<TRIPOS>ATOM
      1 O           4.5503   -0.9095    1.4944 O.2     1  UNL1       -0.2702
      2 C           4.7467   -0.2502    0.4244 C.2     1  UNL1        0.2443
      3 N           6.0457   -0.3064   -0.1044 N.am    1  UNL1       -0.3085
      4 C           7.1268   -1.0649    0.5106 C.3     1  UNL1        0.0235
      5 C           8.4250   -0.2608    0.6152 C.3     1  UNL1       -0.0328
      6 C           8.3226   -1.4277   -0.2926 C.3     1  UNL1       -0.0328
      7 C           3.6258    0.4842   -0.1360 C.ar    1  UNL1        0.0385
      8 C           3.7895    1.2115   -1.2914 C.ar    1  UNL1       -0.0481
      9 C           2.7018    1.8954   -1.7927 C.ar    1  UNL1       -0.0409
     10 C           1.4868    1.8490   -1.1513 C.ar    1  UNL1        0.0621
     11 CL          0.1184    2.7242   -1.8039 Cl      1  UNL1       -0.0816
     12 C           1.2823    1.1308    0.0099 C.ar    1  UNL1        0.0517
     13 N           0.0339    1.0714    0.6863 N.pl3   1  UNL1       -0.2963
     14 C          -1.1396    0.5593    0.0554 C.ar    1  UNL1        0.1562
     15 N          -1.0557    0.1230   -1.2124 N.ar    1  UNL1       -0.1333
     16 N          -2.1232   -0.3599   -1.8335 N.ar    1  UNL1       -0.1537
     17 C          -3.3244   -0.4352   -1.2331 C.ar    1  UNL1        0.0761
     18 C          -3.4895   -0.0077    0.0650 C.ar    1  UNL1        0.0979
     19 C          -2.3532    0.4937    0.6911 C.ar    1  UNL1        0.0634
     20 C          -2.7689    0.8487    1.9567 C.ar    1  UNL1        0.0609
     21 N          -4.0968    0.5624    2.0568 N.ar    1  UNL1       -0.1733
     22 N          -4.5309    0.0447    0.9123 N.ar    1  UNL1       -0.2249
     23 C          -5.8823   -0.3809    0.6415 C.ar    1  UNL1        0.1362
     24 C          -6.5061   -1.3391    1.4134 C.ar    1  UNL1        0.1515
     25 F          -5.8337   -1.8924    2.4493 F       1  UNL1       -0.2032
     26 C          -7.8098   -1.7504    1.1529 C.ar    1  UNL1       -0.0242
     27 C          -8.4896   -1.1788    0.0913 C.ar    1  UNL1       -0.0562
     28 C          -7.8497   -0.2217   -0.6702 C.ar    1  UNL1       -0.0242
     29 C          -6.5613    0.1953   -0.4252 C.ar    1  UNL1        0.1515
     30 F          -5.9587    1.1278   -1.1791 F       1  UNL1       -0.2032
     31 C           2.3799    0.4552    0.4942 C.ar    1  UNL1       -0.0270
     32 H           6.2645    0.2117   -0.9755 H       1  UNL1        0.1493
     33 H           6.8915   -1.6187    1.4423 H       1  UNL1        0.0498
     34 H           9.0357   -0.3570    1.5226 H       1  UNL1        0.0284
     35 H           8.4770    0.7283    0.1432 H       1  UNL1        0.0284
     36 H           8.2406   -1.2343   -1.3856 H       1  UNL1        0.0284
     37 H           8.8151   -2.3801   -0.0195 H       1  UNL1        0.0284
     38 H           4.7579    1.2353   -1.7832 H       1  UNL1        0.0625
     39 H           2.8575    2.4600   -2.7032 H       1  UNL1        0.0633
     40 H           0.0118    1.4202    1.6696 H       1  UNL1        0.1537
     41 H          -4.1884   -0.8425   -1.7816 H       1  UNL1        0.0870
     42 H          -2.1178    1.2733    2.6968 H       1  UNL1        0.0855
     43 H          -8.2941   -2.4991    1.7579 H       1  UNL1        0.0647
     44 H          -9.5094   -1.4944   -0.1198 H       1  UNL1        0.0619
     45 H          -8.3783    0.2309   -1.5054 H       1  UNL1        0.0647
     46 H           2.2740   -0.1245    1.4036 H       1  UNL1        0.0644
@<TRIPOS>BOND
     1     1     2    2
     2     2     3   am
     3     3     4    1
     4     4     5    1
     5     5     6    1
     6     2     7    1
     7     7     8   ar
     8     8     9   ar
     9     9    10   ar
    10    10    11    1
    11    10    12   ar
    12    12    13    1
    13    13    14    1
    14    14    15   ar
    15    15    16   ar
    16    16    17   ar
    17    17    18   ar
    18    18    19   ar
    19    19    20   ar
    20    20    21   ar
    21    21    22   ar
    22    22    23    1
    23    23    24   ar
    24    24    25    1
    25    24    26   ar
    26    26    27   ar
    27    27    28   ar
    28    28    29   ar
    29    29    30    1
    30    12    31   ar
    31     6     4    1
    32    31     7   ar
    33    19    14   ar
    34    29    23   ar
    35    22    18   ar
    36     3    32    1
    37     4    33    1
    38     5    34    1
    39     5    35    1
    40     6    36    1
    41     6    37    1
    42     8    38    1
    43     9    39    1
    44    13    40    1
    45    17    41    1
    46    20    42    1
    47    26    43    1
    48    27    44    1
    49    28    45    1
    50    31    46    1
