
     RDKit          3D

 61 63  0  0  0  0  0  0  0  0999 V2000
    6.5806    0.7521    0.6341 C   0  0  0  0  0  0  0  0  0  0  0  0
    5.8494    2.0620    0.4657 C   0  0  0  0  0  0  0  0  0  0  0  0
    4.3511    1.7581    0.4503 C   0  0  0  0  0  0  0  0  0  0  0  0
    3.9593    0.6727   -0.8854 S   0  0  0  0  0  6  0  0  0  0  0  0
    4.7213   -0.6081   -0.7717 O   0  0  0  0  0  0  0  0  0  0  0  0
    4.2704    1.3768   -2.1776 O   0  0  0  0  0  0  0  0  0  0  0  0
    2.2652    0.3630   -0.8575 N   0  0  0  0  0  0  0  0  0  0  0  0
    1.8501   -0.2884    0.3667 C   0  0  0  0  0  0  0  0  0  0  0  0
    0.3413   -0.2056    0.4154 C   0  0  0  0  0  0  0  0  0  0  0  0
   -0.3237   -0.6529   -0.8549 C   0  0  0  0  0  0  0  0  0  0  0  0
   -0.8572    0.5494   -1.6387 C   0  0  0  0  0  0  0  0  0  0  0  0
   -1.8254    1.2338   -0.7722 N   0  0  0  0  0  0  0  0  0  0  0  0
   -2.5027    2.3909   -1.2217 C   0  0  0  0  0  0  0  0  0  0  0  0
   -2.2656    2.8242   -2.3650 O   0  0  0  0  0  0  0  0  0  0  0  0
   -3.4583    3.0644   -0.3685 C   0  0  0  0  0  0  0  0  0  0  0  0
   -3.1260    3.6357    0.8437 C   0  0  0  0  0  0  0  0  0  0  0  0
   -4.0245    4.2742    1.6585 C   0  0  0  0  0  0  0  0  0  0  0  0
   -5.3391    4.3583    1.2570 C   0  0  0  0  0  0  0  0  0  0  0  0
   -6.5265    5.1606    2.2553 Cl  0  0  0  0  0  0  0  0  0  0  0  0
   -5.7252    3.8044    0.0546 C   0  0  0  0  0  0  0  0  0  0  0  0
   -4.8028    3.1685   -0.7449 C   0  0  0  0  0  0  0  0  0  0  0  0
   -5.2419    2.4499   -2.2795 Cl  0  0  0  0  0  0  0  0  0  0  0  0
   -1.4454   -1.5409   -0.5491 C   0  0  0  0  0  0  0  0  0  0  0  0
   -2.6210   -1.0906   -0.8555 O   0  0  0  0  0  0  0  0  0  0  0  0
   -1.4305   -2.8096    0.0268 N   0  0  0  0  0  0  0  0  0  0  0  0
   -2.6829   -3.5402    0.2778 C   0  0  0  0  0  0  0  0  0  0  0  0
   -2.3525   -5.0041    0.0230 C   0  0  0  0  0  0  0  0  0  0  0  0
   -1.4366   -5.4658    0.9395 O   0  0  0  0  0  0  0  0  0  0  0  0
   -0.6991   -4.4671    1.5354 C   0  0  0  0  0  0  0  0  0  0  0  0
   -0.2479   -3.5167    0.4007 C   0  0  0  0  0  0  0  0  0  0  0  0
    0.6955   -1.2878   -1.7669 C   0  0  0  0  0  0  0  0  0  0  0  0
    1.8222   -0.3242   -2.0368 C   0  0  0  0  0  0  0  0  0  0  0  0
    5.9025    0.0492    1.1698 H   0  0  0  0  0  0  0  0  0  0  0  0
    6.8103    0.3594   -0.3747 H   0  0  0  0  0  0  0  0  0  0  0  0
    7.4837    0.8587    1.2708 H   0  0  0  0  0  0  0  0  0  0  0  0
    6.1139    2.5262   -0.4848 H   0  0  0  0  0  0  0  0  0  0  0  0
    6.0604    2.6868    1.3383 H   0  0  0  0  0  0  0  0  0  0  0  0
    4.0372    1.2799    1.4131 H   0  0  0  0  0  0  0  0  0  0  0  0
    3.8524    2.7386    0.3057 H   0  0  0  0  0  0  0  0  0  0  0  0
    2.2358   -1.3005    0.4746 H   0  0  0  0  0  0  0  0  0  0  0  0
    2.2157    0.3638    1.2098 H   0  0  0  0  0  0  0  0  0  0  0  0
   -0.0000   -0.7618    1.3055 H   0  0  0  0  0  0  0  0  0  0  0  0
    0.0983    0.8822    0.5959 H   0  0  0  0  0  0  0  0  0  0  0  0
   -0.0643    1.2537   -1.9296 H   0  0  0  0  0  0  0  0  0  0  0  0
   -1.4356    0.1518   -2.4943 H   0  0  0  0  0  0  0  0  0  0  0  0
   -2.0173    0.8746    0.1840 H   0  0  0  0  0  0  0  0  0  0  0  0
   -2.0853    3.5657    1.1548 H   0  0  0  0  0  0  0  0  0  0  0  0
   -3.7128    4.7152    2.6183 H   0  0  0  0  0  0  0  0  0  0  0  0
   -6.7483    3.8525   -0.2905 H   0  0  0  0  0  0  0  0  0  0  0  0
   -3.0401   -3.3870    1.3105 H   0  0  0  0  0  0  0  0  0  0  0  0
   -3.4762   -3.2244   -0.4254 H   0  0  0  0  0  0  0  0  0  0  0  0
   -1.9041   -5.0351   -1.0089 H   0  0  0  0  0  0  0  0  0  0  0  0
   -3.2618   -5.6137   -0.0231 H   0  0  0  0  0  0  0  0  0  0  0  0
    0.2395   -4.8555    1.9684 H   0  0  0  0  0  0  0  0  0  0  0  0
   -1.2998   -3.8776    2.2579 H   0  0  0  0  0  0  0  0  0  0  0  0
    0.1221   -4.1670   -0.4283 H   0  0  0  0  0  0  0  0  0  0  0  0
    0.5758   -2.9508    0.8130 H   0  0  0  0  0  0  0  0  0  0  0  0
    1.1006   -2.2211   -1.3816 H   0  0  0  0  0  0  0  0  0  0  0  0
    0.1822   -1.4275   -2.7642 H   0  0  0  0  0  0  0  0  0  0  0  0
    2.6901   -0.8799   -2.5164 H   0  0  0  0  0  0  0  0  0  0  0  0
    1.5539    0.4465   -2.7941 H   0  0  0  0  0  0  0  0  0  0  0  0
  1  2  1  0
  2  3  1  0
  3  4  1  0
  4  5  2  0
  4  6  2  0
  4  7  1  0
  7  8  1  0
  8  9  1  0
  9 10  1  0
 10 11  1  0
 11 12  1  0
 12 13  1  0
 13 14  2  0
 13 15  1  0
 15 16  2  0
 16 17  1  0
 17 18  2  0
 18 19  1  0
 18 20  1  0
 20 21  2  0
 21 22  1  0
 10 23  1  0
 23 24  2  0
 23 25  1  0
 25 26  1  0
 26 27  1  0
 27 28  1  0
 28 29  1  0
 29 30  1  0
 10 31  1  0
 31 32  1  0
 32  7  1  0
 21 15  1  0
 30 25  1  0
  1 33  1  0
  1 34  1  0
  1 35  1  0
  2 36  1  0
  2 37  1  0
  3 38  1  0
  3 39  1  0
  8 40  1  0
  8 41  1  0
  9 42  1  0
  9 43  1  0
 11 44  1  0
 11 45  1  0
 12 46  1  0
 16 47  1  0
 17 48  1  0
 20 49  1  0
 26 50  1  0
 26 51  1  0
 27 52  1  0
 27 53  1  0
 29 54  1  0
 29 55  1  0
 30 56  1  0
 30 57  1  0
 31 58  1  0
 31 59  1  0
 32 60  1  0
 32 61  1  0
M  END
$$$$
