@<TRIPOS>MOLECULE
*****
 61 63 0 0 0
SMALL
GASTEIGER

@<TRIPOS>ATOM
      1 C           6.5806    0.7521    0.6341 C.3     1  UNL1       -0.0638
      2 C           5.8494    2.0620    0.4657 C.3     1  UNL1       -0.0350
      3 C           4.3511    1.7581    0.4503 C.3     1  UNL1        0.0817
      4 S           3.9593    0.6727   -0.8854 S.O2    1  UNL1        0.0318
      5 O           4.7213   -0.6081   -0.7717 O.2     1  UNL1       -0.1580
      6 O           4.2704    1.3768   -2.1776 O.2     1  UNL1       -0.1580
      7 N           2.2652    0.3630   -0.8575 N.3     1  UNL1       -0.1811
      8 C           1.8501   -0.2884    0.3667 C.3     1  UNL1        0.0211
      9 C           0.3413   -0.2056    0.4154 C.3     1  UNL1       -0.0231
     10 C          -0.3237   -0.6529   -0.8549 C.3     1  UNL1        0.0650
     11 C          -0.8572    0.5494   -1.6387 C.3     1  UNL1        0.0259
     12 N          -1.8254    1.2338   -0.7722 N.am    1  UNL1       -0.3103
     13 C          -2.5027    2.3909   -1.2217 C.2     1  UNL1        0.2455
     14 O          -2.2656    2.8242   -2.3650 O.2     1  UNL1       -0.2702
     15 C          -3.4583    3.0644   -0.3685 C.ar    1  UNL1        0.0550
     16 C          -3.1260    3.6357    0.8437 C.ar    1  UNL1       -0.0468
     17 C          -4.0245    4.2742    1.6585 C.ar    1  UNL1       -0.0426
     18 C          -5.3391    4.3583    1.2570 C.ar    1  UNL1        0.0424
     19 CL         -6.5265    5.1606    2.2553 Cl      1  UNL1       -0.0835
     20 C          -5.7252    3.8044    0.0546 C.ar    1  UNL1       -0.0243
     21 C          -4.8028    3.1685   -0.7449 C.ar    1  UNL1        0.0544
     22 CL         -5.2419    2.4499   -2.2795 Cl      1  UNL1       -0.0827
     23 C          -1.4454   -1.5409   -0.5491 C.2     1  UNL1        0.2235
     24 O          -2.6210   -1.0906   -0.8555 O.2     1  UNL1       -0.2749
     25 N          -1.4305   -2.8096    0.0268 N.am    1  UNL1       -0.2966
     26 C          -2.6829   -3.5402    0.2778 C.3     1  UNL1        0.0382
     27 C          -2.3525   -5.0041    0.0230 C.3     1  UNL1        0.0635
     28 O          -1.4366   -5.4658    0.9395 O.3     1  UNL1       -0.3767
     29 C          -0.6991   -4.4671    1.5354 C.3     1  UNL1        0.0635
     30 C          -0.2479   -3.5167    0.4007 C.3     1  UNL1        0.0382
     31 C           0.6955   -1.2878   -1.7669 C.3     1  UNL1       -0.0231
     32 C           1.8222   -0.3242   -2.0368 C.3     1  UNL1        0.0211
     33 H           5.9025    0.0492    1.1698 H       1  UNL1        0.0230
     34 H           6.8103    0.3594   -0.3747 H       1  UNL1        0.0230
     35 H           7.4837    0.8587    1.2708 H       1  UNL1        0.0230
     36 H           6.1139    2.5262   -0.4848 H       1  UNL1        0.0279
     37 H           6.0604    2.6868    1.3383 H       1  UNL1        0.0279
     38 H           4.0372    1.2799    1.4131 H       1  UNL1        0.0515
     39 H           3.8524    2.7386    0.3057 H       1  UNL1        0.0515
     40 H           2.2358   -1.3005    0.4746 H       1  UNL1        0.0444
     41 H           2.2157    0.3638    1.2098 H       1  UNL1        0.0444
     42 H          -0.0000   -0.7618    1.3055 H       1  UNL1        0.0289
     43 H           0.0983    0.8822    0.5959 H       1  UNL1        0.0289
     44 H          -0.0643    1.2537   -1.9296 H       1  UNL1        0.0472
     45 H          -1.4356    0.1518   -2.4943 H       1  UNL1        0.0472
     46 H          -2.0173    0.8746    0.1840 H       1  UNL1        0.1490
     47 H          -2.0853    3.5657    1.1548 H       1  UNL1        0.0626
     48 H          -3.7128    4.7152    2.6183 H       1  UNL1        0.0632
     49 H          -6.7483    3.8525   -0.2905 H       1  UNL1        0.0647
     50 H          -3.0401   -3.3870    1.3105 H       1  UNL1        0.0487
     51 H          -3.4762   -3.2244   -0.4254 H       1  UNL1        0.0487
     52 H          -1.9041   -5.0351   -1.0089 H       1  UNL1        0.0575
     53 H          -3.2618   -5.6137   -0.0231 H       1  UNL1        0.0575
     54 H           0.2395   -4.8555    1.9684 H       1  UNL1        0.0575
     55 H          -1.2998   -3.8776    2.2579 H       1  UNL1        0.0575
     56 H           0.1221   -4.1670   -0.4283 H       1  UNL1        0.0487
     57 H           0.5758   -2.9508    0.8130 H       1  UNL1        0.0487
     58 H           1.1006   -2.2211   -1.3816 H       1  UNL1        0.0289
     59 H           0.1822   -1.4275   -2.7642 H       1  UNL1        0.0289
     60 H           2.6901   -0.8799   -2.5164 H       1  UNL1        0.0444
     61 H           1.5539    0.4465   -2.7941 H       1  UNL1        0.0444
@<TRIPOS>BOND
     1     1     2    1
     2     2     3    1
     3     3     4    1
     4     4     5    2
     5     4     6    2
     6     4     7    1
     7     7     8    1
     8     8     9    1
     9     9    10    1
    10    10    11    1
    11    11    12    1
    12    12    13   am
    13    13    14    2
    14    13    15    1
    15    15    16   ar
    16    16    17   ar
    17    17    18   ar
    18    18    19    1
    19    18    20   ar
    20    20    21   ar
    21    21    22    1
    22    10    23    1
    23    23    24    2
    24    23    25   am
    25    25    26    1
    26    26    27    1
    27    27    28    1
    28    28    29    1
    29    29    30    1
    30    10    31    1
    31    31    32    1
    32    32     7    1
    33    21    15   ar
    34    30    25    1
    35     1    33    1
    36     1    34    1
    37     1    35    1
    38     2    36    1
    39     2    37    1
    40     3    38    1
    41     3    39    1
    42     8    40    1
    43     8    41    1
    44     9    42    1
    45     9    43    1
    46    11    44    1
    47    11    45    1
    48    12    46    1
    49    16    47    1
    50    17    48    1
    51    20    49    1
    52    26    50    1
    53    26    51    1
    54    27    52    1
    55    27    53    1
    56    29    54    1
    57    29    55    1
    58    30    56    1
    59    30    57    1
    60    31    58    1
    61    31    59    1
    62    32    60    1
    63    32    61    1
