
     RDKit          3D

 49 52  0  0  0  0  0  0  0  0999 V2000
   -0.9571   -2.3132   -1.1969 C   0  0  0  0  0  0  0  0  0  0  0  0
   -2.1406   -1.8542   -0.4367 C   0  0  0  0  0  0  0  0  0  0  0  0
   -2.2195   -2.6431    0.8654 C   0  0  0  0  0  0  0  0  0  0  0  0
   -2.3560   -4.1224    0.6410 C   0  0  0  0  0  0  0  0  0  0  0  0
   -1.3060   -4.6972   -0.0559 O   0  0  0  0  0  0  0  0  0  0  0  0
   -2.1906   -0.4657   -0.0799 N   0  0  0  0  0  0  0  0  0  0  0  0
   -3.3299    0.0625    0.4421 C   0  0  0  0  0  0  0  0  0  0  0  0
   -3.1170    1.3517    0.6857 N   0  0  0  0  0  0  0  0  0  0  0  0
   -1.8676    1.6687    0.3333 C   0  0  0  0  0  0  0  0  0  0  0  0
   -1.3268    3.0073    0.4785 C   0  0  0  0  0  0  0  0  0  0  0  0
   -0.9354    3.4301    1.7245 C   0  0  0  0  0  0  0  0  0  0  0  0
   -0.4239    4.6990    1.8935 C   0  0  0  0  0  0  0  0  0  0  0  0
   -0.3130    5.5286    0.7996 C   0  0  0  0  0  0  0  0  0  0  0  0
    0.1961    6.7951    0.9588 F   0  0  0  0  0  0  0  0  0  0  0  0
   -0.6994    5.1246   -0.4586 C   0  0  0  0  0  0  0  0  0  0  0  0
   -1.2101    3.8452   -0.6005 C   0  0  0  0  0  0  0  0  0  0  0  0
   -1.2917    0.5219   -0.1469 C   0  0  0  0  0  0  0  0  0  0  0  0
    0.0796    0.4424   -0.6414 C   0  0  0  0  0  0  0  0  0  0  0  0
    0.3903    1.0917   -1.8152 C   0  0  0  0  0  0  0  0  0  0  0  0
    1.6631    1.0656   -2.3288 C   0  0  0  0  0  0  0  0  0  0  0  0
    2.6319    0.3686   -1.6373 C   0  0  0  0  0  0  0  0  0  0  0  0
    3.9550    0.1917   -1.9330 N   0  0  0  0  0  0  0  0  0  0  0  0
    4.4554   -0.5616   -0.9477 C   0  0  0  0  0  0  0  0  0  0  0  0
    3.4728   -0.8542   -0.0501 C   0  0  0  0  0  0  0  0  0  0  0  0
    3.6152   -1.6492    1.1585 C   0  0  0  0  0  0  0  0  0  0  0  0
    4.8779   -2.1980    1.4768 N   0  0  0  0  0  0  0  0  0  0  0  0
    2.6443   -1.8477    1.9061 O   0  0  0  0  0  0  0  0  0  0  0  0
    2.3175   -0.2619   -0.4916 N   0  0  0  0  0  0  0  0  0  0  0  0
    1.0738   -0.2329    0.0050 C   0  0  0  0  0  0  0  0  0  0  0  0
   -0.1522   -2.7586   -0.5653 H   0  0  0  0  0  0  0  0  0  0  0  0
   -1.2812   -3.2009   -1.8261 H   0  0  0  0  0  0  0  0  0  0  0  0
   -0.5689   -1.6015   -1.9527 H   0  0  0  0  0  0  0  0  0  0  0  0
   -3.0583   -2.1477   -1.0392 H   0  0  0  0  0  0  0  0  0  0  0  0
   -1.3330   -2.4553    1.5038 H   0  0  0  0  0  0  0  0  0  0  0  0
   -3.0975   -2.3240    1.4706 H   0  0  0  0  0  0  0  0  0  0  0  0
   -2.4697   -4.6651    1.5985 H   0  0  0  0  0  0  0  0  0  0  0  0
   -3.2792   -4.3633    0.0444 H   0  0  0  0  0  0  0  0  0  0  0  0
   -1.5545   -5.5131   -0.5203 H   0  0  0  0  0  0  0  0  0  0  0  0
   -4.2791   -0.4718    0.6378 H   0  0  0  0  0  0  0  0  0  0  0  0
   -1.0073    2.8037    2.6154 H   0  0  0  0  0  0  0  0  0  0  0  0
   -0.1161    5.0246    2.8916 H   0  0  0  0  0  0  0  0  0  0  0  0
   -0.6063    5.7885   -1.3115 H   0  0  0  0  0  0  0  0  0  0  0  0
   -1.5061    3.5685   -1.6073 H   0  0  0  0  0  0  0  0  0  0  0  0
   -0.3519    1.6474   -2.3880 H   0  0  0  0  0  0  0  0  0  0  0  0
    1.9141    1.5858   -3.2703 H   0  0  0  0  0  0  0  0  0  0  0  0
    5.5138   -0.8626   -0.9294 H   0  0  0  0  0  0  0  0  0  0  0  0
    5.3795   -2.7557    0.7722 H   0  0  0  0  0  0  0  0  0  0  0  0
    5.2919   -2.0410    2.4051 H   0  0  0  0  0  0  0  0  0  0  0  0
    0.8732   -0.7512    0.9224 H   0  0  0  0  0  0  0  0  0  0  0  0
  1  2  1  0
  2  3  1  0
  3  4  1  0
  4  5  1  0
  2  6  1  0
  6  7  1  0
  7  8  2  0
  8  9  1  0
  9 10  1  0
 10 11  2  0
 11 12  1  0
 12 13  2  0
 13 14  1  0
 13 15  1  0
 15 16  2  0
  9 17  2  0
 17 18  1  0
 18 19  1  0
 19 20  2  0
 20 21  1  0
 21 22  2  0
 22 23  1  0
 23 24  2  0
 24 25  1  0
 25 26  1  0
 25 27  2  0
 24 28  1  0
 28 29  1  0
 17  6  1  0
 29 18  2  0
 16 10  1  0
 28 21  1  0
  1 30  1  0
  1 31  1  0
  1 32  1  0
  2 33  1  0
  3 34  1  0
  3 35  1  0
  4 36  1  0
  4 37  1  0
  5 38  1  0
  7 39  1  0
 11 40  1  0
 12 41  1  0
 15 42  1  0
 16 43  1  0
 19 44  1  0
 20 45  1  0
 23 46  1  0
 26 47  1  0
 26 48  1  0
 29 49  1  0
M  END
$$$$
