@<TRIPOS>MOLECULE
*****
 49 52 0 0 0
SMALL
GASTEIGER

@<TRIPOS>ATOM
      1 C          -0.9571   -2.3132   -1.1969 C.3     1  UNL1       -0.0441
      2 C          -2.1406   -1.8542   -0.4367 C.3     1  UNL1        0.0352
      3 C          -2.2195   -2.6431    0.8654 C.3     1  UNL1       -0.0090
      4 C          -2.3560   -4.1224    0.6410 C.3     1  UNL1        0.0461
      5 O          -1.3060   -4.6972   -0.0559 O.3     1  UNL1       -0.3949
      6 N          -2.1906   -0.4657   -0.0799 N.ar    1  UNL1       -0.3267
      7 C          -3.3299    0.0625    0.4421 C.ar    1  UNL1        0.0973
      8 N          -3.1170    1.3517    0.6857 N.ar    1  UNL1       -0.2351
      9 C          -1.8676    1.6687    0.3333 C.ar    1  UNL1        0.0967
     10 C          -1.3268    3.0073    0.4785 C.ar    1  UNL1        0.0026
     11 C          -0.9354    3.4301    1.7245 C.ar    1  UNL1       -0.0498
     12 C          -0.4239    4.6990    1.8935 C.ar    1  UNL1       -0.0258
     13 C          -0.3130    5.5286    0.7996 C.ar    1  UNL1        0.1234
     14 F           0.1961    6.7951    0.9588 F       1  UNL1       -0.2055
     15 C          -0.6994    5.1246   -0.4586 C.ar    1  UNL1       -0.0258
     16 C          -1.2101    3.8452   -0.6005 C.ar    1  UNL1       -0.0498
     17 C          -1.2917    0.5219   -0.1469 C.ar    1  UNL1        0.0781
     18 C           0.0796    0.4424   -0.6414 C.ar    1  UNL1        0.0173
     19 C           0.3903    1.0917   -1.8152 C.ar    1  UNL1       -0.0477
     20 C           1.6631    1.0656   -2.3288 C.ar    1  UNL1       -0.0182
     21 C           2.6319    0.3686   -1.6373 C.ar    1  UNL1        0.1381
     22 N           3.9550    0.1917   -1.9330 N.ar    1  UNL1       -0.2353
     23 C           4.4554   -0.5616   -0.9477 C.ar    1  UNL1        0.0588
     24 C           3.4728   -0.8542   -0.0501 C.ar    1  UNL1        0.1280
     25 C           3.6152   -1.6492    1.1585 C.2     1  UNL1        0.2599
     26 N           4.8779   -2.1980    1.4768 N.am    1  UNL1       -0.3241
     27 O           2.6443   -1.8477    1.9061 O.2     1  UNL1       -0.2687
     28 N           2.3175   -0.2619   -0.4916 N.ar    1  UNL1       -0.2949
     29 C           1.0738   -0.2329    0.0050 C.ar    1  UNL1        0.0211
     30 H          -0.1522   -2.7586   -0.5653 H       1  UNL1        0.0250
     31 H          -1.2812   -3.2009   -1.8261 H       1  UNL1        0.0250
     32 H          -0.5689   -1.6015   -1.9527 H       1  UNL1        0.0250
     33 H          -3.0583   -2.1477   -1.0392 H       1  UNL1        0.0526
     34 H          -1.3330   -2.4553    1.5038 H       1  UNL1        0.0307
     35 H          -3.0975   -2.3240    1.4706 H       1  UNL1        0.0307
     36 H          -2.4697   -4.6651    1.5985 H       1  UNL1        0.0558
     37 H          -3.2792   -4.3633    0.0444 H       1  UNL1        0.0558
     38 H          -1.5545   -5.5131   -0.5203 H       1  UNL1        0.2094
     39 H          -4.2791   -0.4718    0.6378 H       1  UNL1        0.1029
     40 H          -1.0073    2.8037    2.6154 H       1  UNL1        0.0625
     41 H          -0.1161    5.0246    2.8916 H       1  UNL1        0.0646
     42 H          -0.6063    5.7885   -1.3115 H       1  UNL1        0.0646
     43 H          -1.5061    3.5685   -1.6073 H       1  UNL1        0.0625
     44 H          -0.3519    1.6474   -2.3880 H       1  UNL1        0.0626
     45 H           1.9141    1.5858   -3.2703 H       1  UNL1        0.0654
     46 H           5.5138   -0.8626   -0.9294 H       1  UNL1        0.0853
     47 H           5.3795   -2.7557    0.7722 H       1  UNL1        0.1453
     48 H           5.2919   -2.0410    2.4051 H       1  UNL1        0.1453
     49 H           0.8732   -0.7512    0.9224 H       1  UNL1        0.0820
@<TRIPOS>BOND
     1     1     2    1
     2     2     3    1
     3     3     4    1
     4     4     5    1
     5     2     6    1
     6     6     7   ar
     7     7     8   ar
     8     8     9   ar
     9     9    10    1
    10    10    11   ar
    11    11    12   ar
    12    12    13   ar
    13    13    14    1
    14    13    15   ar
    15    15    16   ar
    16     9    17   ar
    17    17    18    1
    18    18    19   ar
    19    19    20   ar
    20    20    21   ar
    21    21    22   ar
    22    22    23   ar
    23    23    24   ar
    24    24    25    1
    25    25    26   am
    26    25    27    2
    27    24    28   ar
    28    28    29   ar
    29    17     6   ar
    30    29    18   ar
    31    16    10   ar
    32    28    21   ar
    33     1    30    1
    34     1    31    1
    35     1    32    1
    36     2    33    1
    37     3    34    1
    38     3    35    1
    39     4    36    1
    40     4    37    1
    41     5    38    1
    42     7    39    1
    43    11    40    1
    44    12    41    1
    45    15    42    1
    46    16    43    1
    47    19    44    1
    48    20    45    1
    49    23    46    1
    50    26    47    1
    51    26    48    1
    52    29    49    1
