
     RDKit          3D

 42 44  0  0  0  0  0  0  0  0999 V2000
   -0.9738   -3.2350    0.3903 O   0  0  0  0  0  0  0  0  0  0  0  0
   -1.8908   -2.4747    0.0118 C   0  0  0  0  0  0  0  0  0  0  0  0
   -3.2314   -2.8726    0.2370 N   0  0  0  0  0  0  0  0  0  0  0  0
   -3.5136   -4.0615    0.8552 O   0  0  0  0  0  0  0  0  0  0  0  0
   -1.6004   -1.2239   -0.6382 C   0  0  0  0  0  0  0  0  0  0  0  0
   -2.2817   -0.0309   -0.0384 C   0  0  0  0  0  0  0  0  0  0  0  0
   -2.9837   -0.0658    1.1424 C   0  0  0  0  0  0  0  0  0  0  0  0
   -3.5434    1.1267    1.5628 C   0  0  0  0  0  0  0  0  0  0  0  0
   -3.3816    2.2847    0.7996 C   0  0  0  0  0  0  0  0  0  0  0  0
   -3.9631    3.4340    1.2749 O   0  0  0  0  0  0  0  0  0  0  0  0
   -2.6714    2.2890   -0.3819 C   0  0  0  0  0  0  0  0  0  0  0  0
   -2.1128    1.1160   -0.8092 C   0  0  0  0  0  0  0  0  0  0  0  0
   -1.3294    0.9543   -2.0580 C   0  0  0  0  0  0  0  0  0  0  0  0
   -0.0578    0.2167   -1.7156 C   0  0  0  0  0  0  0  0  0  0  0  0
   -0.2070   -0.8833   -0.8131 N   0  0  0  0  0  0  0  0  0  0  0  0
    0.5426   -0.4581    0.6839 S   0  0  0  0  0  6  0  0  0  0  0  0
   -0.0259    0.8631    1.1938 O   0  0  0  0  0  0  0  0  0  0  0  0
    0.3918   -1.4779    1.7443 O   0  0  0  0  0  0  0  0  0  0  0  0
    2.2428   -0.1712    0.4323 C   0  0  0  0  0  0  0  0  0  0  0  0
    3.1683   -1.2125    0.4218 C   0  0  0  0  0  0  0  0  0  0  0  0
    4.5215   -1.0295    0.2354 C   0  0  0  0  0  0  0  0  0  0  0  0
    5.0028    0.2401    0.0482 C   0  0  0  0  0  0  0  0  0  0  0  0
    6.4051    0.4893   -0.1510 N   0  0  0  0  0  4  0  0  0  0  0  0
    6.8253    1.6497   -0.3196 O   0  0  0  0  0  0  0  0  0  0  0  0
    7.2567   -0.5696   -0.1507 O   0  0  0  0  0  1  0  0  0  0  0  0
    4.1137    1.3028    0.0522 C   0  0  0  0  0  0  0  0  0  0  0  0
    2.7547    1.0928    0.2421 C   0  0  0  0  0  0  0  0  0  0  0  0
   -4.0714   -2.3155   -0.0397 H   0  0  0  0  0  0  0  0  0  0  0  0
   -2.7397   -4.6601    0.6156 H   0  0  0  0  0  0  0  0  0  0  0  0
   -2.0224   -1.2860   -1.6869 H   0  0  0  0  0  0  0  0  0  0  0  0
   -3.0720   -0.9978    1.6899 H   0  0  0  0  0  0  0  0  0  0  0  0
   -4.0958    1.1097    2.4874 H   0  0  0  0  0  0  0  0  0  0  0  0
   -3.6635    4.3209    0.9079 H   0  0  0  0  0  0  0  0  0  0  0  0
   -2.5362    3.1754   -0.9849 H   0  0  0  0  0  0  0  0  0  0  0  0
   -1.9168    0.3892   -2.8121 H   0  0  0  0  0  0  0  0  0  0  0  0
   -1.0250    1.9395   -2.4791 H   0  0  0  0  0  0  0  0  0  0  0  0
    0.6423    0.9596   -1.3028 H   0  0  0  0  0  0  0  0  0  0  0  0
    0.4055   -0.1164   -2.6979 H   0  0  0  0  0  0  0  0  0  0  0  0
    2.8024   -2.2194    0.5683 H   0  0  0  0  0  0  0  0  0  0  0  0
    5.2230   -1.8635    0.2320 H   0  0  0  0  0  0  0  0  0  0  0  0
    4.4895    2.3033   -0.0949 H   0  0  0  0  0  0  0  0  0  0  0  0
    2.1225    1.9682    0.2388 H   0  0  0  0  0  0  0  0  0  0  0  0
  1  2  2  0
  2  3  1  0
  3  4  1  0
  2  5  1  0
  5  6  1  0
  6  7  2  0
  7  8  1  0
  8  9  2  0
  9 10  1  0
  9 11  1  0
 11 12  2  0
 12 13  1  0
 13 14  1  0
 14 15  1  0
 15 16  1  0
 16 17  2  0
 16 18  2  0
 16 19  1  0
 19 20  2  0
 20 21  1  0
 21 22  2  0
 22 23  1  0
 23 24  2  0
 23 25  1  0
 22 26  1  0
 26 27  2  0
 15  5  1  0
 27 19  1  0
 12  6  1  0
  3 28  1  0
  4 29  1  0
  5 30  1  0
  7 31  1  0
  8 32  1  0
 10 33  1  0
 11 34  1  0
 13 35  1  0
 13 36  1  0
 14 37  1  0
 14 38  1  0
 20 39  1  0
 21 40  1  0
 26 41  1  0
 27 42  1  0
M  CHG  2  23   1  25  -1
M  END
$$$$
