@<TRIPOS>MOLECULE
*****
 42 44 0 0 0
SMALL
GASTEIGER

@<TRIPOS>ATOM
      1 O          -0.9738   -3.2350    0.3903 O.2     1  UNL1       -0.2716
      2 C          -1.8908   -2.4747    0.0118 C.2     1  UNL1        0.2588
      3 N          -3.2314   -2.8726    0.2370 N.am    1  UNL1       -0.1959
      4 O          -3.5136   -4.0615    0.8552 O.3     1  UNL1       -0.2951
      5 C          -1.6004   -1.2239   -0.6382 C.3     1  UNL1        0.1349
      6 C          -2.2817   -0.0309   -0.0384 C.ar    1  UNL1       -0.0164
      7 C          -2.9837   -0.0658    1.1424 C.ar    1  UNL1       -0.0529
      8 C          -3.5434    1.1267    1.5628 C.ar    1  UNL1       -0.0198
      9 C          -3.3816    2.2847    0.7996 C.ar    1  UNL1        0.1171
     10 O          -3.9631    3.4340    1.2749 O.3     1  UNL1       -0.5068
     11 C          -2.6714    2.2890   -0.3819 C.ar    1  UNL1       -0.0166
     12 C          -2.1128    1.1160   -0.8092 C.ar    1  UNL1       -0.0375
     13 C          -1.3294    0.9543   -2.0580 C.3     1  UNL1       -0.0127
     14 C          -0.0578    0.2167   -1.7156 C.3     1  UNL1        0.0257
     15 N          -0.2070   -0.8833   -0.8131 N.3     1  UNL1       -0.1599
     16 S           0.5426   -0.4581    0.6839 S.O2    1  UNL1        0.0618
     17 O          -0.0259    0.8631    1.1938 O.2     1  UNL1       -0.1528
     18 O           0.3918   -1.4779    1.7443 O.2     1  UNL1       -0.1528
     19 C           2.2428   -0.1712    0.4323 C.ar    1  UNL1        0.1059
     20 C           3.1683   -1.2125    0.4218 C.ar    1  UNL1       -0.0289
     21 C           4.5215   -1.0295    0.2354 C.ar    1  UNL1        0.0174
     22 C           5.0028    0.2401    0.0482 C.ar    1  UNL1        0.2733
     23 N           6.4051    0.4893   -0.1510 N.pl3   1  UNL1        0.0796
     24 O           6.8253    1.6497   -0.3196 O.2     1  UNL1        0.0414
     25 O           7.2567   -0.5696   -0.1507 O.co2   1  UNL1       -0.5760
     26 C           4.1137    1.3028    0.0522 C.ar    1  UNL1        0.0174
     27 C           2.7547    1.0928    0.2421 C.ar    1  UNL1       -0.0289
     28 H          -4.0714   -2.3155   -0.0397 H       1  UNL1        0.1823
     29 H          -2.7397   -4.6601    0.6156 H       1  UNL1        0.2414
     30 H          -2.0224   -1.2860   -1.6869 H       1  UNL1        0.0626
     31 H          -3.0720   -0.9978    1.6899 H       1  UNL1        0.0622
     32 H          -4.0958    1.1097    2.4874 H       1  UNL1        0.0654
     33 H          -3.6635    4.3209    0.9079 H       1  UNL1        0.2921
     34 H          -2.5362    3.1754   -0.9849 H       1  UNL1        0.0657
     35 H          -1.9168    0.3892   -2.8121 H       1  UNL1        0.0326
     36 H          -1.0250    1.9395   -2.4791 H       1  UNL1        0.0326
     37 H           0.6423    0.9596   -1.3028 H       1  UNL1        0.0447
     38 H           0.4055   -0.1164   -2.6979 H       1  UNL1        0.0447
     39 H           2.8024   -2.2194    0.5683 H       1  UNL1        0.0639
     40 H           5.2230   -1.8635    0.2320 H       1  UNL1        0.0686
     41 H           4.4895    2.3033   -0.0949 H       1  UNL1        0.0686
     42 H           2.1225    1.9682    0.2388 H       1  UNL1        0.0639
@<TRIPOS>UNITY_ATOM_ATTR
23 1
charge 1
25 1
charge -1
@<TRIPOS>BOND
     1     1     2    2
     2     2     3   am
     3     3     4    1
     4     2     5    1
     5     5     6    1
     6     6     7   ar
     7     7     8   ar
     8     8     9   ar
     9     9    10    1
    10     9    11   ar
    11    11    12   ar
    12    12    13    1
    13    13    14    1
    14    14    15    1
    15    15    16    1
    16    16    17    2
    17    16    18    2
    18    16    19    1
    19    19    20   ar
    20    20    21   ar
    21    21    22   ar
    22    22    23    1
    23    23    24    2
    24    23    25    1
    25    22    26   ar
    26    26    27   ar
    27    15     5    1
    28    27    19   ar
    29    12     6   ar
    30     3    28    1
    31     4    29    1
    32     5    30    1
    33     7    31    1
    34     8    32    1
    35    10    33    1
    36    11    34    1
    37    13    35    1
    38    13    36    1
    39    14    37    1
    40    14    38    1
    41    20    39    1
    42    21    40    1
    43    26    41    1
    44    27    42    1
