@<TRIPOS>MOLECULE
*****
 48 49 0 0 0
SMALL
GASTEIGER

@<TRIPOS>ATOM
      1 O           1.0775    0.8857   -0.6956 O.2     1  UNL1       -0.2755
      2 C           0.5720    1.8002    0.1127 C.2     1  UNL1        0.2178
      3 N           1.3862    1.8822    1.2332 N.am    1  UNL1       -0.3021
      4 CA          2.4636    0.8094    1.2684 C.3     1  UNL1        0.1202
      5 C           3.4334    1.0300    0.2148 C.2     1  UNL1        0.3253
      6 O           4.3822    0.2340    0.0472 O.2     1  UNL1       -0.2489
      7 OXT         3.3392    2.1189   -0.6275 O.3     1  UNL1       -0.4793
      8 C           1.7111   -0.5166    1.2167 C.3     1  UNL1       -0.0241
      9 C           2.4285   -1.6483    0.6044 C.3     1  UNL1       -0.0509
     10 C           1.3971   -2.7941    0.3662 C.3     1  UNL1       -0.0530
     11 C           0.3431   -2.1599   -0.4579 C.3     1  UNL1       -0.0528
     12 C          -0.7559   -2.9651   -1.0537 C.3     1  UNL1       -0.0491
     13 C          -1.7276   -1.8522   -1.6043 C.3     1  UNL1       -0.0274
     14 C          -2.1851   -1.0443   -0.4251 C.ar    1  UNL1       -0.0442
     15 C          -2.8193   -1.8289    0.5612 C.ar    1  UNL1       -0.0583
     16 C          -3.3033   -1.2904    1.7247 C.ar    1  UNL1       -0.0615
     17 C          -3.1539    0.0583    1.9110 C.ar    1  UNL1       -0.0615
     18 C          -2.5361    0.8154    0.9447 C.ar    1  UNL1       -0.0583
     19 C          -2.0313    0.2834   -0.2580 C.ar    1  UNL1       -0.0434
     20 C          -1.4509    1.2860   -1.1677 C.3     1  UNL1       -0.0156
     21 C          -0.6353    2.3831   -0.4659 C.3     1  UNL1        0.0482
     22 C          -0.2460    3.3133   -1.6622 C.3     1  UNL1        0.0021
     23 S           0.8263    4.6299   -1.0977 S.3     1  UNL1       -0.1775
     24 H           1.4455    2.4693    2.0077 H       1  UNL1        0.1495
     25 HA          2.9735    0.8291    2.2474 H       1  UNL1        0.0614
     26 HXT         3.8005    2.0423   -1.5471 H       1  UNL1        0.2951
     27 H           0.6769   -0.3189    1.0281 H       1  UNL1        0.0288
     28 H           1.6383   -0.8752    2.3516 H       1  UNL1        0.0288
     29 H           2.8416   -1.4465   -0.4196 H       1  UNL1        0.0266
     30 H           3.1984   -2.1148    1.2430 H       1  UNL1        0.0266
     31 H           1.8870   -3.6055   -0.1758 H       1  UNL1        0.0265
     32 H           1.0572   -3.0878    1.3877 H       1  UNL1        0.0265
     33 H           0.9013   -1.6785   -1.3263 H       1  UNL1        0.0265
     34 H          -0.2030   -1.3474    0.1012 H       1  UNL1        0.0265
     35 H          -0.3915   -3.5336   -1.9203 H       1  UNL1        0.0268
     36 H          -1.2874   -3.5669   -0.3171 H       1  UNL1        0.0268
     37 H          -2.5440   -2.3383   -2.1103 H       1  UNL1        0.0313
     38 H          -1.1271   -1.2273   -2.2643 H       1  UNL1        0.0313
     39 H          -2.9511   -2.8958    0.4072 H       1  UNL1        0.0620
     40 H          -3.7815   -1.9423    2.4481 H       1  UNL1        0.0618
     41 H          -3.5355    0.5024    2.8366 H       1  UNL1        0.0618
     42 H          -2.4733    1.8717    1.1802 H       1  UNL1        0.0620
     43 H          -2.2987    1.7401   -1.7333 H       1  UNL1        0.0321
     44 H          -0.8116    0.8056   -1.9657 H       1  UNL1        0.0321
     45 H          -1.2999    2.9462    0.1830 H       1  UNL1        0.0405
     46 H           0.3380    2.6443   -2.3275 H       1  UNL1        0.0381
     47 H          -1.1358    3.6326   -2.2001 H       1  UNL1        0.0381
     48 H           0.5667    5.0654    0.1960 H       1  UNL1        0.1017
@<TRIPOS>BOND
     1     1     2    2
     2     2     3   am
     3     3     4    1
     4     4     5    1
     5     5     6    2
     6     5     7    1
     7     4     8    1
     8     8     9    1
     9     9    10    1
    10    10    11    1
    11    11    12    1
    12    12    13    1
    13    13    14    1
    14    14    15   ar
    15    15    16   ar
    16    16    17   ar
    17    17    18   ar
    18    18    19   ar
    19    19    20    1
    20    20    21    1
    21    21    22    1
    22    22    23    1
    23    21     2    1
    24    19    14   ar
    25     3    24    1
    26     4    25    1
    27     7    26    1
    28     8    27    1
    29     8    28    1
    30     9    29    1
    31     9    30    1
    32    10    31    1
    33    10    32    1
    34    11    33    1
    35    11    34    1
    36    12    35    1
    37    12    36    1
    38    13    37    1
    39    13    38    1
    40    15    39    1
    41    16    40    1
    42    17    41    1
    43    18    42    1
    44    20    43    1
    45    20    44    1
    46    21    45    1
    47    22    46    1
    48    22    47    1
    49    23    48    1
