
     RDKit          3D

 48 49  0  0  0  0  0  0  0  0999 V2000
    1.0775    0.8857   -0.6956 O   0  0  0  0  0  0  0  0  0  0  0  0
    0.5720    1.8002    0.1127 C   0  0  0  0  0  0  0  0  0  0  0  0
    1.3862    1.8822    1.2332 N   0  0  0  0  0  0  0  0  0  0  0  0
    2.4636    0.8094    1.2684 C   0  0  2  0  0  0  0  0  0  0  0  0
    3.4334    1.0300    0.2148 C   0  0  0  0  0  0  0  0  0  0  0  0
    4.3822    0.2340    0.0472 O   0  0  0  0  0  0  0  0  0  0  0  0
    3.3392    2.1189   -0.6275 O   0  0  0  0  0  0  0  0  0  0  0  0
    1.7111   -0.5166    1.2167 C   0  0  0  0  0  0  0  0  0  0  0  0
    2.4285   -1.6483    0.6044 C   0  0  0  0  0  0  0  0  0  0  0  0
    1.3971   -2.7941    0.3662 C   0  0  0  0  0  0  0  0  0  0  0  0
    0.3431   -2.1599   -0.4579 C   0  0  0  0  0  0  0  0  0  0  0  0
   -0.7559   -2.9651   -1.0537 C   0  0  0  0  0  0  0  0  0  0  0  0
   -1.7276   -1.8522   -1.6043 C   0  0  0  0  0  0  0  0  0  0  0  0
   -2.1851   -1.0443   -0.4251 C   0  0  0  0  0  0  0  0  0  0  0  0
   -2.8193   -1.8289    0.5612 C   0  0  0  0  0  0  0  0  0  0  0  0
   -3.3033   -1.2904    1.7247 C   0  0  0  0  0  0  0  0  0  0  0  0
   -3.1539    0.0583    1.9110 C   0  0  0  0  0  0  0  0  0  0  0  0
   -2.5361    0.8154    0.9447 C   0  0  0  0  0  0  0  0  0  0  0  0
   -2.0313    0.2834   -0.2580 C   0  0  0  0  0  0  0  0  0  0  0  0
   -1.4509    1.2860   -1.1677 C   0  0  0  0  0  0  0  0  0  0  0  0
   -0.6353    2.3831   -0.4659 C   0  0  2  0  0  0  0  0  0  0  0  0
   -0.2460    3.3133   -1.6622 C   0  0  0  0  0  0  0  0  0  0  0  0
    0.8263    4.6299   -1.0977 S   0  0  0  0  0  0  0  0  0  0  0  0
    1.4455    2.4693    2.0077 H   0  0  0  0  0  0  0  0  0  0  0  0
    2.9735    0.8291    2.2474 H   0  0  0  0  0  0  0  0  0  0  0  0
    3.8005    2.0423   -1.5471 H   0  0  0  0  0  0  0  0  0  0  0  0
    0.6769   -0.3189    1.0281 H   0  0  0  0  0  0  0  0  0  0  0  0
    1.6383   -0.8752    2.3516 H   0  0  0  0  0  0  0  0  0  0  0  0
    2.8416   -1.4465   -0.4196 H   0  0  0  0  0  0  0  0  0  0  0  0
    3.1984   -2.1148    1.2430 H   0  0  0  0  0  0  0  0  0  0  0  0
    1.8870   -3.6055   -0.1758 H   0  0  0  0  0  0  0  0  0  0  0  0
    1.0572   -3.0878    1.3877 H   0  0  0  0  0  0  0  0  0  0  0  0
    0.9013   -1.6785   -1.3263 H   0  0  0  0  0  0  0  0  0  0  0  0
   -0.2030   -1.3474    0.1012 H   0  0  0  0  0  0  0  0  0  0  0  0
   -0.3915   -3.5336   -1.9203 H   0  0  0  0  0  0  0  0  0  0  0  0
   -1.2874   -3.5669   -0.3171 H   0  0  0  0  0  0  0  0  0  0  0  0
   -2.5440   -2.3383   -2.1103 H   0  0  0  0  0  0  0  0  0  0  0  0
   -1.1271   -1.2273   -2.2643 H   0  0  0  0  0  0  0  0  0  0  0  0
   -2.9511   -2.8958    0.4072 H   0  0  0  0  0  0  0  0  0  0  0  0
   -3.7815   -1.9423    2.4481 H   0  0  0  0  0  0  0  0  0  0  0  0
   -3.5355    0.5024    2.8366 H   0  0  0  0  0  0  0  0  0  0  0  0
   -2.4733    1.8717    1.1802 H   0  0  0  0  0  0  0  0  0  0  0  0
   -2.2987    1.7401   -1.7333 H   0  0  0  0  0  0  0  0  0  0  0  0
   -0.8116    0.8056   -1.9657 H   0  0  0  0  0  0  0  0  0  0  0  0
   -1.2999    2.9462    0.1830 H   0  0  0  0  0  0  0  0  0  0  0  0
    0.3380    2.6443   -2.3275 H   0  0  0  0  0  0  0  0  0  0  0  0
   -1.1358    3.6326   -2.2001 H   0  0  0  0  0  0  0  0  0  0  0  0
    0.5667    5.0654    0.1960 H   0  0  0  0  0  0  0  0  0  0  0  0
  1  2  2  0
  2  3  1  0
  3  4  1  0
  4  5  1  0
  5  6  2  0
  5  7  1  0
  4  8  1  0
  8  9  1  0
  9 10  1  0
 10 11  1  0
 11 12  1  0
 12 13  1  0
 13 14  1  0
 14 15  2  0
 15 16  1  0
 16 17  2  0
 17 18  1  0
 18 19  2  0
 19 20  1  0
 20 21  1  0
 21 22  1  0
 22 23  1  0
 21  2  1  0
 19 14  1  0
  3 24  1  0
  4 25  1  1
  7 26  1  0
  8 27  1  0
  8 28  1  0
  9 29  1  0
  9 30  1  0
 10 31  1  0
 10 32  1  0
 11 33  1  0
 11 34  1  0
 12 35  1  0
 12 36  1  0
 13 37  1  0
 13 38  1  0
 15 39  1  0
 16 40  1  0
 17 41  1  0
 18 42  1  0
 20 43  1  0
 20 44  1  0
 21 45  1  1
 22 46  1  0
 22 47  1  0
 23 48  1  0
M  END
$$$$
