
     RDKit          3D

 39 41  0  0  0  0  0  0  0  0999 V2000
   -1.3097    3.3986    0.2755 O   0  0  0  0  0  0  0  0  0  0  0  0
   -2.4931    3.0365    0.1413 C   0  0  0  0  0  0  0  0  0  0  0  0
   -3.5011    3.9741    0.1563 O   0  0  0  0  0  0  0  0  0  0  0  0
   -2.8223    1.6121   -0.0334 C   0  0  0  0  0  0  0  0  0  0  0  0
   -1.6622    0.8129   -0.0195 O   0  0  0  0  0  0  0  0  0  0  0  0
   -1.6611   -0.5551   -0.1623 C   0  0  0  0  0  0  0  0  0  0  0  0
   -2.8434   -1.2230   -0.3316 C   0  0  0  0  0  0  0  0  0  0  0  0
   -2.7897   -2.5886   -0.4698 C   0  0  0  0  0  0  0  0  0  0  0  0
   -1.5981   -3.2748   -0.4414 C   0  0  0  0  0  0  0  0  0  0  0  0
   -1.5367   -5.0226   -0.6190 Cl  0  0  0  0  0  0  0  0  0  0  0  0
   -0.4002   -2.5516   -0.2651 C   0  0  0  0  0  0  0  0  0  0  0  0
   -0.4046   -1.1872   -0.1228 C   0  0  0  0  0  0  0  0  0  0  0  0
    0.8189   -0.4281    0.0605 C   0  0  0  0  0  0  0  0  0  0  0  0
    0.9931    0.5415   -1.0989 C   0  0  0  0  0  0  0  0  0  0  0  0
    2.4087    1.0740   -1.0354 C   0  0  0  0  0  0  0  0  0  0  0  0
    2.7808    1.6566    0.2846 C   0  0  0  0  0  0  0  0  0  0  0  0
    2.2550    0.9584    1.4886 C   0  0  0  0  0  0  0  0  0  0  0  0
    0.8299    0.4247    1.3095 C   0  0  0  0  0  0  0  0  0  0  0  0
    2.0022   -1.2442    0.0730 N   0  0  0  0  0  0  0  0  0  0  0  0
    2.0179   -2.6564   -0.0732 C   0  0  0  0  0  0  0  0  0  0  0  0
    3.1197   -3.2505   -0.0429 O   0  0  0  0  0  0  0  0  0  0  0  0
    0.7814   -3.3476   -0.2492 N   0  0  0  0  0  0  0  0  0  0  0  0
   -3.3986    4.9146    0.5145 H   0  0  0  0  0  0  0  0  0  0  0  0
   -3.3843    1.5143   -0.9826 H   0  0  0  0  0  0  0  0  0  0  0  0
   -3.4815    1.2421    0.7798 H   0  0  0  0  0  0  0  0  0  0  0  0
   -3.8023   -0.6902   -0.3565 H   0  0  0  0  0  0  0  0  0  0  0  0
   -3.7185   -3.1376   -0.6053 H   0  0  0  0  0  0  0  0  0  0  0  0
    0.8705    0.0489   -2.0802 H   0  0  0  0  0  0  0  0  0  0  0  0
    0.3277    1.4133   -1.0230 H   0  0  0  0  0  0  0  0  0  0  0  0
    2.4266    1.9168   -1.7912 H   0  0  0  0  0  0  0  0  0  0  0  0
    3.1588    0.3555   -1.4519 H   0  0  0  0  0  0  0  0  0  0  0  0
    3.9013    1.6407    0.3587 H   0  0  0  0  0  0  0  0  0  0  0  0
    2.4635    2.7342    0.2984 H   0  0  0  0  0  0  0  0  0  0  0  0
    2.1459    1.7481    2.2944 H   0  0  0  0  0  0  0  0  0  0  0  0
    2.9279    0.2142    1.9481 H   0  0  0  0  0  0  0  0  0  0  0  0
    0.6252   -0.2120    2.1816 H   0  0  0  0  0  0  0  0  0  0  0  0
    0.2015    1.3238    1.2486 H   0  0  0  0  0  0  0  0  0  0  0  0
    2.9609   -0.8003    0.1986 H   0  0  0  0  0  0  0  0  0  0  0  0
    0.7899   -4.3861   -0.3570 H   0  0  0  0  0  0  0  0  0  0  0  0
  1  2  2  0
  2  3  1  0
  2  4  1  0
  4  5  1  0
  5  6  1  0
  6  7  2  0
  7  8  1  0
  8  9  2  0
  9 10  1  0
  9 11  1  0
 11 12  2  0
 12 13  1  0
 13 14  1  0
 14 15  1  0
 15 16  1  0
 16 17  1  0
 17 18  1  0
 13 19  1  0
 19 20  1  0
 20 21  2  0
 20 22  1  0
 12  6  1  0
 18 13  1  0
 22 11  1  0
  3 23  1  0
  4 24  1  0
  4 25  1  0
  7 26  1  0
  8 27  1  0
 14 28  1  0
 14 29  1  0
 15 30  1  0
 15 31  1  0
 16 32  1  0
 16 33  1  0
 17 34  1  0
 17 35  1  0
 18 36  1  0
 18 37  1  0
 19 38  1  0
 22 39  1  0
M  END
$$$$
