@<TRIPOS>MOLECULE
*****
 39 41 0 0 0
SMALL
GASTEIGER

@<TRIPOS>ATOM
      1 O          -1.3097    3.3986    0.2755 O.2     1  UNL1       -0.2472
      2 C          -2.4931    3.0365    0.1413 C.2     1  UNL1        0.3427
      3 O          -3.5011    3.9741    0.1563 O.3     1  UNL1       -0.4783
      4 C          -2.8223    1.6121   -0.0334 C.3     1  UNL1        0.1857
      5 O          -1.6622    0.8129   -0.0195 O.3     1  UNL1       -0.4804
      6 C          -1.6611   -0.5551   -0.1623 C.ar    1  UNL1        0.1284
      7 C          -2.8434   -1.2230   -0.3316 C.ar    1  UNL1       -0.0181
      8 C          -2.7897   -2.5886   -0.4698 C.ar    1  UNL1       -0.0381
      9 C          -1.5981   -3.2748   -0.4414 C.ar    1  UNL1        0.0627
     10 CL         -1.5367   -5.0226   -0.6190 Cl      1  UNL1       -0.0816
     11 C          -0.4002   -2.5516   -0.2651 C.ar    1  UNL1        0.0619
     12 C          -0.4046   -1.1872   -0.1228 C.ar    1  UNL1        0.0401
     13 C           0.8189   -0.4281    0.0605 C.3     1  UNL1        0.0664
     14 C           0.9931    0.5415   -1.0989 C.3     1  UNL1       -0.0272
     15 C           2.4087    1.0740   -1.0354 C.3     1  UNL1       -0.0508
     16 C           2.7808    1.6566    0.2846 C.3     1  UNL1       -0.0529
     17 C           2.2550    0.9584    1.4886 C.3     1  UNL1       -0.0508
     18 C           0.8299    0.4247    1.3095 C.3     1  UNL1       -0.0272
     19 N           2.0022   -1.2442    0.0730 N.am    1  UNL1       -0.2894
     20 C           2.0179   -2.6564   -0.0732 C.2     1  UNL1        0.3046
     21 O           3.1197   -3.2505   -0.0429 O.2     1  UNL1       -0.2525
     22 N           0.7814   -3.3476   -0.2492 N.am    1  UNL1       -0.2677
     23 H          -3.3986    4.9146    0.5145 H       1  UNL1        0.2952
     24 H          -3.3843    1.5143   -0.9826 H       1  UNL1        0.0815
     25 H          -3.4815    1.2421    0.7798 H       1  UNL1        0.0815
     26 H          -3.8023   -0.6902   -0.3565 H       1  UNL1        0.0655
     27 H          -3.7185   -3.1376   -0.6053 H       1  UNL1        0.0634
     28 H           0.8705    0.0489   -2.0802 H       1  UNL1        0.0289
     29 H           0.3277    1.4133   -1.0230 H       1  UNL1        0.0289
     30 H           2.4266    1.9168   -1.7912 H       1  UNL1        0.0266
     31 H           3.1588    0.3555   -1.4519 H       1  UNL1        0.0266
     32 H           3.9013    1.6407    0.3587 H       1  UNL1        0.0265
     33 H           2.4635    2.7342    0.2984 H       1  UNL1        0.0265
     34 H           2.1459    1.7481    2.2944 H       1  UNL1        0.0266
     35 H           2.9279    0.2142    1.9481 H       1  UNL1        0.0266
     36 H           0.6252   -0.2120    2.1816 H       1  UNL1        0.0289
     37 H           0.2015    1.3238    1.2486 H       1  UNL1        0.0289
     38 H           2.9609   -0.8003    0.1986 H       1  UNL1        0.1511
     39 H           0.7899   -4.3861   -0.3570 H       1  UNL1        0.1564
@<TRIPOS>BOND
     1     1     2    2
     2     2     3    1
     3     2     4    1
     4     4     5    1
     5     5     6    1
     6     6     7   ar
     7     7     8   ar
     8     8     9   ar
     9     9    10    1
    10     9    11   ar
    11    11    12   ar
    12    12    13    1
    13    13    14    1
    14    14    15    1
    15    15    16    1
    16    16    17    1
    17    17    18    1
    18    13    19    1
    19    19    20   am
    20    20    21    2
    21    20    22   am
    22    12     6   ar
    23    18    13    1
    24    22    11    1
    25     3    23    1
    26     4    24    1
    27     4    25    1
    28     7    26    1
    29     8    27    1
    30    14    28    1
    31    14    29    1
    32    15    30    1
    33    15    31    1
    34    16    32    1
    35    16    33    1
    36    17    34    1
    37    17    35    1
    38    18    36    1
    39    18    37    1
    40    19    38    1
    41    22    39    1
