
     RDKit          3D

 31 33  0  0  0  0  0  0  0  0999 V2000
    0.7790    0.9163   -0.7217 C   0  0  0  0  0  0  0  0  0  0  0  0
    0.1199   -0.1795    0.1139 C   0  0  0  0  0  0  0  0  0  0  0  0
    0.9497   -1.1125    0.6803 C   0  0  0  0  0  0  0  0  0  0  0  0
    2.3583   -1.4355    0.7698 C   0  0  0  0  0  0  0  0  0  0  0  0
    3.3008   -0.5416    0.2391 N   0  0  0  0  0  0  0  0  0  0  0  0
    3.7919   -0.5207   -1.0131 C   0  0  0  0  0  0  0  0  0  0  0  0
    4.7341    0.5000   -1.1296 C   0  0  0  0  0  0  0  0  0  0  0  0
    4.8004    1.0847    0.0589 N   0  0  0  0  0  0  0  0  0  0  0  0
    3.9396    0.4591    0.8805 C   0  0  0  0  0  0  0  0  0  0  0  0
   -0.2190   -2.1838    1.5323 S   0  0  0  0  0  0  0  0  0  0  0  0
   -1.7198   -1.2987    1.0629 C   0  0  0  0  0  0  0  0  0  0  0  0
   -3.0129   -1.5518    1.3609 C   0  0  0  0  0  0  0  0  0  0  0  0
   -3.9629   -0.6963    0.8601 C   0  0  0  0  0  0  0  0  0  0  0  0
   -3.5376    0.3628    0.0878 C   0  0  0  0  0  0  0  0  0  0  0  0
   -4.5581    1.2946   -0.4559 C   0  0  0  0  0  0  0  0  0  0  0  0
   -5.7615    1.1173   -0.2203 O   0  0  0  0  0  0  0  0  0  0  0  0
   -4.1416    2.3490   -1.2188 O   0  0  0  0  0  0  0  0  0  0  0  0
   -2.2146    0.5697   -0.1813 C   0  0  0  0  0  0  0  0  0  0  0  0
   -1.2016   -0.2883    0.3151 C   0  0  0  0  0  0  0  0  0  0  0  0
    1.2378    0.4823   -1.6026 H   0  0  0  0  0  0  0  0  0  0  0  0
    0.0128    1.6893   -0.9661 H   0  0  0  0  0  0  0  0  0  0  0  0
    1.4942    1.3913   -0.0352 H   0  0  0  0  0  0  0  0  0  0  0  0
    2.5679   -1.5633    1.8904 H   0  0  0  0  0  0  0  0  0  0  0  0
    2.5855   -2.4830    0.4004 H   0  0  0  0  0  0  0  0  0  0  0  0
    3.5564   -1.1526   -1.8633 H   0  0  0  0  0  0  0  0  0  0  0  0
    5.3158    0.7866   -2.0002 H   0  0  0  0  0  0  0  0  0  0  0  0
    3.7820    0.7160    1.8958 H   0  0  0  0  0  0  0  0  0  0  0  0
   -3.2325   -2.4131    1.9765 H   0  0  0  0  0  0  0  0  0  0  0  0
   -5.0065   -0.8564    1.0698 H   0  0  0  0  0  0  0  0  0  0  0  0
   -4.7776    3.1310   -1.4344 H   0  0  0  0  0  0  0  0  0  0  0  0
   -1.9799    1.4271   -0.7962 H   0  0  0  0  0  0  0  0  0  0  0  0
  1  2  1  0
  2  3  2  0
  3  4  1  0
  4  5  1  0
  5  6  1  0
  6  7  2  0
  7  8  1  0
  8  9  2  0
  3 10  1  0
 10 11  1  0
 11 12  2  0
 12 13  1  0
 13 14  2  0
 14 15  1  0
 15 16  2  0
 15 17  1  0
 14 18  1  0
 18 19  2  0
 19  2  1  0
  9  5  1  0
 19 11  1  0
  1 20  1  0
  1 21  1  0
  1 22  1  0
  4 23  1  0
  4 24  1  0
  6 25  1  0
  7 26  1  0
  9 27  1  0
 12 28  1  0
 13 29  1  0
 17 30  1  0
 18 31  1  0
M  END
$$$$
