@<TRIPOS>MOLECULE
*****
 31 33 0 0 0
SMALL
GASTEIGER

@<TRIPOS>ATOM
      1 C           0.7790    0.9163   -0.7217 C.3     1  UNL1       -0.0383
      2 C           0.1199   -0.1795    0.1139 C.ar    1  UNL1       -0.0308
      3 C           0.9497   -1.1125    0.6803 C.ar    1  UNL1        0.0135
      4 C           2.3583   -1.4355    0.7698 C.3     1  UNL1        0.0556
      5 N           3.3008   -0.5416    0.2391 N.ar    1  UNL1       -0.3320
      6 C           3.7919   -0.5207   -1.0131 C.ar    1  UNL1        0.0244
      7 C           4.7341    0.5000   -1.1296 C.ar    1  UNL1        0.0454
      8 N           4.8004    1.0847    0.0589 N.ar    1  UNL1       -0.2441
      9 C           3.9396    0.4591    0.8805 C.ar    1  UNL1        0.0962
     10 S          -0.2190   -2.1838    1.5323 S.2     1  UNL1       -0.0911
     11 C          -1.7198   -1.2987    1.0629 C.ar    1  UNL1        0.0199
     12 C          -3.0129   -1.5518    1.3609 C.ar    1  UNL1       -0.0466
     13 C          -3.9629   -0.6963    0.8601 C.ar    1  UNL1       -0.0467
     14 C          -3.5376    0.3628    0.0878 C.ar    1  UNL1        0.0595
     15 C          -4.5581    1.2946   -0.4559 C.2     1  UNL1        0.3368
     16 O          -5.7615    1.1173   -0.2203 O.2     1  UNL1       -0.2451
     17 O          -4.1416    2.3490   -1.2188 O.3     1  UNL1       -0.4771
     18 C          -2.2146    0.5697   -0.1813 C.ar    1  UNL1       -0.0393
     19 C          -1.2016   -0.2883    0.3151 C.ar    1  UNL1       -0.0068
     20 H           1.2378    0.4823   -1.6026 H       1  UNL1        0.0278
     21 H           0.0128    1.6893   -0.9661 H       1  UNL1        0.0278
     22 H           1.4942    1.3913   -0.0352 H       1  UNL1        0.0278
     23 H           2.5679   -1.5633    1.8904 H       1  UNL1        0.0547
     24 H           2.5855   -2.4830    0.4004 H       1  UNL1        0.0547
     25 H           3.5564   -1.1526   -1.8633 H       1  UNL1        0.0825
     26 H           5.3158    0.7866   -2.0002 H       1  UNL1        0.0845
     27 H           3.7820    0.7160    1.8958 H       1  UNL1        0.1029
     28 H          -3.2325   -2.4131    1.9765 H       1  UNL1        0.0629
     29 H          -5.0065   -0.8564    1.0698 H       1  UNL1        0.0626
     30 H          -4.7776    3.1310   -1.4344 H       1  UNL1        0.2954
     31 H          -1.9799    1.4271   -0.7962 H       1  UNL1        0.0632
@<TRIPOS>BOND
     1     1     2    1
     2     2     3   ar
     3     3     4    1
     4     4     5    1
     5     5     6   ar
     6     6     7   ar
     7     7     8   ar
     8     8     9   ar
     9     3    10   ar
    10    10    11   ar
    11    11    12   ar
    12    12    13   ar
    13    13    14   ar
    14    14    15    1
    15    15    16    2
    16    15    17    1
    17    14    18   ar
    18    18    19   ar
    19    19     2   ar
    20     9     5   ar
    21    19    11   ar
    22     1    20    1
    23     1    21    1
    24     1    22    1
    25     4    23    1
    26     4    24    1
    27     6    25    1
    28     7    26    1
    29     9    27    1
    30    12    28    1
    31    13    29    1
    32    17    30    1
    33    18    31    1
