@<TRIPOS>MOLECULE
*****
 106 110 0 0 0
SMALL
GASTEIGER

@<TRIPOS>ATOM
      1 N           8.5634   -2.4488    1.6024 N.3     1  UNL1       -0.3271
      2 C           7.2547   -2.1887    2.1956 C.3     1  UNL1        0.0077
      3 C           7.2698   -0.7661    2.6808 C.3     1  UNL1       -0.0218
      4 C           5.8722   -0.2329    2.9227 C.3     1  UNL1        0.0161
      5 N           5.1482   -0.3041    1.6723 N.am    1  UNL1       -0.3014
      6 C           3.9469    0.4439    1.5316 C.2     1  UNL1        0.2163
      7 O           3.5167    1.1537    2.4721 O.2     1  UNL1       -0.2756
      8 C           3.1750    0.4023    0.2672 C.3     1  UNL1        0.0355
      9 C           1.9683    1.2914    0.2525 C.3     1  UNL1        0.0477
     10 C           2.2561    2.7301    0.4343 C.3     1  UNL1       -0.0161
     11 C           3.1167    3.3887   -0.5365 C.ar    1  UNL1       -0.0466
     12 C           2.5917    4.0846   -1.5926 C.ar    1  UNL1       -0.0586
     13 C           3.3609    4.7222   -2.5676 C.ar    1  UNL1       -0.0615
     14 C           4.7373    4.6459   -2.4570 C.ar    1  UNL1       -0.0617
     15 C           5.3124    3.9593   -1.4132 C.ar    1  UNL1       -0.0615
     16 C           4.5069    3.3462   -0.4767 C.ar    1  UNL1       -0.0586
     17 C           1.1091    0.9313   -0.8990 C.2     1  UNL1        0.2175
     18 O           0.8217    1.6836   -1.8560 O.2     1  UNL1       -0.2755
     19 N           0.5159   -0.3806   -0.9954 N.am    1  UNL1       -0.3034
     20 C          -0.3256   -0.7316   -2.1231 C.3     1  UNL1        0.1047
     21 C           0.2232   -1.9139   -2.8741 C.3     1  UNL1        0.0160
     22 C          -0.6499   -2.2354   -4.0063 C.ar    1  UNL1        0.0375
     23 C          -1.7152   -3.0864   -4.1091 C.ar    1  UNL1        0.0485
     24 N          -2.1857   -3.0538   -5.3578 N.ar    1  UNL1       -0.2440
     25 C          -1.4189   -2.1823   -6.0464 C.ar    1  UNL1        0.0935
     26 N          -0.4842   -1.6799   -5.2367 N.ar    1  UNL1       -0.3481
     27 C          -1.7449   -0.8867   -1.7119 C.2     1  UNL1        0.2340
     28 O          -2.6102   -1.0458   -2.5790 O.2     1  UNL1       -0.2738
     29 N          -2.1848   -0.8634   -0.3486 N.am    1  UNL1       -0.3084
     30 C          -3.5555   -1.0019    0.0367 C.3     1  UNL1        0.0517
     31 C          -3.8832   -2.4090    0.4105 C.3     1  UNL1       -0.0292
     32 C          -3.1714   -3.0488    1.5245 C.3     1  UNL1       -0.0393
     33 C          -1.6915   -3.1721    1.4158 C.3     1  UNL1       -0.0502
     34 C          -1.2809   -4.4736    2.1233 C.3     1  UNL1       -0.0528
     35 C          -2.1039   -4.6842    3.3701 C.3     1  UNL1       -0.0530
     36 C          -3.5205   -5.0472    2.9484 C.3     1  UNL1       -0.0528
     37 C          -3.7229   -4.4939    1.5687 C.3     1  UNL1       -0.0502
     38 C          -4.0244    0.0161    1.0183 C.3     1  UNL1        0.0993
     39 O          -3.3097   -0.0514    2.2361 O.3     1  UNL1       -0.3874
     40 C          -3.8790    1.4423    0.4501 C.3     1  UNL1        0.0831
     41 O          -4.5477    1.5489   -0.7480 O.3     1  UNL1       -0.3892
     42 C          -4.4179    2.4486    1.4272 C.3     1  UNL1       -0.0190
     43 C          -4.3394    3.8644    1.0682 C.3     1  UNL1       -0.0080
     44 C          -5.0779    4.3472   -0.0940 C.ar    1  UNL1        0.0414
     45 C          -4.9228    5.7177   -0.3928 C.ar    1  UNL1       -0.0404
     46 C          -5.5608    6.2895   -1.4640 C.ar    1  UNL1       -0.0586
     47 C          -6.3660    5.5111   -2.2606 C.ar    1  UNL1       -0.0436
     48 C          -6.5146    4.1622   -1.9605 C.ar    1  UNL1        0.0279
     49 N          -5.8719    3.6600   -0.9086 N.ar    1  UNL1       -0.2599
     50 C           5.6863   -1.1343    0.6183 C.3     1  UNL1        0.0161
     51 C           6.1290   -2.4354    1.2108 C.3     1  UNL1       -0.0218
     52 H           8.5385   -3.1446    0.8452 H       1  UNL1        0.1185
     53 H           9.2417   -2.7261    2.3350 H       1  UNL1        0.1185
     54 H           7.1473   -2.8916    3.0443 H       1  UNL1        0.0459
     55 H           7.8251   -0.7384    3.6293 H       1  UNL1        0.0295
     56 H           7.7475   -0.1402    1.8984 H       1  UNL1        0.0295
     57 H           5.9648    0.8585    3.1687 H       1  UNL1        0.0465
     58 H           5.3616   -0.6937    3.7725 H       1  UNL1        0.0465
     59 H           3.8179    0.5273   -0.6213 H       1  UNL1        0.0366
     60 H           2.8056   -0.6653    0.1968 H       1  UNL1        0.0366
     61 H           1.3241    1.0010    1.1590 H       1  UNL1        0.0402
     62 H           2.5953    2.9945    1.4598 H       1  UNL1        0.0321
     63 H           1.2471    3.2585    0.3650 H       1  UNL1        0.0321
     64 H           1.5150    4.2169   -1.7502 H       1  UNL1        0.0620
     65 H           2.9109    5.2659   -3.3947 H       1  UNL1        0.0618
     66 H           5.3921    5.1167   -3.1769 H       1  UNL1        0.0618
     67 H           6.3988    3.8805   -1.2951 H       1  UNL1        0.0618
     68 H           4.9977    2.8191    0.3306 H       1  UNL1        0.0620
     69 H           0.6962   -1.0732   -0.2481 H       1  UNL1        0.1495
     70 H          -0.3193    0.1299   -2.8181 H       1  UNL1        0.0598
     71 H           1.2159   -1.6144   -3.2581 H       1  UNL1        0.0351
     72 H           0.4192   -2.7847   -2.2122 H       1  UNL1        0.0351
     73 H          -2.1102   -3.6847   -3.3133 H       1  UNL1        0.0848
     74 H          -1.5831   -1.9565   -7.1125 H       1  UNL1        0.1027
     75 H           0.2607   -0.9706   -5.5034 H       1  UNL1        0.1665
     76 H          -1.4421   -0.7324    0.3613 H       1  UNL1        0.1491
     77 H          -4.1795   -0.8491   -0.9025 H       1  UNL1        0.0525
     78 H          -4.9803   -2.4749    0.6196 H       1  UNL1        0.0287
     79 H          -3.7354   -3.0347   -0.5084 H       1  UNL1        0.0287
     80 H          -3.4078   -2.6428    2.5303 H       1  UNL1        0.0301
     81 H          -1.2349   -2.3749    2.0446 H       1  UNL1        0.0268
     82 H          -1.2886   -3.2338    0.4045 H       1  UNL1        0.0268
     83 H          -0.1917   -4.4515    2.3702 H       1  UNL1        0.0265
     84 H          -1.4223   -5.3597    1.4746 H       1  UNL1        0.0265
     85 H          -2.1519   -3.7243    3.9083 H       1  UNL1        0.0265
     86 H          -1.6252   -5.4651    3.9753 H       1  UNL1        0.0265
     87 H          -3.6991   -6.1295    2.9891 H       1  UNL1        0.0265
     88 H          -4.2369   -4.5186    3.6182 H       1  UNL1        0.0265
     89 H          -4.8354   -4.3728    1.4122 H       1  UNL1        0.0268
     90 H          -3.3021   -5.1000    0.7555 H       1  UNL1        0.0268
     91 H          -5.0839   -0.1038    1.2723 H       1  UNL1        0.0638
     92 H          -2.6384    0.6573    2.2675 H       1  UNL1        0.2100
     93 H          -2.8049    1.6883    0.2992 H       1  UNL1        0.0620
     94 H          -5.3178    0.9166   -0.8204 H       1  UNL1        0.2099
     95 H          -3.8894    2.3228    2.4268 H       1  UNL1        0.0294
     96 H          -5.5009    2.1953    1.6558 H       1  UNL1        0.0294
     97 H          -4.7374    4.4662    1.9499 H       1  UNL1        0.0329
     98 H          -3.2809    4.2488    0.9900 H       1  UNL1        0.0329
     99 H          -4.2939    6.3403    0.2252 H       1  UNL1        0.0635
    100 H          -5.4426    7.3603   -1.7027 H       1  UNL1        0.0619
    101 H          -6.9027    5.8817   -3.1215 H       1  UNL1        0.0633
    102 H          -7.1625    3.5473   -2.6070 H       1  UNL1        0.0829
    103 H           5.0116   -1.2382   -0.2366 H       1  UNL1        0.0465
    104 H           6.6177   -0.6224    0.2525 H       1  UNL1        0.0465
    105 H           5.2781   -2.8910    1.7252 H       1  UNL1        0.0295
    106 H           6.4694   -3.1298    0.4271 H       1  UNL1        0.0295
@<TRIPOS>BOND
     1     1     2    1
     2     2     3    1
     3     3     4    1
     4     4     5    1
     5     5     6   am
     6     6     7    2
     7     6     8    1
     8     8     9    1
     9     9    10    1
    10    10    11    1
    11    11    12   ar
    12    12    13   ar
    13    13    14   ar
    14    14    15   ar
    15    15    16   ar
    16     9    17    1
    17    17    18    2
    18    17    19   am
    19    19    20    1
    20    20    21    1
    21    21    22    1
    22    22    23   ar
    23    23    24   ar
    24    24    25   ar
    25    25    26   ar
    26    20    27    1
    27    27    28    2
    28    27    29   am
    29    29    30    1
    30    30    31    1
    31    31    32    1
    32    32    33    1
    33    33    34    1
    34    34    35    1
    35    35    36    1
    36    36    37    1
    37    30    38    1
    38    38    39    1
    39    38    40    1
    40    40    41    1
    41    40    42    1
    42    42    43    1
    43    43    44    1
    44    44    45   ar
    45    45    46   ar
    46    46    47   ar
    47    47    48   ar
    48    48    49   ar
    49     5    50    1
    50    50    51    1
    51    51     2    1
    52    16    11   ar
    53    26    22   ar
    54    37    32    1
    55    49    44   ar
    56     1    52    1
    57     1    53    1
    58     2    54    1
    59     3    55    1
    60     3    56    1
    61     4    57    1
    62     4    58    1
    63     8    59    1
    64     8    60    1
    65     9    61    1
    66    10    62    1
    67    10    63    1
    68    12    64    1
    69    13    65    1
    70    14    66    1
    71    15    67    1
    72    16    68    1
    73    19    69    1
    74    20    70    1
    75    21    71    1
    76    21    72    1
    77    23    73    1
    78    25    74    1
    79    26    75    1
    80    29    76    1
    81    30    77    1
    82    31    78    1
    83    31    79    1
    84    32    80    1
    85    33    81    1
    86    33    82    1
    87    34    83    1
    88    34    84    1
    89    35    85    1
    90    35    86    1
    91    36    87    1
    92    36    88    1
    93    37    89    1
    94    37    90    1
    95    38    91    1
    96    39    92    1
    97    40    93    1
    98    41    94    1
    99    42    95    1
   100    42    96    1
   101    43    97    1
   102    43    98    1
   103    45    99    1
   104    46   100    1
   105    47   101    1
   106    48   102    1
   107    50   103    1
   108    50   104    1
   109    51   105    1
   110    51   106    1
