@<TRIPOS>MOLECULE
*****
 45 49 0 0 0
SMALL
GASTEIGER

@<TRIPOS>ATOM
      1 F           3.6094    4.9312   -0.3083 F       1  UNL1       -0.2055
      2 C           3.3382    3.5917   -0.1551 C.ar    1  UNL1        0.1234
      3 C           4.0136    2.8174    0.7638 C.ar    1  UNL1       -0.0258
      4 C           3.7353    1.4685    0.9187 C.ar    1  UNL1       -0.0498
      5 C           2.7706    0.8699    0.1504 C.ar    1  UNL1        0.0026
      6 C           2.5120   -0.5467    0.3712 C.ar    1  UNL1        0.0967
      7 N           3.3702   -1.5686    0.3221 N.ar    1  UNL1       -0.2351
      8 C           2.6989   -2.6886    0.5946 C.ar    1  UNL1        0.0972
      9 N           1.3707   -2.4071    0.8293 N.ar    1  UNL1       -0.3241
     10 C           0.3588   -3.3868    1.1024 C.3     1  UNL1        0.0852
     11 C          -0.0634   -4.0379   -0.2032 C.3     1  UNL1        0.2569
     12 F          -0.5501   -3.1213   -1.0532 F       1  UNL1       -0.2073
     13 F           1.0697   -4.6594   -0.7662 F       1  UNL1       -0.2073
     14 C           1.2430   -1.0879    0.6951 C.ar    1  UNL1        0.0780
     15 C           0.1088   -0.2104    0.8784 C.ar    1  UNL1        0.0173
     16 C           0.1146    0.6380    2.0005 C.ar    1  UNL1       -0.0477
     17 C          -0.9110    1.5250    2.2304 C.ar    1  UNL1       -0.0182
     18 C          -1.9847    1.6235    1.3799 C.ar    1  UNL1        0.1378
     19 N          -3.0825    2.4040    1.4045 N.ar    1  UNL1       -0.2358
     20 C          -3.7837    2.0741    0.3315 C.ar    1  UNL1        0.0499
     21 C          -3.1369    1.0652   -0.4038 C.ar    1  UNL1        0.0462
     22 C          -3.6330    0.4631   -1.6338 C.3     1  UNL1        0.0013
     23 C          -2.8298   -0.0011   -2.7690 C.3     1  UNL1       -0.0442
     24 C          -3.5544   -0.9790   -1.9651 C.3     1  UNL1       -0.0442
     25 N          -2.0028    0.8166    0.3026 N.ar    1  UNL1       -0.3027
     26 C          -0.9795   -0.0658    0.0756 C.ar    1  UNL1        0.0206
     27 C           2.1098    1.6569   -0.7593 C.ar    1  UNL1       -0.0498
     28 C           2.3718    3.0019   -0.9279 C.ar    1  UNL1       -0.0258
     29 H           4.7729    3.3377    1.3547 H       1  UNL1        0.0646
     30 H           4.3173    0.9254    1.6682 H       1  UNL1        0.0625
     31 H           3.0696   -3.7231    0.6454 H       1  UNL1        0.1029
     32 H          -0.5534   -2.9876    1.5427 H       1  UNL1        0.0548
     33 H           0.7723   -4.2586    1.6975 H       1  UNL1        0.0548
     34 H          -0.7751   -4.8911   -0.0122 H       1  UNL1        0.1037
     35 H           0.9157    0.6164    2.7036 H       1  UNL1        0.0626
     36 H          -0.9176    2.1938    3.1015 H       1  UNL1        0.0654
     37 H          -4.7265    2.4961    0.0264 H       1  UNL1        0.0848
     38 H          -4.6249    0.9061   -1.9774 H       1  UNL1        0.0364
     39 H          -1.7342    0.1113   -2.8489 H       1  UNL1        0.0272
     40 H          -3.2390    0.1229   -3.8321 H       1  UNL1        0.0272
     41 H          -4.4576   -1.4845   -2.4341 H       1  UNL1        0.0272
     42 H          -3.1595   -1.6397   -1.1923 H       1  UNL1        0.0272
     43 H          -1.0780   -0.6482   -0.7969 H       1  UNL1        0.0820
     44 H           1.3412    1.1908   -1.3776 H       1  UNL1        0.0625
     45 H           1.7933    3.5460   -1.6743 H       1  UNL1        0.0646
@<TRIPOS>BOND
     1     1     2    1
     2     2     3   ar
     3     3     4   ar
     4     4     5   ar
     5     5     6    1
     6     6     7   ar
     7     7     8   ar
     8     8     9   ar
     9     9    10    1
    10    10    11    1
    11    11    12    1
    12    11    13    1
    13     9    14   ar
    14    14    15    1
    15    15    16   ar
    16    16    17   ar
    17    17    18   ar
    18    18    19   ar
    19    19    20   ar
    20    20    21   ar
    21    21    22    1
    22    22    23    1
    23    23    24    1
    24    21    25   ar
    25    25    26   ar
    26     5    27   ar
    27    27    28   ar
    28    28     2   ar
    29    14     6   ar
    30    26    15   ar
    31    25    18   ar
    32    24    22    1
    33     3    29    1
    34     4    30    1
    35     8    31    1
    36    10    32    1
    37    10    33    1
    38    11    34    1
    39    16    35    1
    40    17    36    1
    41    20    37    1
    42    22    38    1
    43    23    39    1
    44    23    40    1
    45    24    41    1
    46    24    42    1
    47    26    43    1
    48    27    44    1
    49    28    45    1
