
     RDKit          3D

 29 29  0  0  0  0  0  0  0  0999 V2000
   -1.7242    4.0059    0.8310 Cl  0  0  0  0  0  0  0  0  0  0  0  0
   -0.8472    2.5722    0.1951 C   0  0  0  0  0  0  0  0  0  0  0  0
   -1.7244    1.3485    0.3221 C   0  0  0  0  0  0  0  0  0  0  0  0
   -1.1037    0.1373   -0.1780 N   0  0  0  0  0  0  0  0  0  0  0  0
   -2.0111   -0.9719    0.0037 C   0  0  0  0  0  0  0  0  0  0  0  0
   -3.2339   -0.8958   -0.8639 C   0  0  0  0  0  0  0  0  0  0  0  0
   -4.2607   -2.3328   -0.5262 Cl  0  0  0  0  0  0  0  0  0  0  0  0
    0.3841   -0.0923    0.6506 P   0  0  0  0  0  0  0  0  0  0  0  0
    0.3069    0.2643    2.1322 O   0  0  0  0  0  0  0  0  0  0  0  0
    1.0784   -1.6947    0.4411 N   0  0  0  0  0  0  0  0  0  0  0  0
    2.2604   -1.5722   -0.3905 C   0  0  0  0  0  0  0  0  0  0  0  0
    3.3027   -0.6689    0.2165 C   0  0  0  0  0  0  0  0  0  0  0  0
    2.7399    0.6433    0.6941 C   0  0  0  0  0  0  0  0  0  0  0  0
    1.5640    0.9579   -0.0212 O   0  0  0  0  0  0  0  0  0  0  0  0
   -0.5892    2.7507   -0.8667 H   0  0  0  0  0  0  0  0  0  0  0  0
    0.0600    2.4867    0.8474 H   0  0  0  0  0  0  0  0  0  0  0  0
   -1.9530    1.2238    1.4187 H   0  0  0  0  0  0  0  0  0  0  0  0
   -2.7112    1.5432   -0.1401 H   0  0  0  0  0  0  0  0  0  0  0  0
   -1.5146   -1.9189   -0.1965 H   0  0  0  0  0  0  0  0  0  0  0  0
   -2.3028   -0.9833    1.0898 H   0  0  0  0  0  0  0  0  0  0  0  0
   -2.9033   -1.0090   -1.9253 H   0  0  0  0  0  0  0  0  0  0  0  0
   -3.8788   -0.0345   -0.6904 H   0  0  0  0  0  0  0  0  0  0  0  0
    0.4477   -2.3346   -0.0520 H   0  0  0  0  0  0  0  0  0  0  0  0
    2.7101   -2.5828   -0.4697 H   0  0  0  0  0  0  0  0  0  0  0  0
    2.0476   -1.2421   -1.4237 H   0  0  0  0  0  0  0  0  0  0  0  0
    3.8261   -1.1403    1.0499 H   0  0  0  0  0  0  0  0  0  0  0  0
    4.0517   -0.4350   -0.5695 H   0  0  0  0  0  0  0  0  0  0  0  0
    2.4742    0.5358    1.7583 H   0  0  0  0  0  0  0  0  0  0  0  0
    3.5042    1.4395    0.5755 H   0  0  0  0  0  0  0  0  0  0  0  0
  1  2  1  0
  2  3  1  0
  3  4  1  0
  4  5  1  0
  5  6  1  0
  6  7  1  0
  4  8  1  0
  8  9  2  0
  8 10  1  0
 10 11  1  0
 11 12  1  0
 12 13  1  0
 13 14  1  0
 14  8  1  0
  2 15  1  0
  2 16  1  0
  3 17  1  0
  3 18  1  0
  5 19  1  0
  5 20  1  0
  6 21  1  0
  6 22  1  0
 10 23  1  0
 11 24  1  0
 11 25  1  0
 12 26  1  0
 12 27  1  0
 13 28  1  0
 13 29  1  0
M  END
$$$$
