
     RDKit          3D

 37 39  0  0  0  0  0  0  0  0999 V2000
   -2.8956   -2.2761    0.4051 C   0  0  0  0  0  0  0  0  0  0  0  0
   -3.1423   -1.4185   -0.7258 N   0  0  0  0  0  0  0  0  0  0  0  0
   -2.2247   -0.2717   -0.7205 C   0  0  1  0  0  0  0  0  0  0  0  0
   -2.3972    0.5416    0.5292 C   0  0  0  0  0  0  0  0  0  0  0  0
   -1.2900    1.5684    0.5303 C   0  0  0  0  0  0  0  0  0  0  0  0
   -1.5487    2.8945    0.7458 C   0  0  0  0  0  0  0  0  0  0  0  0
   -0.5062    3.7938    0.7392 C   0  0  0  0  0  0  0  0  0  0  0  0
    0.7714    3.3201    0.5137 C   0  0  0  0  0  0  0  0  0  0  0  0
    1.0451    1.9878    0.2954 C   0  0  0  0  0  0  0  0  0  0  0  0
   -0.0118    1.1082    0.3065 C   0  0  0  0  0  0  0  0  0  0  0  0
    0.1352   -0.3521    0.0847 C   0  0  2  0  0  0  0  0  0  0  0  0
    1.5067   -0.7491   -0.1950 C   0  0  0  0  0  0  0  0  0  0  0  0
    2.1047   -0.8154   -1.4302 C   0  0  0  0  0  0  0  0  0  0  0  0
    3.4176   -1.2058   -1.5930 C   0  0  0  0  0  0  0  0  0  0  0  0
    4.1959   -1.5506   -0.5082 C   0  0  0  0  0  0  0  0  0  0  0  0
    5.8787   -2.0510   -0.7158 Cl  0  0  0  0  0  0  0  0  0  0  0  0
    3.6138   -1.4904    0.7394 C   0  0  0  0  0  0  0  0  0  0  0  0
    4.6351   -1.9373    2.1053 Cl  0  0  0  0  0  0  0  0  0  0  0  0
    2.3010   -1.1002    0.9038 C   0  0  0  0  0  0  0  0  0  0  0  0
   -0.8316   -0.7013   -1.0212 C   0  0  0  0  0  0  0  0  0  0  0  0
   -3.5395   -3.1823    0.2581 H   0  0  0  0  0  0  0  0  0  0  0  0
   -3.2420   -1.8199    1.3505 H   0  0  0  0  0  0  0  0  0  0  0  0
   -1.8178   -2.5933    0.4623 H   0  0  0  0  0  0  0  0  0  0  0  0
   -4.1257   -1.1179   -0.6895 H   0  0  0  0  0  0  0  0  0  0  0  0
   -2.5873    0.3748   -1.5687 H   0  0  0  0  0  0  0  0  0  0  0  0
   -3.3418    1.0868    0.4915 H   0  0  0  0  0  0  0  0  0  0  0  0
   -2.2478   -0.0421    1.4564 H   0  0  0  0  0  0  0  0  0  0  0  0
   -2.5889    3.1916    0.9172 H   0  0  0  0  0  0  0  0  0  0  0  0
   -0.7017    4.8588    0.9108 H   0  0  0  0  0  0  0  0  0  0  0  0
    1.5848    4.0333    0.5102 H   0  0  0  0  0  0  0  0  0  0  0  0
    2.0668    1.6281    0.1177 H   0  0  0  0  0  0  0  0  0  0  0  0
   -0.2349   -0.8708    0.9969 H   0  0  0  0  0  0  0  0  0  0  0  0
    1.5175   -0.5502   -2.2980 H   0  0  0  0  0  0  0  0  0  0  0  0
    3.8871   -1.2556   -2.5858 H   0  0  0  0  0  0  0  0  0  0  0  0
    1.8884   -1.0686    1.9034 H   0  0  0  0  0  0  0  0  0  0  0  0
   -0.4440   -0.1860   -1.9491 H   0  0  0  0  0  0  0  0  0  0  0  0
   -0.8303   -1.7819   -1.2726 H   0  0  0  0  0  0  0  0  0  0  0  0
  1  2  1  0
  2  3  1  0
  3  4  1  0
  4  5  1  0
  5  6  2  0
  6  7  1  0
  7  8  2  0
  8  9  1  0
  9 10  2  0
 10 11  1  0
 11 12  1  0
 12 13  2  0
 13 14  1  0
 14 15  2  0
 15 16  1  0
 15 17  1  0
 17 18  1  0
 17 19  2  0
 11 20  1  0
 20  3  1  0
 10  5  1  0
 19 12  1  0
  1 21  1  0
  1 22  1  0
  1 23  1  0
  2 24  1  0
  3 25  1  6
  4 26  1  0
  4 27  1  0
  6 28  1  0
  7 29  1  0
  8 30  1  0
  9 31  1  0
 11 32  1  1
 13 33  1  0
 14 34  1  0
 19 35  1  0
 20 36  1  0
 20 37  1  0
M  END
$$$$
