@<TRIPOS>MOLECULE
*****
 37 39 0 0 0
SMALL
GASTEIGER

@<TRIPOS>ATOM
      1 C          -2.8956   -2.2761    0.4051 C.3     1  UNL1       -0.0155
      2 N          -3.1423   -1.4185   -0.7258 N.3     1  UNL1       -0.3159
      3 C          -2.2247   -0.2717   -0.7205 C.3     1  UNL1        0.0122
      4 C          -2.3972    0.5416    0.5292 C.3     1  UNL1       -0.0119
      5 C          -1.2900    1.5684    0.5303 C.ar    1  UNL1       -0.0421
      6 C          -1.5487    2.8945    0.7458 C.ar    1  UNL1       -0.0582
      7 C          -0.5062    3.7938    0.7392 C.ar    1  UNL1       -0.0615
      8 C           0.7714    3.3201    0.5137 C.ar    1  UNL1       -0.0615
      9 C           1.0451    1.9878    0.2954 C.ar    1  UNL1       -0.0577
     10 C          -0.0118    1.1082    0.3065 C.ar    1  UNL1       -0.0367
     11 C           0.1352   -0.3521    0.0847 C.3     1  UNL1        0.0109
     12 C           1.5067   -0.7491   -0.1950 C.ar    1  UNL1       -0.0384
     13 C           2.1047   -0.8154   -1.4302 C.ar    1  UNL1       -0.0565
     14 C           3.4176   -1.2058   -1.5930 C.ar    1  UNL1       -0.0417
     15 C           4.1959   -1.5506   -0.5082 C.ar    1  UNL1        0.0593
     16 CL          5.8787   -2.0510   -0.7158 Cl      1  UNL1       -0.0820
     17 C           3.6138   -1.4904    0.7394 C.ar    1  UNL1        0.0595
     18 CL          4.6351   -1.9373    2.1053 Cl      1  UNL1       -0.0820
     19 C           2.3010   -1.1002    0.9038 C.ar    1  UNL1       -0.0382
     20 C          -0.8316   -0.7013   -1.0212 C.3     1  UNL1       -0.0264
     21 H          -3.5395   -3.1823    0.2581 H       1  UNL1        0.0388
     22 H          -3.2420   -1.8199    1.3505 H       1  UNL1        0.0388
     23 H          -1.8178   -2.5933    0.4623 H       1  UNL1        0.0388
     24 H          -4.1257   -1.1179   -0.6895 H       1  UNL1        0.1219
     25 H          -2.5873    0.3748   -1.5687 H       1  UNL1        0.0464
     26 H          -3.3418    1.0868    0.4915 H       1  UNL1        0.0328
     27 H          -2.2478   -0.0421    1.4564 H       1  UNL1        0.0328
     28 H          -2.5889    3.1916    0.9172 H       1  UNL1        0.0620
     29 H          -0.7017    4.8588    0.9108 H       1  UNL1        0.0618
     30 H           1.5848    4.0333    0.5102 H       1  UNL1        0.0618
     31 H           2.0668    1.6281    0.1177 H       1  UNL1        0.0621
     32 H          -0.2349   -0.8708    0.9969 H       1  UNL1        0.0398
     33 H           1.5175   -0.5502   -2.2980 H       1  UNL1        0.0621
     34 H           3.8871   -1.2556   -2.5858 H       1  UNL1        0.0633
     35 H           1.8884   -1.0686    1.9034 H       1  UNL1        0.0635
     36 H          -0.4440   -0.1860   -1.9491 H       1  UNL1        0.0289
     37 H          -0.8303   -1.7819   -1.2726 H       1  UNL1        0.0289
@<TRIPOS>BOND
     1     1     2    1
     2     2     3    1
     3     3     4    1
     4     4     5    1
     5     5     6   ar
     6     6     7   ar
     7     7     8   ar
     8     8     9   ar
     9     9    10   ar
    10    10    11    1
    11    11    12    1
    12    12    13   ar
    13    13    14   ar
    14    14    15   ar
    15    15    16    1
    16    15    17   ar
    17    17    18    1
    18    17    19   ar
    19    11    20    1
    20    20     3    1
    21    10     5   ar
    22    19    12   ar
    23     1    21    1
    24     1    22    1
    25     1    23    1
    26     2    24    1
    27     3    25    1
    28     4    26    1
    29     4    27    1
    30     6    28    1
    31     7    29    1
    32     8    30    1
    33     9    31    1
    34    11    32    1
    35    13    33    1
    36    14    34    1
    37    19    35    1
    38    20    36    1
    39    20    37    1
