
     RDKit          3D

 50 53  0  0  0  0  0  0  0  0999 V2000
    9.2285   -0.8792   -1.0363 C   0  0  0  0  0  0  0  0  0  0  0  0
    8.0815   -1.7008   -1.0777 O   0  0  0  0  0  0  0  0  0  0  0  0
    6.8390   -1.1053   -0.8369 C   0  0  0  0  0  0  0  0  0  0  0  0
    5.6843   -1.8425   -0.8614 C   0  0  0  0  0  0  0  0  0  0  0  0
    4.4226   -1.3125   -0.6311 C   0  0  0  0  0  0  0  0  0  0  0  0
    4.3145    0.0158   -0.3645 C   0  0  0  0  0  0  0  0  0  0  0  0
    3.1242    0.7342   -0.1064 N   0  0  0  0  0  0  0  0  0  0  0  0
    1.8101    0.2313   -0.0752 C   0  0  0  0  0  0  0  0  0  0  0  0
    1.6164   -0.9781   -0.2928 O   0  0  0  0  0  0  0  0  0  0  0  0
    0.6160    1.0681    0.2064 C   0  0  1  0  0  0  0  0  0  0  0  0
    0.5535    2.0867   -0.9397 C   0  0  0  0  0  0  0  0  0  0  0  0
   -0.5992    0.3171    0.1730 N   0  0  0  0  0  0  0  0  0  0  0  0
   -1.8375    0.9312    0.4656 C   0  0  0  0  0  0  0  0  0  0  0  0
   -3.0070    0.2376    0.4052 N   0  0  0  0  0  0  0  0  0  0  0  0
   -4.1582    0.8432    0.6917 C   0  0  0  0  0  0  0  0  0  0  0  0
   -4.1759    2.1732    1.0507 C   0  0  0  0  0  0  0  0  0  0  0  0
   -5.4990    2.4719    1.2730 C   0  0  0  0  0  0  0  0  0  0  0  0
   -6.2010    1.3509    1.0474 N   0  0  0  0  0  0  0  0  0  0  0  0
   -5.4299    0.3434    0.6941 N   0  0  0  0  0  0  0  0  0  0  0  0
   -5.8170   -0.9905    0.3785 C   0  0  0  0  0  0  0  0  0  0  0  0
   -5.9411   -1.9853    1.3257 C   0  0  0  0  0  0  0  0  0  0  0  0
   -6.3193   -3.2744    0.9935 C   0  0  0  0  0  0  0  0  0  0  0  0
   -6.5868   -3.6046   -0.3163 C   0  0  0  0  0  0  0  0  0  0  0  0
   -6.4681   -2.6258   -1.2724 C   0  0  0  0  0  0  0  0  0  0  0  0
   -6.0882   -1.3369   -0.9271 C   0  0  0  0  0  0  0  0  0  0  0  0
   -5.9412   -0.1022   -2.1534 Cl  0  0  0  0  0  0  0  0  0  0  0  0
   -3.0043    2.8962    1.1189 C   0  0  0  0  0  0  0  0  0  0  0  0
   -2.9963    4.1096    1.4438 O   0  0  0  0  0  0  0  0  0  0  0  0
   -1.8693    2.2391    0.8204 N   0  0  0  0  0  0  0  0  0  0  0  0
    5.4888    0.7916   -0.3346 C   0  0  0  0  0  0  0  0  0  0  0  0
    6.7251    0.2373   -0.5670 C   0  0  0  0  0  0  0  0  0  0  0  0
   10.1599   -1.4431   -1.0975 H   0  0  0  0  0  0  0  0  0  0  0  0
    9.1467   -0.1362   -1.8688 H   0  0  0  0  0  0  0  0  0  0  0  0
    9.2816   -0.2646   -0.1064 H   0  0  0  0  0  0  0  0  0  0  0  0
    5.7757   -2.9115   -1.0766 H   0  0  0  0  0  0  0  0  0  0  0  0
    3.5465   -1.9313   -0.6610 H   0  0  0  0  0  0  0  0  0  0  0  0
    3.1774    1.7828    0.0934 H   0  0  0  0  0  0  0  0  0  0  0  0
    0.6833    1.6185    1.1410 H   0  0  0  0  0  0  0  0  0  0  0  0
    0.8752    3.0895   -0.6291 H   0  0  0  0  0  0  0  0  0  0  0  0
    1.2459    1.8001   -1.7781 H   0  0  0  0  0  0  0  0  0  0  0  0
   -0.4618    2.1545   -1.3742 H   0  0  0  0  0  0  0  0  0  0  0  0
   -0.5767   -0.6866   -0.0675 H   0  0  0  0  0  0  0  0  0  0  0  0
   -5.8289    3.4554    1.5725 H   0  0  0  0  0  0  0  0  0  0  0  0
   -5.7404   -1.7694    2.3627 H   0  0  0  0  0  0  0  0  0  0  0  0
   -6.4138   -4.0545    1.7537 H   0  0  0  0  0  0  0  0  0  0  0  0
   -6.8864   -4.6312   -0.5700 H   0  0  0  0  0  0  0  0  0  0  0  0
   -6.6805   -2.8959   -2.2968 H   0  0  0  0  0  0  0  0  0  0  0  0
   -0.9600    2.7897    0.8737 H   0  0  0  0  0  0  0  0  0  0  0  0
    5.4723    1.8520   -0.1289 H   0  0  0  0  0  0  0  0  0  0  0  0
    7.6190    0.8416   -0.5420 H   0  0  0  0  0  0  0  0  0  0  0  0
  1  2  1  0
  2  3  1  0
  3  4  2  0
  4  5  1  0
  5  6  2  0
  6  7  1  0
  7  8  1  0
  8  9  2  0
  8 10  1  0
 10 11  1  0
 10 12  1  0
 12 13  1  0
 13 14  2  0
 14 15  1  0
 15 16  2  0
 16 17  1  0
 17 18  2  0
 18 19  1  0
 19 20  1  0
 20 21  2  0
 21 22  1  0
 22 23  2  0
 23 24  1  0
 24 25  2  0
 25 26  1  0
 16 27  1  0
 27 28  2  0
 27 29  1  0
  6 30  1  0
 30 31  2  0
 31  3  1  0
 29 13  1  0
 19 15  1  0
 25 20  1  0
  1 32  1  0
  1 33  1  0
  1 34  1  0
  4 35  1  0
  5 36  1  0
  7 37  1  0
 10 38  1  1
 11 39  1  0
 11 40  1  0
 11 41  1  0
 12 42  1  0
 17 43  1  0
 21 44  1  0
 22 45  1  0
 23 46  1  0
 24 47  1  0
 29 48  1  0
 30 49  1  0
 31 50  1  0
M  END
$$$$
