@<TRIPOS>MOLECULE
*****
 50 53 0 0 0
SMALL
GASTEIGER

@<TRIPOS>ATOM
      1 C           9.2285   -0.8792   -1.0363 C.3     1  UNL1        0.0788
      2 O           8.0815   -1.7008   -1.0777 O.3     1  UNL1       -0.4951
      3 C           6.8390   -1.1053   -0.8369 C.ar    1  UNL1        0.1202
      4 C           5.6843   -1.8425   -0.8614 C.ar    1  UNL1       -0.0182
      5 C           4.4226   -1.3125   -0.6311 C.ar    1  UNL1       -0.0370
      6 C           4.3145    0.0158   -0.3645 C.ar    1  UNL1        0.0337
      7 N           3.1242    0.7342   -0.1064 N.am    1  UNL1       -0.2840
      8 C           1.8101    0.2313   -0.0752 C.2     1  UNL1        0.2373
      9 O           1.6164   -0.9781   -0.2928 O.2     1  UNL1       -0.2734
     10 C           0.6160    1.0681    0.2064 C.3     1  UNL1        0.0970
     11 C           0.5535    2.0867   -0.9397 C.3     1  UNL1       -0.0381
     12 N          -0.5992    0.3171    0.1730 N.pl3   1  UNL1       -0.3038
     13 C          -1.8375    0.9312    0.4656 C.ar    1  UNL1        0.1981
     14 N          -3.0070    0.2376    0.4052 N.ar    1  UNL1       -0.1960
     15 C          -4.1582    0.8432    0.6917 C.ar    1  UNL1        0.1719
     16 C          -4.1759    2.1732    1.0507 C.ar    1  UNL1        0.1032
     17 C          -5.4990    2.4719    1.2730 C.ar    1  UNL1        0.0643
     18 N          -6.2010    1.3509    1.0474 N.ar    1  UNL1       -0.1720
     19 N          -5.4299    0.3434    0.6941 N.ar    1  UNL1       -0.2123
     20 C          -5.8170   -0.9905    0.3785 C.ar    1  UNL1        0.0860
     21 C          -5.9411   -1.9853    1.3257 C.ar    1  UNL1       -0.0348
     22 C          -6.3193   -3.2744    0.9935 C.ar    1  UNL1       -0.0597
     23 C          -6.5868   -3.6046   -0.3163 C.ar    1  UNL1       -0.0603
     24 C          -6.4681   -2.6258   -1.2724 C.ar    1  UNL1       -0.0413
     25 C          -6.0882   -1.3369   -0.9271 C.ar    1  UNL1        0.0664
     26 CL         -5.9412   -0.1022   -2.1534 Cl      1  UNL1       -0.0813
     27 C          -3.0043    2.8962    1.1189 C.ar    1  UNL1        0.2635
     28 O          -2.9963    4.1096    1.4438 O.2     1  UNL1       -0.2670
     29 N          -1.8693    2.2391    0.8204 N.ar    1  UNL1       -0.2945
     30 C           5.4888    0.7916   -0.3346 C.ar    1  UNL1       -0.0370
     31 C           6.7251    0.2373   -0.5670 C.ar    1  UNL1       -0.0182
     32 H          10.1599   -1.4431   -1.0975 H       1  UNL1        0.0660
     33 H           9.1467   -0.1362   -1.8688 H       1  UNL1        0.0660
     34 H           9.2816   -0.2646   -0.1064 H       1  UNL1        0.0660
     35 H           5.7757   -2.9115   -1.0766 H       1  UNL1        0.0655
     36 H           3.5465   -1.9313   -0.6610 H       1  UNL1        0.0637
     37 H           3.1774    1.7828    0.0934 H       1  UNL1        0.1549
     38 H           0.6833    1.6185    1.1410 H       1  UNL1        0.0592
     39 H           0.8752    3.0895   -0.6291 H       1  UNL1        0.0252
     40 H           1.2459    1.8001   -1.7781 H       1  UNL1        0.0252
     41 H          -0.4618    2.1545   -1.3742 H       1  UNL1        0.0252
     42 H          -0.5767   -0.6866   -0.0675 H       1  UNL1        0.1496
     43 H          -5.8289    3.4554    1.5725 H       1  UNL1        0.0856
     44 H          -5.7404   -1.7694    2.3627 H       1  UNL1        0.0639
     45 H          -6.4138   -4.0545    1.7537 H       1  UNL1        0.0618
     46 H          -6.8864   -4.6312   -0.5700 H       1  UNL1        0.0618
     47 H          -6.6805   -2.8959   -2.2968 H       1  UNL1        0.0633
     48 H          -0.9600    2.7897    0.8737 H       1  UNL1        0.1716
     49 H           5.4723    1.8520   -0.1289 H       1  UNL1        0.0637
     50 H           7.6190    0.8416   -0.5420 H       1  UNL1        0.0655
@<TRIPOS>BOND
     1     1     2    1
     2     2     3    1
     3     3     4   ar
     4     4     5   ar
     5     5     6   ar
     6     6     7    1
     7     7     8   am
     8     8     9    2
     9     8    10    1
    10    10    11    1
    11    10    12    1
    12    12    13    1
    13    13    14   ar
    14    14    15   ar
    15    15    16   ar
    16    16    17   ar
    17    17    18   ar
    18    18    19   ar
    19    19    20    1
    20    20    21   ar
    21    21    22   ar
    22    22    23   ar
    23    23    24   ar
    24    24    25   ar
    25    25    26    1
    26    16    27   ar
    27    27    28    2
    28    27    29   ar
    29     6    30   ar
    30    30    31   ar
    31    31     3   ar
    32    29    13   ar
    33    19    15   ar
    34    25    20   ar
    35     1    32    1
    36     1    33    1
    37     1    34    1
    38     4    35    1
    39     5    36    1
    40     7    37    1
    41    10    38    1
    42    11    39    1
    43    11    40    1
    44    11    41    1
    45    12    42    1
    46    17    43    1
    47    21    44    1
    48    22    45    1
    49    23    46    1
    50    24    47    1
    51    29    48    1
    52    30    49    1
    53    31    50    1
