
     RDKit          3D

 66 70  0  0  0  0  0  0  0  0999 V2000
   -5.4560    1.6597   -2.7332 C   0  0  0  0  0  0  0  0  0  0  0  0
   -5.2018    1.9074   -1.3982 O   0  0  0  0  0  0  0  0  0  0  0  0
   -4.8036    0.8052   -0.6849 C   0  0  0  0  0  0  0  0  0  0  0  0
   -5.8539    0.3897    0.3595 C   0  0  0  0  0  0  0  0  0  0  0  0
   -5.9235    1.2434    1.4231 O   0  0  0  0  0  0  0  0  0  0  0  0
   -4.7957    1.2432    2.2277 C   0  0  0  0  0  0  0  0  0  0  0  0
   -3.6235    0.5613    1.5314 C   0  0  0  0  0  0  0  0  0  0  0  0
   -3.5283    0.9821    0.0911 C   0  0  0  0  0  0  0  0  0  0  0  0
   -2.3273    0.6309   -0.4951 N   0  0  0  0  0  0  0  0  0  0  0  0
   -2.0677   -0.5558   -1.1676 C   0  0  2  0  0  0  0  0  0  0  0  0
   -2.2250   -1.8609   -0.4814 C   0  0  0  0  0  0  0  0  0  0  0  0
   -1.0054   -1.9799    0.4496 C   0  0  1  0  0  0  0  0  0  0  0  0
   -0.7431   -3.4302    0.6586 C   0  0  0  0  0  0  0  0  0  0  0  0
    0.6242   -3.6985    0.1267 C   0  0  2  0  0  0  0  0  0  0  0  0
    1.6306   -3.4752    1.0484 O   0  0  0  0  0  0  0  0  0  0  0  0
    0.7575   -2.6219   -0.9571 C   0  0  0  0  0  0  0  0  0  0  0  0
    0.0977   -1.3966   -0.3976 C   0  0  2  0  0  0  0  0  0  0  0  0
    0.9753   -0.5800    0.4408 C   0  0  0  0  0  0  0  0  0  0  0  0
    0.6820   -0.4785    1.6820 O   0  0  0  0  0  0  0  0  0  0  0  0
    2.1307    0.1064   -0.0317 N   0  0  0  0  0  0  0  0  0  0  0  0
    2.5921    0.0928   -1.3920 C   0  0  0  0  0  0  0  0  0  0  0  0
    3.9882   -0.5480   -1.3447 C   0  0  0  0  0  0  0  0  0  0  0  0
    4.8078    0.4483   -0.5714 C   0  0  0  0  0  0  0  0  0  0  0  0
    6.0834    0.7131   -0.9111 N   0  0  0  0  0  0  0  0  0  0  0  0
    6.8511    1.5986   -0.2479 C   0  0  0  0  0  0  0  0  0  0  0  0
    6.3753    2.3043    0.8394 C   0  0  0  0  0  0  0  0  0  0  0  0
    7.2228    3.2868    1.5777 C   0  0  0  0  0  0  0  0  0  0  0  0
    7.8558    2.7197    2.6626 F   0  0  0  0  0  0  0  0  0  0  0  0
    8.2248    3.7988    0.7624 F   0  0  0  0  0  0  0  0  0  0  0  0
    6.4890    4.3540    2.0287 F   0  0  0  0  0  0  0  0  0  0  0  0
    5.0714    2.0527    1.2091 C   0  0  0  0  0  0  0  0  0  0  0  0
    4.2938    1.1313    0.5085 C   0  0  0  0  0  0  0  0  0  0  0  0
    2.9029    0.8730    0.9189 C   0  0  0  0  0  0  0  0  0  0  0  0
   -0.5410   -0.5535   -1.4755 C   0  0  0  0  0  0  0  0  0  0  0  0
   -6.2648    0.9096   -2.8428 H   0  0  0  0  0  0  0  0  0  0  0  0
   -5.8536    2.6075   -3.1687 H   0  0  0  0  0  0  0  0  0  0  0  0
   -4.5561    1.4090   -3.3268 H   0  0  0  0  0  0  0  0  0  0  0  0
   -4.7817   -0.0496   -1.3926 H   0  0  0  0  0  0  0  0  0  0  0  0
   -6.8127    0.3189   -0.1545 H   0  0  0  0  0  0  0  0  0  0  0  0
   -5.5253   -0.6239    0.7096 H   0  0  0  0  0  0  0  0  0  0  0  0
   -4.5091    2.3202    2.3649 H   0  0  0  0  0  0  0  0  0  0  0  0
   -4.9374    0.7700    3.2062 H   0  0  0  0  0  0  0  0  0  0  0  0
   -3.7244   -0.4923    1.7330 H   0  0  0  0  0  0  0  0  0  0  0  0
   -2.6763    0.9074    2.0226 H   0  0  0  0  0  0  0  0  0  0  0  0
   -3.4783    2.1495    0.1925 H   0  0  0  0  0  0  0  0  0  0  0  0
   -1.7585    1.4128   -0.9118 H   0  0  0  0  0  0  0  0  0  0  0  0
   -2.5095   -0.5683   -2.2171 H   0  0  0  0  0  0  0  0  0  0  0  0
   -2.1135   -2.6620   -1.2623 H   0  0  0  0  0  0  0  0  0  0  0  0
   -3.0993   -2.0155    0.1448 H   0  0  0  0  0  0  0  0  0  0  0  0
   -1.1630   -1.4719    1.4000 H   0  0  0  0  0  0  0  0  0  0  0  0
   -1.4581   -4.0787    0.1107 H   0  0  0  0  0  0  0  0  0  0  0  0
   -0.7555   -3.7183    1.7375 H   0  0  0  0  0  0  0  0  0  0  0  0
    0.7402   -4.7080   -0.3103 H   0  0  0  0  0  0  0  0  0  0  0  0
    1.1977   -3.4108    1.9463 H   0  0  0  0  0  0  0  0  0  0  0  0
    0.2488   -2.9575   -1.8739 H   0  0  0  0  0  0  0  0  0  0  0  0
    1.8475   -2.5298   -1.1200 H   0  0  0  0  0  0  0  0  0  0  0  0
    2.7899    1.1741   -1.6584 H   0  0  0  0  0  0  0  0  0  0  0  0
    1.9512   -0.3794   -2.1240 H   0  0  0  0  0  0  0  0  0  0  0  0
    4.3858   -0.7105   -2.3463 H   0  0  0  0  0  0  0  0  0  0  0  0
    3.9561   -1.4586   -0.7157 H   0  0  0  0  0  0  0  0  0  0  0  0
    7.8875    1.7942   -0.5470 H   0  0  0  0  0  0  0  0  0  0  0  0
    4.6678    2.5996    2.0705 H   0  0  0  0  0  0  0  0  0  0  0  0
    2.8431    0.4238    1.9494 H   0  0  0  0  0  0  0  0  0  0  0  0
    2.3933    1.8679    1.0165 H   0  0  0  0  0  0  0  0  0  0  0  0
   -0.3295   -1.0217   -2.4435 H   0  0  0  0  0  0  0  0  0  0  0  0
   -0.1629    0.4689   -1.4502 H   0  0  0  0  0  0  0  0  0  0  0  0
  1  2  1  0
  2  3  1  0
  3  4  1  0
  4  5  1  0
  5  6  1  0
  6  7  1  0
  7  8  1  0
  8  9  1  0
  9 10  1  0
 10 11  1  0
 11 12  1  0
 12 13  1  0
 13 14  1  0
 14 15  1  0
 14 16  1  0
 16 17  1  0
 17 18  1  1
 18 19  2  0
 18 20  1  0
 20 21  1  0
 21 22  1  0
 22 23  1  0
 23 24  2  0
 24 25  1  0
 25 26  2  0
 26 27  1  0
 27 28  1  0
 27 29  1  0
 27 30  1  0
 26 31  1  0
 31 32  2  0
 32 33  1  0
 17 34  1  0
  8  3  1  0
 34 10  1  0
 17 12  1  0
 33 20  1  0
 32 23  1  0
  1 35  1  0
  1 36  1  0
  1 37  1  0
  3 38  1  0
  4 39  1  0
  4 40  1  0
  6 41  1  0
  6 42  1  0
  7 43  1  0
  7 44  1  0
  8 45  1  0
  9 46  1  0
 10 47  1  6
 11 48  1  0
 11 49  1  0
 12 50  1  1
 13 51  1  0
 13 52  1  0
 14 53  1  6
 15 54  1  0
 16 55  1  0
 16 56  1  0
 21 57  1  0
 21 58  1  0
 22 59  1  0
 22 60  1  0
 25 61  1  0
 31 62  1  0
 33 63  1  0
 33 64  1  0
 34 65  1  0
 34 66  1  0
M  END
$$$$
