@<TRIPOS>MOLECULE
*****
 66 70 0 0 0
SMALL
GASTEIGER

@<TRIPOS>ATOM
      1 C          -5.4560    1.6597   -2.7332 C.3     1  UNL1        0.0370
      2 O          -5.2018    1.9074   -1.3982 O.3     1  UNL1       -0.3760
      3 C          -4.8036    0.8052   -0.6849 C.3     1  UNL1        0.0969
      4 C          -5.8539    0.3897    0.3595 C.3     1  UNL1        0.0753
      5 O          -5.9235    1.2434    1.4231 O.3     1  UNL1       -0.3771
      6 C          -4.7957    1.2432    2.2277 C.3     1  UNL1        0.0493
      7 C          -3.6235    0.5613    1.5314 C.3     1  UNL1       -0.0115
      8 C          -3.5283    0.9821    0.0911 C.3     1  UNL1        0.0383
      9 N          -2.3273    0.6309   -0.4951 N.3     1  UNL1       -0.3079
     10 C          -2.0677   -0.5558   -1.1676 C.3     1  UNL1        0.0092
     11 C          -2.2250   -1.8609   -0.4814 C.3     1  UNL1       -0.0336
     12 C          -1.0054   -1.9799    0.4496 C.3     1  UNL1       -0.0232
     13 C          -0.7431   -3.4302    0.6586 C.3     1  UNL1       -0.0230
     14 C           0.6242   -3.6985    0.1267 C.3     1  UNL1        0.0565
     15 O           1.6306   -3.4752    1.0484 O.3     1  UNL1       -0.3917
     16 C           0.7575   -2.6219   -0.9571 C.3     1  UNL1       -0.0126
     17 C           0.0977   -1.3966   -0.3976 C.3     1  UNL1        0.0538
     18 C           0.9753   -0.5800    0.4408 C.2     1  UNL1        0.2224
     19 O           0.6820   -0.4785    1.6820 O.2     1  UNL1       -0.2750
     20 N           2.1307    0.1064   -0.0317 N.am    1  UNL1       -0.2963
     21 C           2.5921    0.0928   -1.3920 C.3     1  UNL1        0.0204
     22 C           3.9882   -0.5480   -1.3447 C.3     1  UNL1        0.0058
     23 C           4.8078    0.4483   -0.5714 C.ar    1  UNL1        0.0474
     24 N           6.0834    0.7131   -0.9111 N.ar    1  UNL1       -0.2590
     25 C           6.8511    1.5986   -0.2479 C.ar    1  UNL1        0.0395
     26 C           6.3753    2.3043    0.8394 C.ar    1  UNL1        0.0732
     27 C           7.2228    3.2868    1.5777 C.3     1  UNL1        0.4188
     28 F           7.8558    2.7197    2.6626 F       1  UNL1       -0.1658
     29 F           8.2248    3.7988    0.7624 F       1  UNL1       -0.1658
     30 F           6.4890    4.3540    2.0287 F       1  UNL1       -0.1658
     31 C           5.0714    2.0527    1.2091 C.ar    1  UNL1       -0.0423
     32 C           4.2938    1.1313    0.5085 C.ar    1  UNL1       -0.0083
     33 C           2.9029    0.8730    0.9189 C.3     1  UNL1        0.0414
     34 C          -0.5410   -0.5535   -1.4755 C.3     1  UNL1       -0.0232
     35 H          -6.2648    0.9096   -2.8428 H       1  UNL1        0.0524
     36 H          -5.8536    2.6075   -3.1687 H       1  UNL1        0.0524
     37 H          -4.5561    1.4090   -3.3268 H       1  UNL1        0.0524
     38 H          -4.7817   -0.0496   -1.3926 H       1  UNL1        0.0634
     39 H          -6.8127    0.3189   -0.1545 H       1  UNL1        0.0586
     40 H          -5.5253   -0.6239    0.7096 H       1  UNL1        0.0586
     41 H          -4.5091    2.3202    2.3649 H       1  UNL1        0.0560
     42 H          -4.9374    0.7700    3.2062 H       1  UNL1        0.0560
     43 H          -3.7244   -0.4923    1.7330 H       1  UNL1        0.0303
     44 H          -2.6763    0.9074    2.0226 H       1  UNL1        0.0303
     45 H          -3.4783    2.1495    0.1925 H       1  UNL1        0.0487
     46 H          -1.7585    1.4128   -0.9118 H       1  UNL1        0.1225
     47 H          -2.5095   -0.5683   -2.2171 H       1  UNL1        0.0461
     48 H          -2.1135   -2.6620   -1.2623 H       1  UNL1        0.0283
     49 H          -3.0993   -2.0155    0.1448 H       1  UNL1        0.0283
     50 H          -1.1630   -1.4719    1.4000 H       1  UNL1        0.0312
     51 H          -1.4581   -4.0787    0.1107 H       1  UNL1        0.0293
     52 H          -0.7555   -3.7183    1.7375 H       1  UNL1        0.0293
     53 H           0.7402   -4.7080   -0.3103 H       1  UNL1        0.0593
     54 H           1.1977   -3.4108    1.9463 H       1  UNL1        0.2098
     55 H           0.2488   -2.9575   -1.8739 H       1  UNL1        0.0300
     56 H           1.8475   -2.5298   -1.1200 H       1  UNL1        0.0300
     57 H           2.7899    1.1741   -1.6584 H       1  UNL1        0.0468
     58 H           1.9512   -0.3794   -2.1240 H       1  UNL1        0.0468
     59 H           4.3858   -0.7105   -2.3463 H       1  UNL1        0.0344
     60 H           3.9561   -1.4586   -0.7157 H       1  UNL1        0.0344
     61 H           7.8875    1.7942   -0.5470 H       1  UNL1        0.0835
     62 H           4.6678    2.5996    2.0705 H       1  UNL1        0.0627
     63 H           2.8431    0.4238    1.9494 H       1  UNL1        0.0514
     64 H           2.3933    1.8679    1.0165 H       1  UNL1        0.0514
     65 H          -0.3295   -1.0217   -2.4435 H       1  UNL1        0.0290
     66 H          -0.1629    0.4689   -1.4502 H       1  UNL1        0.0290
@<TRIPOS>BOND
     1     1     2    1
     2     2     3    1
     3     3     4    1
     4     4     5    1
     5     5     6    1
     6     6     7    1
     7     7     8    1
     8     8     9    1
     9     9    10    1
    10    10    11    1
    11    11    12    1
    12    12    13    1
    13    13    14    1
    14    14    15    1
    15    14    16    1
    16    16    17    1
    17    17    18    1
    18    18    19    2
    19    18    20   am
    20    20    21    1
    21    21    22    1
    22    22    23    1
    23    23    24   ar
    24    24    25   ar
    25    25    26   ar
    26    26    27    1
    27    27    28    1
    28    27    29    1
    29    27    30    1
    30    26    31   ar
    31    31    32   ar
    32    32    33    1
    33    17    34    1
    34     8     3    1
    35    34    10    1
    36    17    12    1
    37    33    20    1
    38    32    23   ar
    39     1    35    1
    40     1    36    1
    41     1    37    1
    42     3    38    1
    43     4    39    1
    44     4    40    1
    45     6    41    1
    46     6    42    1
    47     7    43    1
    48     7    44    1
    49     8    45    1
    50     9    46    1
    51    10    47    1
    52    11    48    1
    53    11    49    1
    54    12    50    1
    55    13    51    1
    56    13    52    1
    57    14    53    1
    58    15    54    1
    59    16    55    1
    60    16    56    1
    61    21    57    1
    62    21    58    1
    63    22    59    1
    64    22    60    1
    65    25    61    1
    66    31    62    1
    67    33    63    1
    68    33    64    1
    69    34    65    1
    70    34    66    1
