
     RDKit          3D

 63 66  0  0  0  0  0  0  0  0999 V2000
    3.7803    0.4573    1.6366 O   0  0  0  0  0  0  0  0  0  0  0  0
    4.6309   -0.0571    0.8681 C   0  0  0  0  0  0  0  0  0  0  0  0
    4.1378   -1.0052   -0.0677 N   0  0  0  0  0  0  0  0  0  0  0  0
    2.7289   -1.3768   -0.1512 C   0  0  2  0  0  0  0  0  0  0  0  0
    2.4796   -2.8084    0.1618 C   0  0  0  0  0  0  0  0  0  0  0  0
    2.4783   -3.6931   -0.9541 N   0  0  0  0  0  0  0  0  0  0  0  0
    1.6524   -3.2402   -2.0508 C   0  0  0  0  0  0  0  0  0  0  0  0
    2.2227   -1.9427   -2.5480 C   0  0  0  0  0  0  0  0  0  0  0  0
    2.1247   -0.9211   -1.4644 C   0  0  1  0  0  0  0  0  0  0  0  0
    0.7558   -0.6378   -1.2336 O   0  0  0  0  0  0  0  0  0  0  0  0
    0.2383    0.6499   -1.3534 C   0  0  0  0  0  0  0  0  0  0  0  0
    1.0401    1.5615   -1.6776 O   0  0  0  0  0  0  0  0  0  0  0  0
   -1.1769    0.9055   -1.1081 C   0  0  0  0  0  0  0  0  0  0  0  0
   -1.6923    2.1755   -1.2256 C   0  0  0  0  0  0  0  0  0  0  0  0
   -3.0151    2.4063   -0.9938 C   0  0  0  0  0  0  0  0  0  0  0  0
   -3.5104    3.7067   -1.1208 O   0  0  0  0  0  0  0  0  0  0  0  0
   -3.9311    1.4120   -0.6300 C   0  0  0  0  0  0  0  0  0  0  0  0
   -5.3372    1.7095   -0.5080 C   0  0  0  0  0  0  0  0  0  0  0  0
   -5.8154    2.7342   -1.1245 O   0  0  0  0  0  0  0  0  0  0  0  0
   -6.2778    0.9292    0.2552 C   0  0  0  0  0  0  0  0  0  0  0  0
   -7.5348    0.7302   -0.3795 C   0  0  0  0  0  0  0  0  0  0  0  0
   -7.7757    1.2513   -1.6523 O   0  0  0  0  0  0  0  0  0  0  0  0
   -8.4922    0.0232    0.2803 C   0  0  0  0  0  0  0  0  0  0  0  0
   -8.2473   -0.4860    1.5321 C   0  0  0  0  0  0  0  0  0  0  0  0
   -7.0532   -0.3029    2.1564 C   0  0  0  0  0  0  0  0  0  0  0  0
   -6.0476    0.4283    1.4965 C   0  0  0  0  0  0  0  0  0  0  0  0
   -4.8784    0.7827    2.3044 C   0  0  0  0  0  0  0  0  0  0  0  0
   -4.7062    0.1632    3.4156 O   0  0  0  0  0  0  0  0  0  0  0  0
   -3.9433    1.7185    2.0066 O   0  0  0  0  0  0  0  0  0  0  0  0
   -3.3944    0.1265   -0.5161 C   0  0  0  0  0  0  0  0  0  0  0  0
   -4.2303   -0.9234   -0.1677 O   0  0  0  0  0  0  0  0  0  0  0  0
   -2.0464   -0.0951   -0.7538 C   0  0  0  0  0  0  0  0  0  0  0  0
    6.0286    0.3322    0.9738 C   0  0  0  0  0  0  0  0  0  0  0  0
    7.0126   -0.1903    0.1641 C   0  0  0  0  0  0  0  0  0  0  0  0
    8.3434    0.2179    0.3061 C   0  0  0  0  0  0  0  0  0  0  0  0
    8.7161    1.1473    1.2503 C   0  0  0  0  0  0  0  0  0  0  0  0
   10.0499    1.5404    1.3748 O   0  0  0  0  0  0  0  0  0  0  0  0
    7.7306    1.6699    2.0605 C   0  0  0  0  0  0  0  0  0  0  0  0
    6.4221    1.2616    1.9132 C   0  0  0  0  0  0  0  0  0  0  0  0
    4.8346   -1.4398   -0.7117 H   0  0  0  0  0  0  0  0  0  0  0  0
    2.2135   -0.7729    0.6374 H   0  0  0  0  0  0  0  0  0  0  0  0
    1.4923   -2.9234    0.6877 H   0  0  0  0  0  0  0  0  0  0  0  0
    3.2363   -3.1639    0.8882 H   0  0  0  0  0  0  0  0  0  0  0  0
    2.0518   -4.6092   -0.6249 H   0  0  0  0  0  0  0  0  0  0  0  0
    0.6499   -3.0455   -1.6533 H   0  0  0  0  0  0  0  0  0  0  0  0
    1.6121   -4.0177   -2.8139 H   0  0  0  0  0  0  0  0  0  0  0  0
    1.5937   -1.6060   -3.3918 H   0  0  0  0  0  0  0  0  0  0  0  0
    3.2477   -2.0644   -2.9531 H   0  0  0  0  0  0  0  0  0  0  0  0
    2.6148    0.0363   -1.7325 H   0  0  0  0  0  0  0  0  0  0  0  0
   -1.0398    3.0165   -1.5081 H   0  0  0  0  0  0  0  0  0  0  0  0
   -3.5059    4.2961   -0.2842 H   0  0  0  0  0  0  0  0  0  0  0  0
   -8.0013    2.2451   -1.7929 H   0  0  0  0  0  0  0  0  0  0  0  0
   -9.4539   -0.1266   -0.2107 H   0  0  0  0  0  0  0  0  0  0  0  0
   -9.0156   -1.0500    2.0472 H   0  0  0  0  0  0  0  0  0  0  0  0
   -6.8732   -0.7167    3.1569 H   0  0  0  0  0  0  0  0  0  0  0  0
   -3.0318    1.7342    2.4788 H   0  0  0  0  0  0  0  0  0  0  0  0
   -4.6660   -1.4910   -0.9082 H   0  0  0  0  0  0  0  0  0  0  0  0
   -1.6868   -1.1292   -0.6458 H   0  0  0  0  0  0  0  0  0  0  0  0
    6.7901   -0.9101   -0.5828 H   0  0  0  0  0  0  0  0  0  0  0  0
    9.1262   -0.1878   -0.3270 H   0  0  0  0  0  0  0  0  0  0  0  0
   10.6594    1.4661    0.5624 H   0  0  0  0  0  0  0  0  0  0  0  0
    8.0220    2.4083    2.8118 H   0  0  0  0  0  0  0  0  0  0  0  0
    5.6631    1.6908    2.5668 H   0  0  0  0  0  0  0  0  0  0  0  0
  1  2  2  0
  2  3  1  0
  3  4  1  0
  4  5  1  0
  5  6  1  0
  6  7  1  0
  7  8  1  0
  8  9  1  0
  9 10  1  0
 10 11  1  0
 11 12  2  0
 11 13  1  0
 13 14  2  0
 14 15  1  0
 15 16  1  0
 15 17  2  0
 17 18  1  0
 18 19  2  0
 18 20  1  0
 20 21  2  0
 21 22  1  0
 21 23  1  0
 23 24  2  0
 24 25  1  0
 25 26  2  0
 26 27  1  0
 27 28  2  0
 27 29  1  0
 17 30  1  0
 30 31  1  0
 30 32  2  0
  2 33  1  0
 33 34  2  0
 34 35  1  0
 35 36  2  0
 36 37  1  0
 36 38  1  0
 38 39  2  0
  9  4  1  0
 32 13  1  0
 39 33  1  0
 26 20  1  0
  3 40  1  0
  4 41  1  1
  5 42  1  0
  5 43  1  0
  6 44  1  0
  7 45  1  0
  7 46  1  0
  8 47  1  0
  8 48  1  0
  9 49  1  6
 14 50  1  0
 16 51  1  0
 22 52  1  0
 23 53  1  0
 24 54  1  0
 25 55  1  0
 29 56  1  0
 31 57  1  0
 32 58  1  0
 34 59  1  0
 35 60  1  0
 37 61  1  0
 38 62  1  0
 39 63  1  0
M  END
$$$$
