@<TRIPOS>MOLECULE
*****
 63 66 0 0 0
SMALL
GASTEIGER

@<TRIPOS>ATOM
      1 O           3.7803    0.4573    1.6366 O.2     1  UNL1       -0.2702
      2 C           4.6309   -0.0571    0.8681 C.2     1  UNL1        0.2444
      3 N           4.1378   -1.0052   -0.0677 N.am    1  UNL1       -0.3037
      4 C           2.7289   -1.3768   -0.1512 C.3     1  UNL1        0.0728
      5 C           2.4796   -2.8084    0.1618 C.3     1  UNL1        0.0178
      6 N           2.4783   -3.6931   -0.9541 N.3     1  UNL1       -0.3140
      7 C           1.6524   -3.2402   -2.0508 C.3     1  UNL1       -0.0006
      8 C           2.2227   -1.9427   -2.5480 C.3     1  UNL1       -0.0013
      9 C           2.1247   -0.9211   -1.4644 C.3     1  UNL1        0.1239
     10 O           0.7558   -0.6378   -1.2336 O.3     1  UNL1       -0.4559
     11 C           0.2383    0.6499   -1.3534 C.2     1  UNL1        0.3397
     12 O           1.0401    1.5615   -1.6776 O.2     1  UNL1       -0.2449
     13 C          -1.1769    0.9055   -1.1081 C.ar    1  UNL1        0.0659
     14 C          -1.6923    2.1755   -1.2256 C.ar    1  UNL1       -0.0053
     15 C          -3.0151    2.4063   -0.9938 C.ar    1  UNL1        0.1320
     16 O          -3.5104    3.7067   -1.1208 O.3     1  UNL1       -0.5059
     17 C          -3.9311    1.4120   -0.6300 C.ar    1  UNL1        0.1050
     18 C          -5.3372    1.7095   -0.5080 C.2     1  UNL1        0.2044
     19 O          -5.8154    2.7342   -1.1245 O.2     1  UNL1       -0.2863
     20 C          -6.2778    0.9292    0.2552 C.ar    1  UNL1        0.0778
     21 C          -7.5348    0.7302   -0.3795 C.ar    1  UNL1        0.1285
     22 O          -7.7757    1.2513   -1.6523 O.3     1  UNL1       -0.5060
     23 C          -8.4922    0.0232    0.2803 C.ar    1  UNL1       -0.0194
     24 C          -8.2473   -0.4860    1.5321 C.ar    1  UNL1       -0.0575
     25 C          -7.0532   -0.3029    2.1564 C.ar    1  UNL1       -0.0468
     26 C          -6.0476    0.4283    1.4965 C.ar    1  UNL1        0.0731
     27 C          -4.8784    0.7827    2.3044 C.2     1  UNL1        0.3376
     28 O          -4.7062    0.1632    3.4156 O.2     1  UNL1       -0.2451
     29 O          -3.9433    1.7185    2.0066 O.3     1  UNL1       -0.4771
     30 C          -3.3944    0.1265   -0.5161 C.ar    1  UNL1        0.1320
     31 O          -4.2303   -0.9234   -0.1677 O.3     1  UNL1       -0.5059
     32 C          -2.0464   -0.0951   -0.7538 C.ar    1  UNL1       -0.0053
     33 C           6.0286    0.3322    0.9738 C.ar    1  UNL1        0.0369
     34 C           7.0126   -0.1903    0.1641 C.ar    1  UNL1       -0.0462
     35 C           8.3434    0.2179    0.3061 C.ar    1  UNL1       -0.0195
     36 C           8.7161    1.1473    1.2503 C.ar    1  UNL1        0.1169
     37 O          10.0499    1.5404    1.3748 O.3     1  UNL1       -0.5068
     38 C           7.7306    1.6699    2.0605 C.ar    1  UNL1       -0.0195
     39 C           6.4221    1.2616    1.9132 C.ar    1  UNL1       -0.0462
     40 H           4.8346   -1.4398   -0.7117 H       1  UNL1        0.1495
     41 H           2.2135   -0.7729    0.6374 H       1  UNL1        0.0547
     42 H           1.4923   -2.9234    0.6877 H       1  UNL1        0.0443
     43 H           3.2363   -3.1639    0.8882 H       1  UNL1        0.0443
     44 H           2.0518   -4.6092   -0.6249 H       1  UNL1        0.1220
     45 H           0.6499   -3.0455   -1.6533 H       1  UNL1        0.0425
     46 H           1.6121   -4.0177   -2.8139 H       1  UNL1        0.0425
     47 H           1.5937   -1.6060   -3.3918 H       1  UNL1        0.0314
     48 H           3.2477   -2.0644   -2.9531 H       1  UNL1        0.0314
     49 H           2.6148    0.0363   -1.7325 H       1  UNL1        0.0753
     50 H          -1.0398    3.0165   -1.5081 H       1  UNL1        0.0662
     51 H          -3.5059    4.2961   -0.2842 H       1  UNL1        0.2922
     52 H          -8.0013    2.2451   -1.7929 H       1  UNL1        0.2922
     53 H          -9.4539   -0.1266   -0.2107 H       1  UNL1        0.0654
     54 H          -9.0156   -1.0500    2.0472 H       1  UNL1        0.0619
     55 H          -6.8732   -0.7167    3.1569 H       1  UNL1        0.0626
     56 H          -3.0318    1.7342    2.4788 H       1  UNL1        0.2954
     57 H          -4.6660   -1.4910   -0.9082 H       1  UNL1        0.2922
     58 H          -1.6868   -1.1292   -0.6458 H       1  UNL1        0.0662
     59 H           6.7901   -0.9101   -0.5828 H       1  UNL1        0.0626
     60 H           9.1262   -0.1878   -0.3270 H       1  UNL1        0.0654
     61 H          10.6594    1.4661    0.5624 H       1  UNL1        0.2921
     62 H           8.0220    2.4083    2.8118 H       1  UNL1        0.0654
     63 H           5.6631    1.6908    2.5668 H       1  UNL1        0.0626
@<TRIPOS>BOND
     1     1     2    2
     2     2     3   am
     3     3     4    1
     4     4     5    1
     5     5     6    1
     6     6     7    1
     7     7     8    1
     8     8     9    1
     9     9    10    1
    10    10    11    1
    11    11    12    2
    12    11    13    1
    13    13    14   ar
    14    14    15   ar
    15    15    16    1
    16    15    17   ar
    17    17    18    1
    18    18    19    2
    19    18    20    1
    20    20    21   ar
    21    21    22    1
    22    21    23   ar
    23    23    24   ar
    24    24    25   ar
    25    25    26   ar
    26    26    27    1
    27    27    28    2
    28    27    29    1
    29    17    30   ar
    30    30    31    1
    31    30    32   ar
    32     2    33    1
    33    33    34   ar
    34    34    35   ar
    35    35    36   ar
    36    36    37    1
    37    36    38   ar
    38    38    39   ar
    39     9     4    1
    40    32    13   ar
    41    39    33   ar
    42    26    20   ar
    43     3    40    1
    44     4    41    1
    45     5    42    1
    46     5    43    1
    47     6    44    1
    48     7    45    1
    49     7    46    1
    50     8    47    1
    51     8    48    1
    52     9    49    1
    53    14    50    1
    54    16    51    1
    55    22    52    1
    56    23    53    1
    57    24    54    1
    58    25    55    1
    59    29    56    1
    60    31    57    1
    61    32    58    1
    62    34    59    1
    63    35    60    1
    64    37    61    1
    65    38    62    1
    66    39    63    1
