@<TRIPOS>MOLECULE
*****
 35 36 0 0 0
SMALL
GASTEIGER

@<TRIPOS>ATOM
      1 C           1.0853   -1.8346    1.4575 C.3     1  UNL1        0.1333
      2 F           0.7841   -2.1883    2.7597 F       1  UNL1       -0.2426
      3 C          -0.2448   -1.7240    0.7332 C.3     1  UNL1        0.0265
      4 C          -0.6781   -0.3563    1.2211 C.3     1  UNL1        0.1425
      5 O           0.4906    0.3758    1.0278 O.3     1  UNL1       -0.3480
      6 C           1.5379   -0.3935    1.4524 C.3     1  UNL1        0.1159
      7 C           2.7402   -0.3016    0.5133 C.3     1  UNL1        0.0880
      8 O           3.2358    0.9715    0.3855 O.3     1  UNL1       -0.2841
      9 P           4.5669    1.0513   -0.6586 P.3     1  UNL1        0.4724
     10 O           5.2477    2.5972   -0.5386 O.3     1  UNL1       -0.3026
     11 O           5.7435   -0.0979   -0.1922 O.3     1  UNL1       -0.3026
     12 O           4.1570    0.8716   -2.0997 O.2     1  UNL1       -0.2275
     13 N          -1.7937    0.1874    0.5254 N.ar    1  UNL1       -0.2737
     14 C          -2.5900   -0.4548   -0.3498 C.ar    1  UNL1        0.0199
     15 C          -3.6518    0.1336   -0.9859 C.ar    1  UNL1        0.0302
     16 C          -4.4994   -0.6229   -1.9442 C.3     1  UNL1       -0.0332
     17 C          -3.9461    1.4664   -0.7324 C.ar    1  UNL1        0.2568
     18 O          -4.8941    2.0468   -1.2801 O.2     1  UNL1       -0.2674
     19 N          -3.1238    2.0617    0.1464 N.ar    1  UNL1       -0.2747
     20 C          -2.0745    1.4811    0.7754 C.ar    1  UNL1        0.3313
     21 O          -1.4191    2.2066    1.5681 O.2     1  UNL1       -0.2464
     22 H           1.7740   -2.5333    0.9656 H       1  UNL1        0.0679
     23 H          -0.9585   -2.5171    1.0363 H       1  UNL1        0.0338
     24 H          -0.0126   -1.7238   -0.3524 H       1  UNL1        0.0338
     25 H          -0.8355   -0.4865    2.3298 H       1  UNL1        0.0840
     26 H           1.8174   -0.0657    2.4841 H       1  UNL1        0.0649
     27 H           2.3305   -0.6122   -0.4917 H       1  UNL1        0.0592
     28 H           3.4939   -1.0759    0.7584 H       1  UNL1        0.0592
     29 H           5.4925    2.8484    0.3825 H       1  UNL1        0.2220
     30 H           6.0800   -0.5637   -0.9934 H       1  UNL1        0.2220
     31 H          -2.3333   -1.4947   -0.5259 H       1  UNL1        0.0816
     32 H          -4.3819   -1.7180   -1.8140 H       1  UNL1        0.0280
     33 H          -4.2407   -0.2934   -2.9546 H       1  UNL1        0.0280
     34 H          -5.5528   -0.3236   -1.7181 H       1  UNL1        0.0280
     35 H          -3.3467    3.0824    0.3426 H       1  UNL1        0.1734
@<TRIPOS>BOND
     1     1     2    1
     2     1     3    1
     3     3     4    1
     4     4     5    1
     5     5     6    1
     6     6     7    1
     7     7     8    1
     8     8     9    1
     9     9    10    1
    10     9    11    1
    11     9    12    2
    12     4    13    1
    13    13    14   ar
    14    14    15   ar
    15    15    16    1
    16    15    17   ar
    17    17    18    2
    18    17    19   ar
    19    19    20   ar
    20    20    21    2
    21     6     1    1
    22    20    13   ar
    23     1    22    1
    24     3    23    1
    25     3    24    1
    26     4    25    1
    27     6    26    1
    28     7    27    1
    29     7    28    1
    30    10    29    1
    31    11    30    1
    32    14    31    1
    33    16    32    1
    34    16    33    1
    35    16    34    1
    36    19    35    1
