
     RDKit          3D

 26 27  0  0  0  0  0  0  0  0999 V2000
   -3.3878    2.0825    0.6947 C   0  0  0  0  0  0  0  0  0  0  0  0
   -3.3813    0.6058    0.4644 C   0  0  0  0  0  0  0  0  0  0  0  0
   -4.4819   -0.0212    0.3957 O   0  0  0  0  0  0  0  0  0  0  0  0
   -2.1885   -0.1276    0.3186 N   0  0  0  0  0  0  0  0  0  0  0  0
   -2.0737   -1.5475    0.0943 C   0  0  0  0  0  0  0  0  0  0  0  0
   -0.7516   -1.6087   -0.6271 C   0  0  0  0  0  0  0  0  0  0  0  0
   -0.0501   -0.3970   -0.1506 C   0  0  0  0  0  0  0  0  0  0  0  0
    1.3911   -0.1485   -0.2578 C   0  0  0  0  0  0  0  0  0  0  0  0
    2.2120   -1.0993   -0.8483 C   0  0  0  0  0  0  0  0  0  0  0  0
    3.5590   -0.8548   -0.9425 C   0  0  0  0  0  0  0  0  0  0  0  0
    4.1017    0.3119   -0.4628 C   0  0  0  0  0  0  0  0  0  0  0  0
    5.9812    0.6007   -0.6197 Br  0  0  0  0  0  0  0  0  0  0  0  0
    3.2668    1.2428    0.1202 C   0  0  0  0  0  0  0  0  0  0  0  0
    1.9103    1.0284    0.2306 C   0  0  0  0  0  0  0  0  0  0  0  0
   -0.8980    0.3909    0.3653 N   0  0  0  0  0  0  0  0  0  0  0  0
   -3.7185    2.3547    1.7007 H   0  0  0  0  0  0  0  0  0  0  0  0
   -2.3493    2.4415    0.4977 H   0  0  0  0  0  0  0  0  0  0  0  0
   -4.0982    2.4987   -0.0585 H   0  0  0  0  0  0  0  0  0  0  0  0
   -2.9071   -1.9607   -0.4989 H   0  0  0  0  0  0  0  0  0  0  0  0
   -1.9830   -2.0411    1.0890 H   0  0  0  0  0  0  0  0  0  0  0  0
   -0.1958   -2.5451   -0.4165 H   0  0  0  0  0  0  0  0  0  0  0  0
   -0.9254   -1.4928   -1.7214 H   0  0  0  0  0  0  0  0  0  0  0  0
    1.7806   -2.0347   -1.2334 H   0  0  0  0  0  0  0  0  0  0  0  0
    4.2067   -1.6115   -1.4116 H   0  0  0  0  0  0  0  0  0  0  0  0
    3.7068    2.1459    0.4884 H   0  0  0  0  0  0  0  0  0  0  0  0
    1.2741    1.7868    0.6986 H   0  0  0  0  0  0  0  0  0  0  0  0
  1  2  1  0
  2  3  2  0
  2  4  1  0
  4  5  1  0
  5  6  1  0
  6  7  1  0
  7  8  1  0
  8  9  2  0
  9 10  1  0
 10 11  2  0
 11 12  1  0
 11 13  1  0
 13 14  2  0
  7 15  2  0
 15  4  1  0
 14  8  1  0
  1 16  1  0
  1 17  1  0
  1 18  1  0
  5 19  1  0
  5 20  1  0
  6 21  1  0
  6 22  1  0
  9 23  1  0
 10 24  1  0
 13 25  1  0
 14 26  1  0
M  END
$$$$
