@<TRIPOS>MOLECULE
*****
 26 27 0 0 0
SMALL
GASTEIGER

@<TRIPOS>ATOM
      1 C          -3.3878    2.0825    0.6947 C.3     1  UNL1        0.0140
      2 C          -3.3813    0.6058    0.4644 C.2     1  UNL1        0.2317
      3 O          -4.4819   -0.0212    0.3957 O.2     1  UNL1       -0.2742
      4 N          -2.1885   -0.1276    0.3186 N.am    1  UNL1       -0.1928
      5 C          -2.0737   -1.5475    0.0943 C.3     1  UNL1        0.0433
      6 C          -0.7516   -1.6087   -0.6271 C.3     1  UNL1        0.0094
      7 C          -0.0501   -0.3970   -0.1506 C.2     1  UNL1        0.0682
      8 C           1.3911   -0.1485   -0.2578 C.ar    1  UNL1       -0.0021
      9 C           2.2120   -1.0993   -0.8483 C.ar    1  UNL1       -0.0518
     10 C           3.5590   -0.8548   -0.9425 C.ar    1  UNL1       -0.0471
     11 C           4.1017    0.3119   -0.4628 C.ar    1  UNL1        0.0179
     12 BR          5.9812    0.6007   -0.6197 Br      1  UNL1       -0.0503
     13 C           3.2668    1.2428    0.1202 C.ar    1  UNL1       -0.0471
     14 C           1.9103    1.0284    0.2306 C.ar    1  UNL1       -0.0518
     15 N          -0.8980    0.3909    0.3653 N.2     1  UNL1       -0.1815
     16 H          -3.7185    2.3547    1.7007 H       1  UNL1        0.0323
     17 H          -2.3493    2.4415    0.4977 H       1  UNL1        0.0323
     18 H          -4.0982    2.4987   -0.0585 H       1  UNL1        0.0323
     19 H          -2.9071   -1.9607   -0.4989 H       1  UNL1        0.0489
     20 H          -1.9830   -2.0411    1.0890 H       1  UNL1        0.0489
     21 H          -0.1958   -2.5451   -0.4165 H       1  UNL1        0.0345
     22 H          -0.9254   -1.4928   -1.7214 H       1  UNL1        0.0345
     23 H           1.7806   -2.0347   -1.2334 H       1  UNL1        0.0624
     24 H           4.2067   -1.6115   -1.4116 H       1  UNL1        0.0629
     25 H           3.7068    2.1459    0.4884 H       1  UNL1        0.0629
     26 H           1.2741    1.7868    0.6986 H       1  UNL1        0.0624
@<TRIPOS>BOND
     1     1     2    1
     2     2     3    2
     3     2     4   am
     4     4     5    1
     5     5     6    1
     6     6     7    1
     7     7     8    1
     8     8     9   ar
     9     9    10   ar
    10    10    11   ar
    11    11    12    1
    12    11    13   ar
    13    13    14   ar
    14     7    15    2
    15    15     4    1
    16    14     8   ar
    17     1    16    1
    18     1    17    1
    19     1    18    1
    20     5    19    1
    21     5    20    1
    22     6    21    1
    23     6    22    1
    24     9    23    1
    25    10    24    1
    26    13    25    1
    27    14    26    1
