@<TRIPOS>MOLECULE
*****
 43 46 0 0 0
SMALL
GASTEIGER

@<TRIPOS>ATOM
      1 C           5.1386    2.9594   -0.9995 C.3     1  UNL1        0.0302
      2 N           4.2555    1.9090   -1.4614 N.ar    1  UNL1       -0.2741
      3 C           3.4184    1.2431   -0.6547 C.ar    1  UNL1        0.0308
      4 C           2.7058    0.3031   -1.3776 C.ar    1  UNL1        0.0185
      5 C           1.6814   -0.6307   -0.8404 C.3     1  UNL1        0.0869
      6 C           1.3694   -0.2449    0.5570 C.3     1  UNL1       -0.0161
      7 C           0.0591   -0.8377    1.0743 C.3     1  UNL1        0.0027
      8 C          -0.1917   -0.1499    2.3861 C.3     1  UNL1        0.0064
      9 S          -1.5561    1.0225    2.2366 S.3     1  UNL1       -0.0907
     10 C          -1.3789    1.7186    0.6014 C.2     1  UNL1        0.1476
     11 N          -1.4927    3.0857    0.3198 N.pl3   1  UNL1       -0.3380
     12 N          -1.1318    0.8002   -0.2920 N.2     1  UNL1       -0.2495
     13 C          -1.0259   -0.5986    0.0821 C.3     1  UNL1        0.1185
     14 C          -2.3371   -1.1329    0.3249 C.ar    1  UNL1        0.0178
     15 C          -3.4468   -0.3281    0.1647 C.ar    1  UNL1       -0.0507
     16 C          -4.7427   -0.8100    0.3809 C.ar    1  UNL1       -0.0259
     17 C          -4.9630   -2.1121    0.7634 C.ar    1  UNL1        0.1261
     18 F          -6.2219   -2.5973    0.9782 F       1  UNL1       -0.2054
     19 C          -3.8778   -2.9337    0.9296 C.ar    1  UNL1        0.0091
     20 C          -2.6169   -2.4323    0.7101 C.ar    1  UNL1        0.1317
     21 F          -1.5799   -3.2605    0.8785 F       1  UNL1       -0.2050
     22 C          -0.5122   -1.2669   -1.2144 C.3     1  UNL1        0.0781
     23 O           0.6080   -0.6292   -1.7040 O.3     1  UNL1       -0.3691
     24 C           3.1637    0.4422   -2.6697 C.ar    1  UNL1        0.0550
     25 N           4.0910    1.4163   -2.6696 N.ar    1  UNL1       -0.1796
     26 H           5.6963    2.6063   -0.0900 H       1  UNL1        0.0473
     27 H           5.8617    3.2645   -1.7794 H       1  UNL1        0.0473
     28 H           4.5667    3.8535   -0.6565 H       1  UNL1        0.0473
     29 H           3.3069    1.4080    0.4124 H       1  UNL1        0.0830
     30 H           2.1467   -1.6574   -0.9205 H       1  UNL1        0.0647
     31 H           1.3559    0.8639    0.6187 H       1  UNL1        0.0297
     32 H           2.2199   -0.5613    1.2046 H       1  UNL1        0.0297
     33 H           0.1930   -1.9064    1.3339 H       1  UNL1        0.0337
     34 H           0.7251    0.3307    2.7986 H       1  UNL1        0.0384
     35 H          -0.5495   -0.9411    3.1154 H       1  UNL1        0.0384
     36 H          -2.1172    3.6546    0.9660 H       1  UNL1        0.1442
     37 H          -1.0295    3.5860   -0.4510 H       1  UNL1        0.1442
     38 H          -3.4162    0.7069   -0.1378 H       1  UNL1        0.0623
     39 H          -5.6077   -0.1768    0.2545 H       1  UNL1        0.0646
     40 H          -4.0279   -3.9777    1.2347 H       1  UNL1        0.0675
     41 H          -0.2593   -2.2998   -0.9340 H       1  UNL1        0.0588
     42 H          -1.2755   -1.2757   -1.9918 H       1  UNL1        0.0588
     43 H           2.7950   -0.1603   -3.4819 H       1  UNL1        0.0851
@<TRIPOS>BOND
     1     1     2    1
     2     2     3   ar
     3     3     4   ar
     4     4     5    1
     5     5     6    1
     6     6     7    1
     7     7     8    1
     8     8     9    1
     9     9    10    1
    10    10    11    1
    11    10    12    2
    12    12    13    1
    13    13    14    1
    14    14    15   ar
    15    15    16   ar
    16    16    17   ar
    17    17    18    1
    18    17    19   ar
    19    19    20   ar
    20    20    21    1
    21    13    22    1
    22    22    23    1
    23     4    24   ar
    24    24    25   ar
    25    25     2   ar
    26    23     5    1
    27    13     7    1
    28    20    14   ar
    29     1    26    1
    30     1    27    1
    31     1    28    1
    32     3    29    1
    33     5    30    1
    34     6    31    1
    35     6    32    1
    36     7    33    1
    37     8    34    1
    38     8    35    1
    39    11    36    1
    40    11    37    1
    41    15    38    1
    42    16    39    1
    43    19    40    1
    44    22    41    1
    45    22    42    1
    46    24    43    1
