
     RDKit          3D

 43 46  0  0  0  0  0  0  0  0999 V2000
    5.1386    2.9594   -0.9995 C   0  0  0  0  0  0  0  0  0  0  0  0
    4.2555    1.9090   -1.4614 N   0  0  0  0  0  0  0  0  0  0  0  0
    3.4184    1.2431   -0.6547 C   0  0  0  0  0  0  0  0  0  0  0  0
    2.7058    0.3031   -1.3776 C   0  0  0  0  0  0  0  0  0  0  0  0
    1.6814   -0.6307   -0.8404 C   0  0  1  0  0  0  0  0  0  0  0  0
    1.3694   -0.2449    0.5570 C   0  0  0  0  0  0  0  0  0  0  0  0
    0.0591   -0.8377    1.0743 C   0  0  1  0  0  0  0  0  0  0  0  0
   -0.1917   -0.1499    2.3861 C   0  0  0  0  0  0  0  0  0  0  0  0
   -1.5561    1.0225    2.2366 S   0  0  0  0  0  0  0  0  0  0  0  0
   -1.3789    1.7186    0.6014 C   0  0  0  0  0  0  0  0  0  0  0  0
   -1.4927    3.0857    0.3198 N   0  0  0  0  0  0  0  0  0  0  0  0
   -1.1318    0.8002   -0.2920 N   0  0  0  0  0  0  0  0  0  0  0  0
   -1.0259   -0.5986    0.0821 C   0  0  2  0  0  0  0  0  0  0  0  0
   -2.3371   -1.1329    0.3249 C   0  0  0  0  0  0  0  0  0  0  0  0
   -3.4468   -0.3281    0.1647 C   0  0  0  0  0  0  0  0  0  0  0  0
   -4.7427   -0.8100    0.3809 C   0  0  0  0  0  0  0  0  0  0  0  0
   -4.9630   -2.1121    0.7634 C   0  0  0  0  0  0  0  0  0  0  0  0
   -6.2219   -2.5973    0.9782 F   0  0  0  0  0  0  0  0  0  0  0  0
   -3.8778   -2.9337    0.9296 C   0  0  0  0  0  0  0  0  0  0  0  0
   -2.6169   -2.4323    0.7101 C   0  0  0  0  0  0  0  0  0  0  0  0
   -1.5799   -3.2605    0.8785 F   0  0  0  0  0  0  0  0  0  0  0  0
   -0.5122   -1.2669   -1.2144 C   0  0  0  0  0  0  0  0  0  0  0  0
    0.6080   -0.6292   -1.7040 O   0  0  0  0  0  0  0  0  0  0  0  0
    3.1637    0.4422   -2.6697 C   0  0  0  0  0  0  0  0  0  0  0  0
    4.0910    1.4163   -2.6696 N   0  0  0  0  0  0  0  0  0  0  0  0
    5.6963    2.6063   -0.0900 H   0  0  0  0  0  0  0  0  0  0  0  0
    5.8617    3.2645   -1.7794 H   0  0  0  0  0  0  0  0  0  0  0  0
    4.5667    3.8535   -0.6565 H   0  0  0  0  0  0  0  0  0  0  0  0
    3.3069    1.4080    0.4124 H   0  0  0  0  0  0  0  0  0  0  0  0
    2.1467   -1.6574   -0.9205 H   0  0  0  0  0  0  0  0  0  0  0  0
    1.3559    0.8639    0.6187 H   0  0  0  0  0  0  0  0  0  0  0  0
    2.2199   -0.5613    1.2046 H   0  0  0  0  0  0  0  0  0  0  0  0
    0.1930   -1.9064    1.3339 H   0  0  0  0  0  0  0  0  0  0  0  0
    0.7251    0.3307    2.7986 H   0  0  0  0  0  0  0  0  0  0  0  0
   -0.5495   -0.9411    3.1154 H   0  0  0  0  0  0  0  0  0  0  0  0
   -2.1172    3.6546    0.9660 H   0  0  0  0  0  0  0  0  0  0  0  0
   -1.0295    3.5860   -0.4510 H   0  0  0  0  0  0  0  0  0  0  0  0
   -3.4162    0.7069   -0.1378 H   0  0  0  0  0  0  0  0  0  0  0  0
   -5.6077   -0.1768    0.2545 H   0  0  0  0  0  0  0  0  0  0  0  0
   -4.0279   -3.9777    1.2347 H   0  0  0  0  0  0  0  0  0  0  0  0
   -0.2593   -2.2998   -0.9340 H   0  0  0  0  0  0  0  0  0  0  0  0
   -1.2755   -1.2757   -1.9918 H   0  0  0  0  0  0  0  0  0  0  0  0
    2.7950   -0.1603   -3.4819 H   0  0  0  0  0  0  0  0  0  0  0  0
  1  2  1  0
  2  3  1  0
  3  4  2  0
  4  5  1  0
  5  6  1  0
  6  7  1  0
  7  8  1  0
  8  9  1  0
  9 10  1  0
 10 11  1  0
 10 12  2  0
 12 13  1  0
 13 14  1  1
 14 15  2  0
 15 16  1  0
 16 17  2  0
 17 18  1  0
 17 19  1  0
 19 20  2  0
 20 21  1  0
 13 22  1  0
 22 23  1  0
  4 24  1  0
 24 25  2  0
 25  2  1  0
 23  5  1  0
 13  7  1  0
 20 14  1  0
  1 26  1  0
  1 27  1  0
  1 28  1  0
  3 29  1  0
  5 30  1  1
  6 31  1  0
  6 32  1  0
  7 33  1  1
  8 34  1  0
  8 35  1  0
 11 36  1  0
 11 37  1  0
 15 38  1  0
 16 39  1  0
 19 40  1  0
 22 41  1  0
 22 42  1  0
 24 43  1  0
M  END
$$$$
