@<TRIPOS>MOLECULE
*****
 47 50 0 0 0
SMALL
GASTEIGER

@<TRIPOS>ATOM
      1 C          -4.2549   -3.4739    1.0869 C.3     1  UNL1       -0.0455
      2 C          -4.7292   -2.1979    0.4710 C.3     1  UNL1        0.0387
      3 N          -3.6149   -1.4696   -0.0665 N.ar    1  UNL1       -0.2713
      4 C          -2.8787   -0.5595    0.6046 C.ar    1  UNL1        0.0332
      5 C          -1.9282   -0.1150   -0.2773 C.ar    1  UNL1        0.0480
      6 C          -0.8482    0.8924   -0.0657 C.3     1  UNL1        0.2674
      7 C           0.3326    0.1390    0.4282 C.ar    1  UNL1        0.0113
      8 C           0.2274   -0.4648    1.6565 C.ar    1  UNL1       -0.0540
      9 C           1.2616   -1.1793    2.1942 C.ar    1  UNL1       -0.0608
     10 C           2.4273   -1.2907    1.4840 C.ar    1  UNL1       -0.0539
     11 C           2.5656   -0.6967    0.2481 C.ar    1  UNL1       -0.0132
     12 C           3.8241   -0.8445   -0.4634 C.ar    1  UNL1        0.0365
     13 C           5.0723   -0.7019    0.1045 C.ar    1  UNL1       -0.0483
     14 C           6.2324   -0.8606   -0.6544 C.ar    1  UNL1       -0.0428
     15 C           6.1574   -1.1650   -1.9957 C.ar    1  UNL1        0.0307
     16 N           4.9315   -1.3002   -2.5318 N.ar    1  UNL1       -0.2271
     17 C           3.7871   -1.1489   -1.8064 C.ar    1  UNL1        0.2209
     18 F           2.5796   -1.2996   -2.4117 F       1  UNL1       -0.1832
     19 C           1.4994    0.0174   -0.2636 C.ar    1  UNL1       -0.0462
     20 N          -0.6321    1.5756   -1.2731 N.2     1  UNL1       -0.0890
     21 C          -0.8627    2.8215   -1.1661 C.2     1  UNL1        0.3731
     22 N          -0.7445    3.8268   -2.2040 N.pl3   1  UNL1       -0.2512
     23 N          -1.2720    3.1365    0.1553 N.am    1  UNL1       -0.1614
     24 C          -1.6277    4.4531    0.6833 C.3     1  UNL1        0.0573
     25 C          -1.2780    1.9310    0.8961 C.2     1  UNL1        0.3304
     26 O          -1.5800    1.7724    2.1016 O.2     1  UNL1       -0.2520
     27 C          -2.1040   -0.7707   -1.4872 C.ar    1  UNL1        0.0571
     28 N          -3.1549   -1.5909   -1.2988 N.ar    1  UNL1       -0.1792
     29 H          -3.6637   -3.2355    1.9744 H       1  UNL1        0.0247
     30 H          -3.6171   -4.0147    0.3630 H       1  UNL1        0.0247
     31 H          -5.1414   -4.1102    1.3176 H       1  UNL1        0.0247
     32 H          -5.4577   -2.3470   -0.3601 H       1  UNL1        0.0506
     33 H          -5.1965   -1.5844    1.2619 H       1  UNL1        0.0506
     34 H          -2.9953   -0.2334    1.6183 H       1  UNL1        0.0830
     35 H          -0.7002   -0.3875    2.2460 H       1  UNL1        0.0622
     36 H           1.1932   -1.6617    3.1631 H       1  UNL1        0.0618
     37 H           3.2661   -1.8497    1.8810 H       1  UNL1        0.0624
     38 H           5.1113   -0.4631    1.1578 H       1  UNL1        0.0625
     39 H           7.2104   -0.7508   -0.2179 H       1  UNL1        0.0633
     40 H           7.0580   -1.2936   -2.6090 H       1  UNL1        0.0830
     41 H           1.5885    0.4879   -1.2265 H       1  UNL1        0.0628
     42 H          -1.3460    3.8260   -3.0426 H       1  UNL1        0.2412
     43 H          -0.0317    4.5638   -2.0909 H       1  UNL1        0.2412
     44 H          -0.7184    5.0574    0.7443 H       1  UNL1        0.0602
     45 H          -2.0489    4.3434    1.6960 H       1  UNL1        0.0602
     46 H          -2.3853    4.8628   -0.0101 H       1  UNL1        0.0602
     47 H          -1.5135   -0.6456   -2.3969 H       1  UNL1        0.0852
@<TRIPOS>BOND
     1     1     2    1
     2     2     3    1
     3     3     4   ar
     4     4     5   ar
     5     6     5    1
     6     6     7    1
     7     7     8   ar
     8     8     9   ar
     9     9    10   ar
    10    10    11   ar
    11    11    12    1
    12    12    13   ar
    13    13    14   ar
    14    14    15   ar
    15    15    16   ar
    16    16    17   ar
    17    17    18    1
    18    11    19   ar
    19     6    20    1
    20    20    21    2
    21    21    22    1
    22    21    23    1
    23    23    24    1
    24    23    25   am
    25    25    26    2
    26     5    27   ar
    27    27    28   ar
    28    28     3   ar
    29    25     6    1
    30    19     7   ar
    31    17    12   ar
    32     1    29    1
    33     1    30    1
    34     1    31    1
    35     2    32    1
    36     2    33    1
    37     4    34    1
    38     8    35    1
    39     9    36    1
    40    10    37    1
    41    13    38    1
    42    14    39    1
    43    15    40    1
    44    19    41    1
    45    22    42    1
    46    22    43    1
    47    24    44    1
    48    24    45    1
    49    24    46    1
    50    27    47    1
