@<TRIPOS>MOLECULE
*****
 44 46 0 0 0
SMALL
GASTEIGER

@<TRIPOS>ATOM
      1 C           6.2297    1.5036    0.2903 C.3     1  UNL1        0.0788
      2 O           5.1439    2.2330    0.7779 O.3     1  UNL1       -0.4951
      3 C           3.8245    1.8146    0.7342 C.ar    1  UNL1        0.1208
      4 C           2.8302    2.6197    1.2473 C.ar    1  UNL1       -0.0180
      5 C           1.4995    2.2521    1.2295 C.ar    1  UNL1       -0.0337
      6 C           1.1087    1.0500    0.6911 C.ar    1  UNL1        0.0574
      7 C           2.1042    0.2598    0.1853 C.ar    1  UNL1        0.0077
      8 C           3.4497    0.6145    0.1949 C.ar    1  UNL1       -0.0105
      9 C           1.5239   -0.8621   -0.2923 C.ar    1  UNL1       -0.0080
     10 C           2.1787   -2.0203   -0.9373 C.3     1  UNL1        0.0721
     11 C           2.8593   -2.8803    0.0579 C.2     1  UNL1        0.3091
     12 O           2.8026   -2.5419    1.2660 O.2     1  UNL1       -0.2507
     13 O           3.5160   -4.0048   -0.4071 O.3     1  UNL1       -0.4804
     14 C           0.1517   -0.7686   -0.0801 C.ar    1  UNL1        0.0284
     15 C          -0.8301   -1.8384   -0.3978 C.3     1  UNL1       -0.0235
     16 N          -0.0933    0.4007    0.5174 N.ar    1  UNL1       -0.2801
     17 C          -1.2983    1.0210    0.8638 C.2     1  UNL1        0.2631
     18 O          -1.2264    2.0592    1.6429 O.2     1  UNL1       -0.2667
     19 C          -2.6533    0.6702    0.4719 C.ar    1  UNL1        0.0399
     20 C          -3.6795    0.7917    1.4164 C.ar    1  UNL1       -0.0489
     21 C          -5.0046    0.5643    1.1211 C.ar    1  UNL1       -0.0494
     22 C          -5.3858    0.1965   -0.1540 C.ar    1  UNL1        0.0549
     23 C          -6.8033   -0.0604   -0.5164 C.3     1  UNL1        0.4174
     24 F          -7.2025   -1.3355   -0.1753 F       1  UNL1       -0.1659
     25 F          -6.9118    0.1457   -1.8981 F       1  UNL1       -0.1659
     26 F          -7.6437    0.8804    0.0621 F       1  UNL1       -0.1659
     27 C          -4.3924    0.0726   -1.0969 C.ar    1  UNL1       -0.0494
     28 C          -3.0444    0.3063   -0.7913 C.ar    1  UNL1       -0.0489
     29 H           6.4671    1.8234   -0.7468 H       1  UNL1        0.0660
     30 H           6.0921    0.4079    0.2995 H       1  UNL1        0.0660
     31 H           7.1260    1.7187    0.9105 H       1  UNL1        0.0660
     32 H           3.1167    3.5567    1.6697 H       1  UNL1        0.0655
     33 H           0.8067    2.9519    1.6530 H       1  UNL1        0.0640
     34 H           4.1778   -0.0608   -0.2221 H       1  UNL1        0.0661
     35 H           1.4372   -2.5999   -1.5392 H       1  UNL1        0.0427
     36 H           2.9482   -1.6610   -1.6439 H       1  UNL1        0.0427
     37 H           4.0603   -4.5366    0.2427 H       1  UNL1        0.2951
     38 H          -1.1978   -1.7988   -1.4283 H       1  UNL1        0.0292
     39 H          -0.3041   -2.8329   -0.2710 H       1  UNL1        0.0292
     40 H          -1.6808   -1.8788    0.2954 H       1  UNL1        0.0292
     41 H          -3.3653    1.0844    2.4266 H       1  UNL1        0.0625
     42 H          -5.7819    0.6677    1.8791 H       1  UNL1        0.0623
     43 H          -4.6580   -0.2159   -2.1127 H       1  UNL1        0.0623
     44 H          -2.2974    0.2304   -1.5801 H       1  UNL1        0.0625
@<TRIPOS>BOND
     1     1     2    1
     2     2     3    1
     3     3     4   ar
     4     4     5   ar
     5     5     6   ar
     6     6     7   ar
     7     7     8   ar
     8     7     9   ar
     9     9    10    1
    10    10    11    1
    11    11    12    2
    12    11    13    1
    13     9    14   ar
    14    14    15    1
    15    14    16   ar
    16    16    17   am
    17    17    18    2
    18    17    19    1
    19    19    20   ar
    20    20    21   ar
    21    21    22   ar
    22    22    23    1
    23    23    24    1
    24    23    25    1
    25    23    26    1
    26    22    27   ar
    27    27    28   ar
    28     8     3   ar
    29    28    19   ar
    30    16     6   ar
    31     1    29    1
    32     1    30    1
    33     1    31    1
    34     4    32    1
    35     5    33    1
    36     8    34    1
    37    10    35    1
    38    10    36    1
    39    13    37    1
    40    15    38    1
    41    15    39    1
    42    15    40    1
    43    20    41    1
    44    21    42    1
    45    27    43    1
    46    28    44    1
