@<TRIPOS>MOLECULE
*****
 47 50 0 0 0
SMALL
GASTEIGER

@<TRIPOS>ATOM
      1 N           5.8692    1.6428   -1.5587 N.1     1  UNL1       -0.1946
      2 C           5.4028    1.1552   -0.6224 C.1     1  UNL1        0.0851
      3 C           4.8033    0.5574    0.5395 C.3     1  UNL1        0.1129
      4 C           5.7138   -0.5426    1.1297 C.3     1  UNL1       -0.0196
      5 C           5.0348   -1.8076    0.6114 C.3     1  UNL1       -0.0345
      6 C           3.5641   -1.4415    0.8855 C.3     1  UNL1        0.0160
      7 N           3.5552   -0.0839    0.2976 N.am    1  UNL1       -0.2846
      8 C           2.3769    0.4443   -0.2956 C.2     1  UNL1        0.2304
      9 O           2.4419    1.5257   -0.9354 O.2     1  UNL1       -0.2742
     10 C           1.0594   -0.2751   -0.1445 C.3     1  UNL1        0.0738
     11 N           0.0715    0.4586   -0.8428 N.3     1  UNL1       -0.3025
     12 C          -1.2962    0.2137   -0.5259 C.3     1  UNL1        0.0227
     13 C          -2.1336    0.9638   -1.5696 C.3     1  UNL1       -0.0316
     14 C          -3.5952    0.9384   -1.2649 C.3     1  UNL1       -0.0365
     15 C          -3.8493    1.5855    0.0542 C.3     1  UNL1       -0.0471
     16 C          -3.0750    0.8216    1.1069 C.3     1  UNL1       -0.0365
     17 C          -3.5099   -0.6248    1.1770 C.3     1  UNL1       -0.0210
     18 C          -3.2297   -1.2365   -0.1706 C.3     1  UNL1        0.0683
     19 O          -3.6721   -2.5666   -0.1435 O.3     1  UNL1       -0.3885
     20 C          -4.0734   -0.4968   -1.1755 C.3     1  UNL1       -0.0210
     21 C          -1.7520   -1.2034   -0.5130 C.3     1  UNL1       -0.0056
     22 C          -1.6032    0.8198    0.8475 C.3     1  UNL1       -0.0316
     23 H           4.7070    1.3554    1.3452 H       1  UNL1        0.0659
     24 H           6.7203   -0.4133    0.7138 H       1  UNL1        0.0294
     25 H           5.6908   -0.5339    2.2318 H       1  UNL1        0.0294
     26 H           5.1944   -1.9236   -0.4655 H       1  UNL1        0.0281
     27 H           5.3225   -2.6810    1.1810 H       1  UNL1        0.0281
     28 H           2.8900   -2.1008    0.3349 H       1  UNL1        0.0465
     29 H           3.4159   -1.3868    1.9692 H       1  UNL1        0.0465
     30 H           0.9181   -0.4597    0.9078 H       1  UNL1        0.0520
     31 H           1.2307   -1.2801   -0.6427 H       1  UNL1        0.0520
     32 H           0.2677    0.4263   -1.8724 H       1  UNL1        0.1229
     33 H          -1.7041    1.9507   -1.7334 H       1  UNL1        0.0286
     34 H          -1.9715    0.3572   -2.5143 H       1  UNL1        0.0286
     35 H          -4.1084    1.4911   -2.0505 H       1  UNL1        0.0302
     36 H          -4.9209    1.4971    0.3031 H       1  UNL1        0.0271
     37 H          -3.5399    2.6352    0.1147 H       1  UNL1        0.0271
     38 H          -3.2361    1.3146    2.1109 H       1  UNL1        0.0302
     39 H          -4.5912   -0.6880    1.3924 H       1  UNL1        0.0296
     40 H          -2.9330   -1.1658    1.9267 H       1  UNL1        0.0296
     41 H          -2.9139   -3.1551   -0.3743 H       1  UNL1        0.2102
     42 H          -4.1204   -0.9661   -2.1693 H       1  UNL1        0.0296
     43 H          -5.1125   -0.4297   -0.7332 H       1  UNL1        0.0296
     44 H          -1.6811   -1.6482   -1.5369 H       1  UNL1        0.0311
     45 H          -1.2483   -1.8421    0.2111 H       1  UNL1        0.0311
     46 H          -1.1437    0.1629    1.6126 H       1  UNL1        0.0286
     47 H          -1.2359    1.8667    0.8501 H       1  UNL1        0.0286
@<TRIPOS>BOND
     1     1     2    3
     2     2     3    1
     3     3     4    1
     4     4     5    1
     5     5     6    1
     6     6     7    1
     7     7     8   am
     8     8     9    2
     9     8    10    1
    10    10    11    1
    11    11    12    1
    12    12    13    1
    13    13    14    1
    14    14    15    1
    15    15    16    1
    16    16    17    1
    17    17    18    1
    18    18    19    1
    19    18    20    1
    20    18    21    1
    21    16    22    1
    22     7     3    1
    23    21    12    1
    24    22    12    1
    25    20    14    1
    26     3    23    1
    27     4    24    1
    28     4    25    1
    29     5    26    1
    30     5    27    1
    31     6    28    1
    32     6    29    1
    33    10    30    1
    34    10    31    1
    35    11    32    1
    36    13    33    1
    37    13    34    1
    38    14    35    1
    39    15    36    1
    40    15    37    1
    41    16    38    1
    42    17    39    1
    43    17    40    1
    44    19    41    1
    45    20    42    1
    46    20    43    1
    47    21    44    1
    48    21    45    1
    49    22    46    1
    50    22    47    1
