
     RDKit          3D

 81 84  0  0  0  0  0  0  0  0999 V2000
   -8.8920    4.3955   -1.1565 C   0  0  0  0  0  0  0  0  0  0  0  0
   -7.6708    3.7595   -1.4006 O   0  0  0  0  0  0  0  0  0  0  0  0
   -7.2111    2.7924   -0.5340 C   0  0  0  0  0  0  0  0  0  0  0  0
   -7.8950    2.3960    0.5936 C   0  0  0  0  0  0  0  0  0  0  0  0
   -7.4152    1.4282    1.4429 C   0  0  0  0  0  0  0  0  0  0  0  0
   -6.1935    0.8054    1.1810 C   0  0  0  0  0  0  0  0  0  0  0  0
   -5.7297   -0.1674    2.0473 O   0  0  0  0  0  0  0  0  0  0  0  0
   -6.4783   -0.5161    3.1686 C   0  0  0  0  0  0  0  0  0  0  0  0
   -5.4965    1.1961    0.0501 C   0  0  0  0  0  0  0  0  0  0  0  0
   -5.9874    2.1710   -0.7993 C   0  0  0  0  0  0  0  0  0  0  0  0
   -5.3056    2.5657   -1.9346 C   0  0  0  0  0  0  0  0  0  0  0  0
   -5.8129    3.5444   -2.7750 O   0  0  0  0  0  0  0  0  0  0  0  0
   -5.0711    3.9084   -3.9235 C   0  0  0  0  0  0  0  0  0  0  0  0
   -4.1104    1.9389   -2.1786 C   0  0  0  0  0  0  0  0  0  0  0  0
   -3.6069    0.9585   -1.3318 C   0  0  0  0  0  0  0  0  0  0  0  0
   -2.4080    0.3433   -1.5914 C   0  0  0  0  0  0  0  0  0  0  0  0
   -1.7697    0.6779   -2.6084 O   0  0  0  0  0  0  0  0  0  0  0  0
   -1.9166   -0.6452   -0.7205 C   0  0  0  0  0  0  0  0  0  0  0  0
   -0.6940   -1.2148   -1.0517 O   0  0  0  0  0  0  0  0  0  0  0  0
    0.5072   -0.5500   -0.6440 C   0  0  0  0  0  0  0  0  0  0  0  0
    1.7055   -1.3236   -1.1657 C   0  0  0  0  0  0  0  0  0  0  0  0
    1.8692   -2.5747   -0.7472 O   0  0  0  0  0  0  0  0  0  0  0  0
    2.1895   -2.9486    0.4724 C   0  0  0  0  0  0  0  0  0  0  0  0
    3.5911   -2.9766    0.9512 C   0  0  0  0  0  0  0  0  0  0  0  0
    4.4201   -1.9452    0.9698 O   0  0  0  0  0  0  0  0  0  0  0  0
    5.1091   -1.5508   -0.1399 C   0  0  0  0  0  0  0  0  0  0  0  0
    5.9202   -0.2888    0.1012 C   0  0  0  0  0  0  0  0  0  0  0  0
    6.6195    0.1240   -1.0151 O   0  0  0  0  0  0  0  0  0  0  0  0
    7.5349   -0.7876   -1.5012 C   0  0  0  0  0  0  0  0  0  0  0  0
    8.5758   -1.1479   -0.4936 C   0  0  0  0  0  0  0  0  0  0  0  0
    9.2837   -0.0097   -0.0989 O   0  0  0  0  0  0  0  0  0  0  0  0
   10.0358    0.7598   -0.9315 C   0  0  0  0  0  0  0  0  0  0  0  0
   10.1382    0.4694   -2.1486 O   0  0  0  0  0  0  0  0  0  0  0  0
   10.7607    1.9758   -0.4102 C   0  0  0  0  0  0  0  0  0  0  0  0
   10.5098    2.1261    1.0066 N   0  0  0  0  0  0  0  0  0  0  0  0
   -2.6261   -1.0019    0.3848 C   0  0  0  0  0  0  0  0  0  0  0  0
   -2.2039   -2.0194    1.3469 C   0  0  0  0  0  0  0  0  0  0  0  0
   -1.2235   -2.9457    1.1294 C   0  0  0  0  0  0  0  0  0  0  0  0
   -0.8379   -3.8739    2.1013 C   0  0  0  0  0  0  0  0  0  0  0  0
   -1.4520   -3.8797    3.3352 C   0  0  0  0  0  0  0  0  0  0  0  0
   -2.4380   -2.9563    3.5691 C   0  0  0  0  0  0  0  0  0  0  0  0
   -3.0478   -2.9507    4.7719 F   0  0  0  0  0  0  0  0  0  0  0  0
   -2.7966   -2.0510    2.5879 C   0  0  0  0  0  0  0  0  0  0  0  0
   -3.7841   -0.3610    0.5767 O   0  0  0  0  0  0  0  0  0  0  0  0
   -4.2742    0.5545   -0.1966 C   0  0  0  0  0  0  0  0  0  0  0  0
   -8.9440    4.8386   -0.1322 H   0  0  0  0  0  0  0  0  0  0  0  0
   -9.7202    3.6708   -1.2421 H   0  0  0  0  0  0  0  0  0  0  0  0
   -8.9860    5.2386   -1.8731 H   0  0  0  0  0  0  0  0  0  0  0  0
   -8.8451    2.8787    0.7997 H   0  0  0  0  0  0  0  0  0  0  0  0
   -7.9596    1.1257    2.3232 H   0  0  0  0  0  0  0  0  0  0  0  0
   -6.0134   -1.3145    3.7794 H   0  0  0  0  0  0  0  0  0  0  0  0
   -7.5392   -0.7741    2.9298 H   0  0  0  0  0  0  0  0  0  0  0  0
   -6.5220    0.3810    3.8326 H   0  0  0  0  0  0  0  0  0  0  0  0
   -5.4550    4.8042   -4.4161 H   0  0  0  0  0  0  0  0  0  0  0  0
   -4.0088    4.1229   -3.6223 H   0  0  0  0  0  0  0  0  0  0  0  0
   -5.0147    3.0818   -4.6602 H   0  0  0  0  0  0  0  0  0  0  0  0
   -3.5248    2.2067   -3.0603 H   0  0  0  0  0  0  0  0  0  0  0  0
    0.5056    0.4178   -1.1876 H   0  0  0  0  0  0  0  0  0  0  0  0
    0.5434   -0.3338    0.4207 H   0  0  0  0  0  0  0  0  0  0  0  0
    1.5233   -1.3632   -2.2891 H   0  0  0  0  0  0  0  0  0  0  0  0
    2.5429   -0.6137   -1.0705 H   0  0  0  0  0  0  0  0  0  0  0  0
    1.5303   -2.4616    1.2823 H   0  0  0  0  0  0  0  0  0  0  0  0
    1.8301   -4.0379    0.5902 H   0  0  0  0  0  0  0  0  0  0  0  0
    4.1552   -3.8084    0.3509 H   0  0  0  0  0  0  0  0  0  0  0  0
    3.5608   -3.5198    1.9702 H   0  0  0  0  0  0  0  0  0  0  0  0
    5.9342   -2.3368   -0.3591 H   0  0  0  0  0  0  0  0  0  0  0  0
    4.5095   -1.4283   -1.0186 H   0  0  0  0  0  0  0  0  0  0  0  0
    6.6013   -0.4040    0.9687 H   0  0  0  0  0  0  0  0  0  0  0  0
    5.2460    0.5689    0.3734 H   0  0  0  0  0  0  0  0  0  0  0  0
    8.0172   -0.3181   -2.3735 H   0  0  0  0  0  0  0  0  0  0  0  0
    7.0413   -1.7022   -1.9106 H   0  0  0  0  0  0  0  0  0  0  0  0
    9.3234   -1.8584   -0.9397 H   0  0  0  0  0  0  0  0  0  0  0  0
    8.1418   -1.6194    0.4142 H   0  0  0  0  0  0  0  0  0  0  0  0
   11.8269    1.8764   -0.6086 H   0  0  0  0  0  0  0  0  0  0  0  0
   10.3493    2.8866   -0.9016 H   0  0  0  0  0  0  0  0  0  0  0  0
   10.9298    3.0580    1.2772 H   0  0  0  0  0  0  0  0  0  0  0  0
    9.4994    2.1036    1.2156 H   0  0  0  0  0  0  0  0  0  0  0  0
   -0.7195   -3.0113    0.2072 H   0  0  0  0  0  0  0  0  0  0  0  0
   -0.0734   -4.5975    1.9335 H   0  0  0  0  0  0  0  0  0  0  0  0
   -1.1408   -4.6118    4.0869 H   0  0  0  0  0  0  0  0  0  0  0  0
   -3.5675   -1.3496    2.8474 H   0  0  0  0  0  0  0  0  0  0  0  0
  1  2  1  0
  2  3  1  0
  3  4  2  0
  4  5  1  0
  5  6  2  0
  6  7  1  0
  7  8  1  0
  6  9  1  0
  9 10  2  0
 10 11  1  0
 11 12  1  0
 12 13  1  0
 11 14  2  0
 14 15  1  0
 15 16  1  0
 16 17  2  0
 16 18  1  0
 18 19  1  0
 19 20  1  0
 20 21  1  0
 21 22  1  0
 22 23  1  0
 23 24  1  0
 24 25  1  0
 25 26  1  0
 26 27  1  0
 27 28  1  0
 28 29  1  0
 29 30  1  0
 30 31  1  0
 31 32  1  0
 32 33  2  0
 32 34  1  0
 34 35  1  0
 18 36  2  0
 36 37  1  0
 37 38  2  0
 38 39  1  0
 39 40  2  0
 40 41  1  0
 41 42  1  0
 41 43  2  0
 36 44  1  0
 44 45  1  0
 10  3  1  0
 45 15  2  0
 45  9  1  0
 43 37  1  0
  1 46  1  0
  1 47  1  0
  1 48  1  0
  4 49  1  0
  5 50  1  0
  8 51  1  0
  8 52  1  0
  8 53  1  0
 13 54  1  0
 13 55  1  0
 13 56  1  0
 14 57  1  0
 20 58  1  0
 20 59  1  0
 21 60  1  0
 21 61  1  0
 23 62  1  0
 23 63  1  0
 24 64  1  0
 24 65  1  0
 26 66  1  0
 26 67  1  0
 27 68  1  0
 27 69  1  0
 29 70  1  0
 29 71  1  0
 30 72  1  0
 30 73  1  0
 34 74  1  0
 34 75  1  0
 35 76  1  0
 35 77  1  0
 38 78  1  0
 39 79  1  0
 40 80  1  0
 43 81  1  0
M  END
$$$$
