@<TRIPOS>MOLECULE
*****
 81 84 0 0 0
SMALL
GASTEIGER

@<TRIPOS>ATOM
      1 C          -8.8920    4.3955   -1.1565 C.3     1  UNL1        0.0788
      2 O          -7.6708    3.7595   -1.4006 O.3     1  UNL1       -0.4944
      3 C          -7.2111    2.7924   -0.5340 C.ar    1  UNL1        0.1316
      4 C          -7.8950    2.3960    0.5936 C.ar    1  UNL1       -0.0158
      5 C          -7.4152    1.4282    1.4429 C.ar    1  UNL1       -0.0158
      6 C          -6.1935    0.8054    1.1810 C.ar    1  UNL1        0.1317
      7 O          -5.7297   -0.1674    2.0473 O.3     1  UNL1       -0.4944
      8 C          -6.4783   -0.5161    3.1686 C.3     1  UNL1        0.0788
      9 C          -5.4965    1.1961    0.0501 C.ar    1  UNL1        0.0737
     10 C          -5.9874    2.1710   -0.7993 C.ar    1  UNL1        0.0724
     11 C          -5.3056    2.5657   -1.9346 C.ar    1  UNL1        0.1323
     12 O          -5.8129    3.5444   -2.7750 O.3     1  UNL1       -0.4944
     13 C          -5.0711    3.9084   -3.9235 C.3     1  UNL1        0.0788
     14 C          -4.1104    1.9389   -2.1786 C.ar    1  UNL1       -0.0047
     15 C          -3.6069    0.9585   -1.3318 C.ar    1  UNL1        0.0719
     16 C          -2.4080    0.3433   -1.5914 C.ar    1  UNL1        0.2347
     17 O          -1.7697    0.6779   -2.6084 O.2     1  UNL1       -0.2831
     18 C          -1.9166   -0.6452   -0.7205 C.ar    1  UNL1        0.2109
     19 O          -0.6940   -1.2148   -1.0517 O.3     1  UNL1       -0.4827
     20 C           0.5072   -0.5500   -0.6440 C.3     1  UNL1        0.1132
     21 C           1.7055   -1.3236   -1.1657 C.3     1  UNL1        0.0818
     22 O           1.8692   -2.5747   -0.7472 O.3     1  UNL1       -0.3742
     23 C           2.1895   -2.9486    0.4724 C.3     1  UNL1        0.0711
     24 C           3.5911   -2.9766    0.9512 C.3     1  UNL1        0.0711
     25 O           4.4201   -1.9452    0.9698 O.3     1  UNL1       -0.3752
     26 C           5.1091   -1.5508   -0.1399 C.3     1  UNL1        0.0711
     27 C           5.9202   -0.2888    0.1012 C.3     1  UNL1        0.0711
     28 O           6.6195    0.1240   -1.0151 O.3     1  UNL1       -0.3742
     29 C           7.5349   -0.7876   -1.5012 C.3     1  UNL1        0.0819
     30 C           8.5758   -1.1479   -0.4936 C.3     1  UNL1        0.1157
     31 O           9.2837   -0.0097   -0.0989 O.3     1  UNL1       -0.4614
     32 C          10.0358    0.7598   -0.9315 C.2     1  UNL1        0.3210
     33 O          10.1382    0.4694   -2.1486 O.2     1  UNL1       -0.2494
     34 C          10.7607    1.9758   -0.4102 C.3     1  UNL1        0.0920
     35 N          10.5098    2.1261    1.0066 N.3     1  UNL1       -0.3209
     36 C          -2.6261   -1.0019    0.3848 C.ar    1  UNL1        0.1809
     37 C          -2.2039   -2.0194    1.3469 C.ar    1  UNL1        0.0238
     38 C          -1.2235   -2.9457    1.1294 C.ar    1  UNL1       -0.0508
     39 C          -0.8379   -3.8739    2.1013 C.ar    1  UNL1       -0.0584
     40 C          -1.4520   -3.8797    3.3352 C.ar    1  UNL1       -0.0264
     41 C          -2.4380   -2.9563    3.5691 C.ar    1  UNL1        0.1241
     42 F          -3.0478   -2.9507    4.7719 F       1  UNL1       -0.2055
     43 C          -2.7966   -2.0510    2.5879 C.ar    1  UNL1       -0.0157
     44 O          -3.7841   -0.3610    0.5767 O.2     1  UNL1       -0.4502
     45 C          -4.2742    0.5545   -0.1966 C.ar    1  UNL1        0.1511
     46 H          -8.9440    4.8386   -0.1322 H       1  UNL1        0.0660
     47 H          -9.7202    3.6708   -1.2421 H       1  UNL1        0.0660
     48 H          -8.9860    5.2386   -1.8731 H       1  UNL1        0.0660
     49 H          -8.8451    2.8787    0.7997 H       1  UNL1        0.0655
     50 H          -7.9596    1.1257    2.3232 H       1  UNL1        0.0655
     51 H          -6.0134   -1.3145    3.7794 H       1  UNL1        0.0660
     52 H          -7.5392   -0.7741    2.9298 H       1  UNL1        0.0660
     53 H          -6.5220    0.3810    3.8326 H       1  UNL1        0.0660
     54 H          -5.4550    4.8042   -4.4161 H       1  UNL1        0.0660
     55 H          -4.0088    4.1229   -3.6223 H       1  UNL1        0.0660
     56 H          -5.0147    3.0818   -4.6602 H       1  UNL1        0.0660
     57 H          -3.5248    2.2067   -3.0603 H       1  UNL1        0.0662
     58 H           0.5056    0.4178   -1.1876 H       1  UNL1        0.0720
     59 H           0.5434   -0.3338    0.4207 H       1  UNL1        0.0720
     60 H           1.5233   -1.3632   -2.2891 H       1  UNL1        0.0594
     61 H           2.5429   -0.6137   -1.0705 H       1  UNL1        0.0594
     62 H           1.5303   -2.4616    1.2823 H       1  UNL1        0.0583
     63 H           1.8301   -4.0379    0.5902 H       1  UNL1        0.0583
     64 H           4.1552   -3.8084    0.3509 H       1  UNL1        0.0583
     65 H           3.5608   -3.5198    1.9702 H       1  UNL1        0.0583
     66 H           5.9342   -2.3368   -0.3591 H       1  UNL1        0.0583
     67 H           4.5095   -1.4283   -1.0186 H       1  UNL1        0.0583
     68 H           6.6013   -0.4040    0.9687 H       1  UNL1        0.0583
     69 H           5.2460    0.5689    0.3734 H       1  UNL1        0.0583
     70 H           8.0172   -0.3181   -2.3735 H       1  UNL1        0.0594
     71 H           7.0413   -1.7022   -1.9106 H       1  UNL1        0.0594
     72 H           9.3234   -1.8584   -0.9397 H       1  UNL1        0.0721
     73 H           8.1418   -1.6194    0.4142 H       1  UNL1        0.0721
     74 H          11.8269    1.8764   -0.6086 H       1  UNL1        0.0537
     75 H          10.3493    2.8866   -0.9016 H       1  UNL1        0.0537
     76 H          10.9298    3.0580    1.2772 H       1  UNL1        0.1187
     77 H           9.4994    2.1036    1.2156 H       1  UNL1        0.1187
     78 H          -0.7195   -3.0113    0.2072 H       1  UNL1        0.0625
     79 H          -0.0734   -4.5975    1.9335 H       1  UNL1        0.0619
     80 H          -1.1408   -4.6118    4.0869 H       1  UNL1        0.0646
     81 H          -3.5675   -1.3496    2.8474 H       1  UNL1        0.0653
@<TRIPOS>BOND
     1     1     2    1
     2     2     3    1
     3     3     4   ar
     4     4     5   ar
     5     5     6   ar
     6     6     7    1
     7     7     8    1
     8     6     9   ar
     9     9    10   ar
    10    10    11   ar
    11    11    12    1
    12    12    13    1
    13    11    14   ar
    14    14    15   ar
    15    15    16   ar
    16    16    17    2
    17    16    18   ar
    18    18    19    1
    19    19    20    1
    20    20    21    1
    21    21    22    1
    22    22    23    1
    23    23    24    1
    24    24    25    1
    25    25    26    1
    26    26    27    1
    27    27    28    1
    28    28    29    1
    29    29    30    1
    30    30    31    1
    31    31    32    1
    32    32    33    2
    33    32    34    1
    34    34    35    1
    35    18    36   ar
    36    36    37    1
    37    37    38   ar
    38    38    39   ar
    39    39    40   ar
    40    40    41   ar
    41    41    42    1
    42    41    43   ar
    43    36    44   ar
    44    44    45   ar
    45    10     3   ar
    46    45    15   ar
    47    45     9   ar
    48    43    37   ar
    49     1    46    1
    50     1    47    1
    51     1    48    1
    52     4    49    1
    53     5    50    1
    54     8    51    1
    55     8    52    1
    56     8    53    1
    57    13    54    1
    58    13    55    1
    59    13    56    1
    60    14    57    1
    61    20    58    1
    62    20    59    1
    63    21    60    1
    64    21    61    1
    65    23    62    1
    66    23    63    1
    67    24    64    1
    68    24    65    1
    69    26    66    1
    70    26    67    1
    71    27    68    1
    72    27    69    1
    73    29    70    1
    74    29    71    1
    75    30    72    1
    76    30    73    1
    77    34    74    1
    78    34    75    1
    79    35    76    1
    80    35    77    1
    81    38    78    1
    82    39    79    1
    83    40    80    1
    84    43    81    1
