
     RDKit          3D

 50 53  0  0  0  0  0  0  0  0999 V2000
    6.9396   -2.1164    0.7285 N   0  0  0  0  0  0  0  0  0  0  0  0
    6.2190   -1.0193    0.1828 C   0  0  0  0  0  0  0  0  0  0  0  0
    4.9536   -1.1870   -0.1664 N   0  0  0  0  0  0  0  0  0  0  0  0
    4.2035   -0.1999   -0.6935 C   0  0  0  0  0  0  0  0  0  0  0  0
    2.8656   -0.4680   -1.0502 N   0  0  0  0  0  0  0  0  0  0  0  0
    1.9305    0.5237   -1.5080 C   0  0  0  0  0  0  0  0  0  0  0  0
    1.5760    1.4632   -0.4043 C   0  0  0  0  0  0  0  0  0  0  0  0
    0.9836    0.7388    0.6825 N   0  0  0  0  0  0  0  0  0  0  0  0
   -0.2795    0.1069    0.6484 C   0  0  0  0  0  0  0  0  0  0  0  0
   -0.3612   -1.1908    0.9689 N   0  0  0  0  0  0  0  0  0  0  0  0
   -1.5345   -1.8058    1.0063 C   0  0  0  0  0  0  0  0  0  0  0  0
   -2.7135   -1.0789    0.7037 C   0  0  0  0  0  0  0  0  0  0  0  0
   -3.9600   -1.8128    0.7942 C   0  0  0  0  0  0  0  0  0  0  0  0
   -4.0211   -3.1563    0.8045 N   0  0  0  0  0  0  0  0  0  0  0  0
   -5.2738   -3.5653    0.8550 C   0  0  0  0  0  0  0  0  0  0  0  0
   -6.0809   -2.4555    0.8779 C   0  0  0  0  0  0  0  0  0  0  0  0
   -5.2203   -1.3884    0.8404 N   0  0  0  0  0  0  0  0  0  0  0  0
   -2.6314    0.2335    0.3733 C   0  0  0  0  0  0  0  0  0  0  0  0
   -3.7854    1.0138   -0.0152 C   0  0  0  0  0  0  0  0  0  0  0  0
   -4.2524    2.0436    0.8141 C   0  0  0  0  0  0  0  0  0  0  0  0
   -5.3318    2.8086    0.4437 C   0  0  0  0  0  0  0  0  0  0  0  0
   -5.9334    2.5230   -0.7713 C   0  0  0  0  0  0  0  0  0  0  0  0
   -7.3239    3.5036   -1.2455 Cl  0  0  0  0  0  0  0  0  0  0  0  0
   -5.4815    1.5174   -1.5857 C   0  0  0  0  0  0  0  0  0  0  0  0
   -4.4043    0.7566   -1.2107 C   0  0  0  0  0  0  0  0  0  0  0  0
   -3.8278   -0.5489   -2.2644 Cl  0  0  0  0  0  0  0  0  0  0  0  0
   -1.3804    0.8044    0.3558 N   0  0  0  0  0  0  0  0  0  0  0  0
    4.7817    1.0086   -0.8690 C   0  0  0  0  0  0  0  0  0  0  0  0
    6.1214    1.2351   -0.5153 C   0  0  0  0  0  0  0  0  0  0  0  0
    6.8703    0.2119    0.0236 C   0  0  0  0  0  0  0  0  0  0  0  0
    8.2107    0.3129    0.4333 N   0  0  0  0  0  4  0  0  0  0  0  0
    8.5963   -0.3941    1.3781 O   0  0  0  0  0  0  0  0  0  0  0  0
    9.1065    1.1457   -0.1654 O   0  0  0  0  0  1  0  0  0  0  0  0
    7.8088   -2.4741    0.2347 H   0  0  0  0  0  0  0  0  0  0  0  0
    6.6281   -2.5778    1.6081 H   0  0  0  0  0  0  0  0  0  0  0  0
    2.5091   -1.4804   -0.9809 H   0  0  0  0  0  0  0  0  0  0  0  0
    0.9782    0.0082   -1.7994 H   0  0  0  0  0  0  0  0  0  0  0  0
    2.3235    1.0584   -2.4122 H   0  0  0  0  0  0  0  0  0  0  0  0
    0.7931    2.2071   -0.7401 H   0  0  0  0  0  0  0  0  0  0  0  0
    2.3930    2.0749    0.0009 H   0  0  0  0  0  0  0  0  0  0  0  0
    1.5429    0.6726    1.5815 H   0  0  0  0  0  0  0  0  0  0  0  0
   -1.5870   -2.8508    1.2664 H   0  0  0  0  0  0  0  0  0  0  0  0
   -5.6391   -4.5880    0.8749 H   0  0  0  0  0  0  0  0  0  0  0  0
   -7.1727   -2.3828    0.9173 H   0  0  0  0  0  0  0  0  0  0  0  0
   -5.5777   -0.4262    0.8737 H   0  0  0  0  0  0  0  0  0  0  0  0
   -3.7290    2.2247    1.7599 H   0  0  0  0  0  0  0  0  0  0  0  0
   -5.7139    3.6093    1.0615 H   0  0  0  0  0  0  0  0  0  0  0  0
   -5.9746    1.3204   -2.5279 H   0  0  0  0  0  0  0  0  0  0  0  0
    4.2644    1.8464   -1.2983 H   0  0  0  0  0  0  0  0  0  0  0  0
    6.5916    2.1942   -0.6551 H   0  0  0  0  0  0  0  0  0  0  0  0
  1  2  1  0
  2  3  2  0
  3  4  1  0
  4  5  1  0
  5  6  1  0
  6  7  1  0
  7  8  1  0
  8  9  1  0
  9 10  2  0
 10 11  1  0
 11 12  2  0
 12 13  1  0
 13 14  2  0
 14 15  1  0
 15 16  2  0
 16 17  1  0
 12 18  1  0
 18 19  1  0
 19 20  2  0
 20 21  1  0
 21 22  2  0
 22 23  1  0
 22 24  1  0
 24 25  2  0
 25 26  1  0
 18 27  2  0
  4 28  2  0
 28 29  1  0
 29 30  2  0
 30 31  1  0
 31 32  2  0
 31 33  1  0
 30  2  1  0
 27  9  1  0
 17 13  1  0
 25 19  1  0
  1 34  1  0
  1 35  1  0
  5 36  1  0
  6 37  1  0
  6 38  1  0
  7 39  1  0
  7 40  1  0
  8 41  1  0
 11 42  1  0
 15 43  1  0
 16 44  1  0
 17 45  1  0
 20 46  1  0
 21 47  1  0
 24 48  1  0
 28 49  1  0
 29 50  1  0
M  CHG  2  31   1  33  -1
M  END
$$$$
