@<TRIPOS>MOLECULE
*****
 50 53 0 0 0
SMALL
GASTEIGER

@<TRIPOS>ATOM
      1 N           6.9396   -2.1164    0.7285 N.pl3   1  UNL1       -0.3377
      2 C           6.2190   -1.0193    0.1828 C.ar    1  UNL1        0.1964
      3 N           4.9536   -1.1870   -0.1664 N.ar    1  UNL1       -0.2113
      4 C           4.2035   -0.1999   -0.6935 C.ar    1  UNL1        0.1213
      5 N           2.8656   -0.4680   -1.0502 N.pl3   1  UNL1       -0.3275
      6 C           1.9305    0.5237   -1.5080 C.3     1  UNL1        0.0260
      7 C           1.5760    1.4632   -0.4043 C.3     1  UNL1        0.0273
      8 N           0.9836    0.7388    0.6825 N.pl3   1  UNL1       -0.3120
      9 C          -0.2795    0.1069    0.6484 C.ar    1  UNL1        0.2158
     10 N          -0.3612   -1.1908    0.9689 N.ar    1  UNL1       -0.2222
     11 C          -1.5345   -1.8058    1.0063 C.ar    1  UNL1        0.0439
     12 C          -2.7135   -1.0789    0.7037 C.ar    1  UNL1        0.0614
     13 C          -3.9600   -1.8128    0.7942 C.ar    1  UNL1        0.1417
     14 N          -4.0211   -3.1563    0.8045 N.ar    1  UNL1       -0.2360
     15 C          -5.2738   -3.5653    0.8550 C.ar    1  UNL1        0.0458
     16 C          -6.0809   -2.4555    0.8779 C.ar    1  UNL1        0.0216
     17 N          -5.2203   -1.3884    0.8404 N.ar    1  UNL1       -0.3443
     18 C          -2.6314    0.2335    0.3733 C.ar    1  UNL1        0.0880
     19 C          -3.7854    1.0138   -0.0152 C.ar    1  UNL1        0.0196
     20 C          -4.2524    2.0436    0.8141 C.ar    1  UNL1       -0.0498
     21 C          -5.3318    2.8086    0.4437 C.ar    1  UNL1       -0.0427
     22 C          -5.9334    2.5230   -0.7713 C.ar    1  UNL1        0.0424
     23 CL         -7.3239    3.5036   -1.2455 Cl      1  UNL1       -0.0835
     24 C          -5.4815    1.5174   -1.5857 C.ar    1  UNL1       -0.0244
     25 C          -4.4043    0.7566   -1.2107 C.ar    1  UNL1        0.0515
     26 CL         -3.8278   -0.5489   -2.2644 Cl      1  UNL1       -0.0828
     27 N          -1.3804    0.8044    0.3558 N.ar    1  UNL1       -0.2137
     28 C           4.7817    1.0086   -0.8690 C.ar    1  UNL1       -0.0153
     29 C           6.1214    1.2351   -0.5153 C.ar    1  UNL1        0.0224
     30 C           6.8703    0.2119    0.0236 C.ar    1  UNL1        0.3123
     31 N           8.2107    0.3129    0.4333 N.pl3   1  UNL1        0.0832
     32 O           8.5963   -0.3941    1.3781 O.2     1  UNL1        0.0416
     33 O           9.1065    1.1457   -0.1654 O.co2   1  UNL1       -0.5759
     34 H           7.8088   -2.4741    0.2347 H       1  UNL1        0.1439
     35 H           6.6281   -2.5778    1.6081 H       1  UNL1        0.1439
     36 H           2.5091   -1.4804   -0.9809 H       1  UNL1        0.1475
     37 H           0.9782    0.0082   -1.7994 H       1  UNL1        0.0477
     38 H           2.3235    1.0584   -2.4122 H       1  UNL1        0.0477
     39 H           0.7931    2.2071   -0.7401 H       1  UNL1        0.0477
     40 H           2.3930    2.0749    0.0009 H       1  UNL1        0.0477
     41 H           1.5429    0.6726    1.5815 H       1  UNL1        0.1490
     42 H          -1.5870   -2.8508    1.2664 H       1  UNL1        0.0838
     43 H          -5.6391   -4.5880    0.8749 H       1  UNL1        0.0845
     44 H          -7.1727   -2.3828    0.9173 H       1  UNL1        0.0823
     45 H          -5.5777   -0.4262    0.8737 H       1  UNL1        0.1668
     46 H          -3.7290    2.2247    1.7599 H       1  UNL1        0.0625
     47 H          -5.7139    3.6093    1.0615 H       1  UNL1        0.0632
     48 H          -5.9746    1.3204   -2.5279 H       1  UNL1        0.0647
     49 H           4.2644    1.8464   -1.2983 H       1  UNL1        0.0654
     50 H           6.5916    2.1942   -0.6551 H       1  UNL1        0.0687
@<TRIPOS>UNITY_ATOM_ATTR
31 1
charge 1
33 1
charge -1
@<TRIPOS>BOND
     1     1     2    1
     2     2     3   ar
     3     3     4   ar
     4     4     5    1
     5     5     6    1
     6     6     7    1
     7     7     8    1
     8     8     9    1
     9     9    10   ar
    10    10    11   ar
    11    11    12   ar
    12    12    13    1
    13    13    14   ar
    14    14    15   ar
    15    15    16   ar
    16    16    17   ar
    17    12    18   ar
    18    18    19    1
    19    19    20   ar
    20    20    21   ar
    21    21    22   ar
    22    22    23    1
    23    22    24   ar
    24    24    25   ar
    25    25    26    1
    26    18    27   ar
    27     4    28   ar
    28    28    29   ar
    29    29    30   ar
    30    30    31    1
    31    31    32    2
    32    31    33    1
    33    30     2   ar
    34    27     9   ar
    35    17    13   ar
    36    25    19   ar
    37     1    34    1
    38     1    35    1
    39     5    36    1
    40     6    37    1
    41     6    38    1
    42     7    39    1
    43     7    40    1
    44     8    41    1
    45    11    42    1
    46    15    43    1
    47    16    44    1
    48    17    45    1
    49    20    46    1
    50    21    47    1
    51    24    48    1
    52    28    49    1
    53    29    50    1
