@<TRIPOS>MOLECULE
*****
 63 68 0 0 0
SMALL
GASTEIGER

@<TRIPOS>ATOM
      1 C          -5.1542   -0.8534    1.5646 C.3     1  UNL1       -0.0057
      2 C          -5.3063   -1.9150    0.5371 C.ar    1  UNL1        0.1109
      3 O          -6.4637   -2.4024    0.1747 O.2     1  UNL1       -0.4674
      4 C          -6.3138   -3.3312   -0.7507 C.ar    1  UNL1        0.0927
      5 C          -4.9489   -3.4585   -1.0119 C.ar    1  UNL1       -0.0144
      6 C          -4.3247   -2.5520   -0.1856 C.ar    1  UNL1        0.0416
      7 C          -2.8968   -2.3263   -0.1129 C.ar    1  UNL1        0.0858
      8 N          -2.0784   -3.2934    0.4059 N.ar    1  UNL1       -0.2279
      9 C          -0.7526   -3.0927    0.4848 C.ar    1  UNL1        0.1589
     10 N           0.1334   -4.0783    1.0193 N.pl3   1  UNL1       -0.3402
     11 C          -0.1809   -1.9191    0.0505 C.ar    1  UNL1        0.1605
     12 O           1.1892   -1.7157    0.1347 O.3     1  UNL1       -0.4870
     13 C           1.7223   -0.5062   -0.3209 C.3     1  UNL1        0.1051
     14 C           3.2435   -0.5000   -0.1251 C.3     1  UNL1        0.0435
     15 N           3.7696   -1.5976   -0.8771 N.3     1  UNL1       -0.3242
     16 C           3.7069    0.8426   -0.6476 C.3     1  UNL1       -0.0073
     17 C           5.1555    1.0415   -0.5424 C.ar    1  UNL1       -0.0208
     18 C           6.0954    0.9682   -1.5473 C.ar    1  UNL1        0.0060
     19 N           7.2791    1.2194   -0.9801 N.ar    1  UNL1       -0.3604
     20 C           7.1662    1.4557    0.3537 C.ar    1  UNL1        0.0467
     21 C           8.0768    1.7532    1.3412 C.ar    1  UNL1       -0.0378
     22 C           7.6697    1.9467    2.6313 C.ar    1  UNL1       -0.0598
     23 C           6.3298    1.8391    2.9316 C.ar    1  UNL1       -0.0611
     24 C           5.4294    1.5424    1.9423 C.ar    1  UNL1       -0.0523
     25 C           5.8207    1.3430    0.6303 C.ar    1  UNL1        0.0029
     26 C          -1.0110   -0.9478   -0.4717 C.ar    1  UNL1       -0.0052
     27 C          -2.3844   -1.1340   -0.5630 C.ar    1  UNL1        0.0315
     28 C          -3.2674   -0.1221   -1.1186 C.ar    1  UNL1        0.0921
     29 C          -4.0099   -0.3910   -2.2660 C.ar    1  UNL1        0.0560
     30 N          -4.8258    0.5296   -2.8019 N.ar    1  UNL1       -0.2326
     31 C          -4.9672    1.7573   -2.2577 C.ar    1  UNL1        0.1747
     32 N          -5.6926    2.8435   -2.5758 N.ar    1  UNL1       -0.2587
     33 N          -5.4382    3.7912   -1.6739 N.ar    1  UNL1       -0.1752
     34 C          -4.5558    3.3298   -0.7751 C.ar    1  UNL1        0.0872
     35 C          -3.9895    4.0376    0.3983 C.3     1  UNL1       -0.0185
     36 C          -4.2371    2.0352   -1.1217 C.ar    1  UNL1        0.1306
     37 N          -3.4100    1.1015   -0.5792 N.ar    1  UNL1       -0.2401
     38 H          -5.3511    0.1564    1.1817 H       1  UNL1        0.0308
     39 H          -5.8962   -1.0244    2.4010 H       1  UNL1        0.0308
     40 H          -4.1562   -0.9494    2.0744 H       1  UNL1        0.0308
     41 H          -7.1231   -3.8931   -1.2206 H       1  UNL1        0.1029
     42 H          -4.4766   -4.1353   -1.7218 H       1  UNL1        0.0656
     43 H           0.2171   -4.9918    0.5490 H       1  UNL1        0.1438
     44 H           0.6659   -3.8021    1.8943 H       1  UNL1        0.1438
     45 H           1.3405    0.2896    0.3795 H       1  UNL1        0.0712
     46 H           1.4387   -0.2505   -1.3591 H       1  UNL1        0.0712
     47 H           3.4481   -0.6417    0.9323 H       1  UNL1        0.0495
     48 H           3.0932   -1.9217   -1.5921 H       1  UNL1        0.1186
     49 H           4.0140   -2.3981   -0.2533 H       1  UNL1        0.1186
     50 H           3.1951    1.6220   -0.0282 H       1  UNL1        0.0330
     51 H           3.3520    1.0125   -1.6832 H       1  UNL1        0.0330
     52 H           5.9330    0.7496   -2.6090 H       1  UNL1        0.0810
     53 H           8.2067    1.2451   -1.4482 H       1  UNL1        0.1653
     54 H           9.1167    1.8362    1.1000 H       1  UNL1        0.0638
     55 H           8.4013    2.1871    3.4327 H       1  UNL1        0.0618
     56 H           6.0147    1.9905    3.9453 H       1  UNL1        0.0618
     57 H           4.3546    1.4505    2.1497 H       1  UNL1        0.0624
     58 H          -0.5653   -0.0206   -0.8147 H       1  UNL1        0.0662
     59 H          -3.8998   -1.3728   -2.7077 H       1  UNL1        0.0852
     60 H          -6.3544    2.9404   -3.3969 H       1  UNL1        0.1906
     61 H          -4.7833    4.5755    0.9584 H       1  UNL1        0.0294
     62 H          -3.2444    4.7796    0.0516 H       1  UNL1        0.0294
     63 H          -3.5197    3.3259    1.1102 H       1  UNL1        0.0294
@<TRIPOS>BOND
     1     1     2    1
     2     2     3   ar
     3     3     4   ar
     4     4     5   ar
     5     5     6   ar
     6     6     7    1
     7     7     8   ar
     8     8     9   ar
     9     9    10    1
    10     9    11   ar
    11    11    12    1
    12    12    13    1
    13    13    14    1
    14    14    15    1
    15    14    16    1
    16    16    17    1
    17    17    18   ar
    18    18    19   ar
    19    19    20   ar
    20    20    21   ar
    21    21    22   ar
    22    22    23   ar
    23    23    24   ar
    24    24    25   ar
    25    11    26   ar
    26    26    27   ar
    27    27    28    1
    28    28    29   ar
    29    29    30   ar
    30    30    31   ar
    31    31    32   ar
    32    32    33   ar
    33    33    34   ar
    34    34    35    1
    35    34    36   ar
    36    36    37   ar
    37     6     2   ar
    38    27     7   ar
    39    37    28   ar
    40    25    17   ar
    41    36    31   ar
    42    25    20   ar
    43     1    38    1
    44     1    39    1
    45     1    40    1
    46     4    41    1
    47     5    42    1
    48    10    43    1
    49    10    44    1
    50    13    45    1
    51    13    46    1
    52    14    47    1
    53    15    48    1
    54    15    49    1
    55    16    50    1
    56    16    51    1
    57    18    52    1
    58    19    53    1
    59    21    54    1
    60    22    55    1
    61    23    56    1
    62    24    57    1
    63    26    58    1
    64    29    59    1
    65    32    60    1
    66    35    61    1
    67    35    62    1
    68    35    63    1
