
     RDKit          3D

 52 55  0  0  0  0  0  0  0  0999 V2000
    7.7866    0.2652   -2.2442 C   0  0  0  0  0  0  0  0  0  0  0  0
    8.0053   -0.0277   -0.8841 O   0  0  0  0  0  0  0  0  0  0  0  0
    6.9801   -0.1390    0.0429 C   0  0  0  0  0  0  0  0  0  0  0  0
    7.3191   -0.4304    1.3511 C   0  0  0  0  0  0  0  0  0  0  0  0
    6.3320   -0.5507    2.3081 C   0  0  0  0  0  0  0  0  0  0  0  0
    4.9884   -0.3848    1.9893 C   0  0  0  0  0  0  0  0  0  0  0  0
    3.9899   -0.4955    2.9029 C   0  0  0  0  0  0  0  0  0  0  0  0
    4.2538   -0.7569    4.0916 O   0  0  0  0  0  0  0  0  0  0  0  0
    2.6788   -0.3034    2.4430 C   0  0  0  0  0  0  0  0  0  0  0  0
    2.3947   -0.0158    1.1333 C   0  0  0  0  0  0  0  0  0  0  0  0
    1.0159    0.1821    0.6701 C   0  0  0  0  0  0  0  0  0  0  0  0
   -0.0824    0.0997    1.4823 C   0  0  0  0  0  0  0  0  0  0  0  0
   -1.3844    0.2951    1.0025 C   0  0  0  0  0  0  0  0  0  0  0  0
   -1.6154    0.5819   -0.3237 C   0  0  0  0  0  0  0  0  0  0  0  0
   -2.9991    0.7946   -0.8557 C   0  0  0  0  0  0  0  0  0  0  0  0
   -3.5167   -0.4662   -1.2822 N   0  0  0  0  0  0  0  0  0  0  0  0
   -2.6883   -1.0698   -2.3108 C   0  0  0  0  0  0  0  0  0  0  0  0
   -4.9058   -0.5148   -1.5872 C   0  0  0  0  0  0  0  0  0  0  0  0
   -5.7062   -0.1450   -0.3965 C   0  0  0  0  0  0  0  0  0  0  0  0
   -6.0896   -1.1171    0.5291 C   0  0  0  0  0  0  0  0  0  0  0  0
   -6.8369   -0.7541    1.6205 C   0  0  0  0  0  0  0  0  0  0  0  0
   -7.2180    0.5593    1.8209 C   0  0  0  0  0  0  0  0  0  0  0  0
   -6.8255    1.5069    0.8881 C   0  0  0  0  0  0  0  0  0  0  0  0
   -6.0783    1.1696   -0.2112 C   0  0  0  0  0  0  0  0  0  0  0  0
   -0.5105    0.6654   -1.1443 C   0  0  0  0  0  0  0  0  0  0  0  0
    0.7708    0.4735   -0.6742 C   0  0  0  0  0  0  0  0  0  0  0  0
    3.4041    0.0775    0.3007 O   0  0  0  0  0  0  0  0  0  0  0  0
    4.6459   -0.0944    0.6872 C   0  0  0  0  0  0  0  0  0  0  0  0
    5.6496    0.0221   -0.2575 C   0  0  0  0  0  0  0  0  0  0  0  0
    8.7737    0.5845   -2.6695 H   0  0  0  0  0  0  0  0  0  0  0  0
    7.0575    1.1238   -2.3083 H   0  0  0  0  0  0  0  0  0  0  0  0
    7.4115   -0.6089   -2.8136 H   0  0  0  0  0  0  0  0  0  0  0  0
    8.3615   -0.5620    1.6127 H   0  0  0  0  0  0  0  0  0  0  0  0
    6.5724   -0.7781    3.3378 H   0  0  0  0  0  0  0  0  0  0  0  0
    1.8856   -0.3907    3.1663 H   0  0  0  0  0  0  0  0  0  0  0  0
    0.0350   -0.1220    2.5305 H   0  0  0  0  0  0  0  0  0  0  0  0
   -2.2361    0.2202    1.6868 H   0  0  0  0  0  0  0  0  0  0  0  0
   -3.6345    1.3190   -0.1266 H   0  0  0  0  0  0  0  0  0  0  0  0
   -2.9672    1.4671   -1.7609 H   0  0  0  0  0  0  0  0  0  0  0  0
   -2.5485   -0.3160   -3.1115 H   0  0  0  0  0  0  0  0  0  0  0  0
   -3.2406   -1.9505   -2.6997 H   0  0  0  0  0  0  0  0  0  0  0  0
   -1.6891   -1.3464   -1.9409 H   0  0  0  0  0  0  0  0  0  0  0  0
   -5.1341    0.1246   -2.4635 H   0  0  0  0  0  0  0  0  0  0  0  0
   -5.1536   -1.5772   -1.8261 H   0  0  0  0  0  0  0  0  0  0  0  0
   -5.7738   -2.1305    0.3395 H   0  0  0  0  0  0  0  0  0  0  0  0
   -7.1205   -1.5255    2.3217 H   0  0  0  0  0  0  0  0  0  0  0  0
   -7.8080    0.8698    2.6752 H   0  0  0  0  0  0  0  0  0  0  0  0
   -7.1073    2.5386    1.0172 H   0  0  0  0  0  0  0  0  0  0  0  0
   -5.8016    1.9482   -0.9079 H   0  0  0  0  0  0  0  0  0  0  0  0
   -0.6890    0.8931   -2.1984 H   0  0  0  0  0  0  0  0  0  0  0  0
    1.6454    0.5412   -1.3311 H   0  0  0  0  0  0  0  0  0  0  0  0
    5.4036    0.2501   -1.2882 H   0  0  0  0  0  0  0  0  0  0  0  0
  1  2  1  0
  2  3  1  0
  3  4  2  0
  4  5  1  0
  5  6  2  0
  6  7  1  0
  7  8  2  0
  7  9  1  0
  9 10  2  0
 10 11  1  0
 11 12  2  0
 12 13  1  0
 13 14  2  0
 14 15  1  0
 15 16  1  0
 16 17  1  0
 16 18  1  0
 18 19  1  0
 19 20  2  0
 20 21  1  0
 21 22  2  0
 22 23  1  0
 23 24  2  0
 14 25  1  0
 25 26  2  0
 10 27  1  0
 27 28  1  0
 28 29  2  0
 29  3  1  0
 28  6  1  0
 26 11  1  0
 24 19  1  0
  1 30  1  0
  1 31  1  0
  1 32  1  0
  4 33  1  0
  5 34  1  0
  9 35  1  0
 12 36  1  0
 13 37  1  0
 15 38  1  0
 15 39  1  0
 17 40  1  0
 17 41  1  0
 17 42  1  0
 18 43  1  0
 18 44  1  0
 20 45  1  0
 21 46  1  0
 22 47  1  0
 23 48  1  0
 24 49  1  0
 25 50  1  0
 26 51  1  0
 29 52  1  0
M  END
$$$$
