@<TRIPOS>MOLECULE
*****
 52 55 0 0 0
SMALL
GASTEIGER

@<TRIPOS>ATOM
      1 C           7.7866    0.2652   -2.2442 C.3     1  UNL1        0.0788
      2 O           8.0053   -0.0277   -0.8841 O.3     1  UNL1       -0.4950
      3 C           6.9801   -0.1390    0.0429 C.ar    1  UNL1        0.1236
      4 C           7.3191   -0.4304    1.3511 C.ar    1  UNL1       -0.0190
      5 C           6.3320   -0.5507    2.3081 C.ar    1  UNL1       -0.0439
      6 C           4.9884   -0.3848    1.9893 C.ar    1  UNL1        0.0642
      7 C           3.9899   -0.4955    2.9029 C.ar    1  UNL1        0.1931
      8 O           4.2538   -0.7569    4.0916 O.2     1  UNL1       -0.2870
      9 C           2.6788   -0.3034    2.4430 C.ar    1  UNL1        0.0287
     10 C           2.3947   -0.0158    1.1333 C.ar    1  UNL1        0.1392
     11 C           1.0159    0.1821    0.6701 C.ar    1  UNL1        0.0174
     12 C          -0.0824    0.0997    1.4823 C.ar    1  UNL1       -0.0508
     13 C          -1.3844    0.2951    1.0025 C.ar    1  UNL1       -0.0567
     14 C          -1.6154    0.5819   -0.3237 C.ar    1  UNL1       -0.0333
     15 C          -2.9991    0.7946   -0.8557 C.3     1  UNL1        0.0241
     16 N          -3.5167   -0.4662   -1.2822 N.3     1  UNL1       -0.2970
     17 C          -2.6883   -1.0698   -2.3108 C.3     1  UNL1       -0.0121
     18 C          -4.9058   -0.5148   -1.5872 C.3     1  UNL1        0.0241
     19 C          -5.7062   -0.1450   -0.3965 C.ar    1  UNL1       -0.0334
     20 C          -6.0896   -1.1171    0.5291 C.ar    1  UNL1       -0.0573
     21 C          -6.8369   -0.7541    1.6205 C.ar    1  UNL1       -0.0615
     22 C          -7.2180    0.5593    1.8209 C.ar    1  UNL1       -0.0617
     23 C          -6.8255    1.5069    0.8881 C.ar    1  UNL1       -0.0615
     24 C          -6.0783    1.1696   -0.2112 C.ar    1  UNL1       -0.0573
     25 C          -0.5105    0.6654   -1.1443 C.ar    1  UNL1       -0.0567
     26 C           0.7708    0.4735   -0.6742 C.ar    1  UNL1       -0.0508
     27 O           3.4041    0.0775    0.3007 O.2     1  UNL1       -0.4545
     28 C           4.6459   -0.0944    0.6872 C.ar    1  UNL1        0.1427
     29 C           5.6496    0.0221   -0.2575 C.ar    1  UNL1        0.0231
     30 H           8.7737    0.5845   -2.6695 H       1  UNL1        0.0660
     31 H           7.0575    1.1238   -2.3083 H       1  UNL1        0.0660
     32 H           7.4115   -0.6089   -2.8136 H       1  UNL1        0.0660
     33 H           8.3615   -0.5620    1.6127 H       1  UNL1        0.0654
     34 H           6.5724   -0.7781    3.3378 H       1  UNL1        0.0627
     35 H           1.8856   -0.3907    3.1663 H       1  UNL1        0.0693
     36 H           0.0350   -0.1220    2.5305 H       1  UNL1        0.0625
     37 H          -2.2361    0.2202    1.6868 H       1  UNL1        0.0621
     38 H          -3.6345    1.3190   -0.1266 H       1  UNL1        0.0476
     39 H          -2.9672    1.4671   -1.7609 H       1  UNL1        0.0476
     40 H          -2.5485   -0.3160   -3.1115 H       1  UNL1        0.0391
     41 H          -3.2406   -1.9505   -2.6997 H       1  UNL1        0.0391
     42 H          -1.6891   -1.3464   -1.9409 H       1  UNL1        0.0391
     43 H          -5.1341    0.1246   -2.4635 H       1  UNL1        0.0476
     44 H          -5.1536   -1.5772   -1.8261 H       1  UNL1        0.0476
     45 H          -5.7738   -2.1305    0.3395 H       1  UNL1        0.0621
     46 H          -7.1205   -1.5255    2.3217 H       1  UNL1        0.0618
     47 H          -7.8080    0.8698    2.6752 H       1  UNL1        0.0618
     48 H          -7.1073    2.5386    1.0172 H       1  UNL1        0.0618
     49 H          -5.8016    1.9482   -0.9079 H       1  UNL1        0.0621
     50 H          -0.6890    0.8931   -2.1984 H       1  UNL1        0.0621
     51 H           1.6454    0.5412   -1.3311 H       1  UNL1        0.0625
     52 H           5.4036    0.2501   -1.2882 H       1  UNL1        0.0691
@<TRIPOS>BOND
     1     1     2    1
     2     2     3    1
     3     3     4   ar
     4     4     5   ar
     5     5     6   ar
     6     6     7   ar
     7     7     8    2
     8     7     9   ar
     9     9    10   ar
    10    10    11    1
    11    11    12   ar
    12    12    13   ar
    13    13    14   ar
    14    14    15    1
    15    15    16    1
    16    16    17    1
    17    16    18    1
    18    18    19    1
    19    19    20   ar
    20    20    21   ar
    21    21    22   ar
    22    22    23   ar
    23    23    24   ar
    24    14    25   ar
    25    25    26   ar
    26    10    27   ar
    27    27    28   ar
    28    28    29   ar
    29    29     3   ar
    30    28     6   ar
    31    26    11   ar
    32    24    19   ar
    33     1    30    1
    34     1    31    1
    35     1    32    1
    36     4    33    1
    37     5    34    1
    38     9    35    1
    39    12    36    1
    40    13    37    1
    41    15    38    1
    42    15    39    1
    43    17    40    1
    44    17    41    1
    45    17    42    1
    46    18    43    1
    47    18    44    1
    48    20    45    1
    49    21    46    1
    50    22    47    1
    51    23    48    1
    52    24    49    1
    53    25    50    1
    54    26    51    1
    55    29    52    1
