@<TRIPOS>MOLECULE
*****
 35 35 0 0 0
SMALL
GASTEIGER

@<TRIPOS>ATOM
      1 C           4.8542   -0.4379   -1.3033 C.3     1  UNL1       -0.0652
      2 C           3.4331    0.0216   -1.0686 C.3     1  UNL1       -0.0545
      3 C           2.8577   -0.7815    0.0777 C.3     1  UNL1       -0.0364
      4 C           1.4320   -0.3845    0.3809 C.3     1  UNL1        0.0260
      5 C           0.9865   -1.2713    1.5502 C.3     1  UNL1       -0.0481
      6 N           1.3129    0.9708    0.8231 N.3     1  UNL1       -0.1872
      7 S           0.1536    1.7827   -0.1217 S.O2    1  UNL1        0.0586
      8 O           0.5837    1.7567   -1.5661 O.2     1  UNL1       -0.1530
      9 O           0.0324    3.2450    0.2851 O.2     1  UNL1       -0.1530
     10 C          -1.4446    1.1060   -0.0127 C.ar    1  UNL1        0.1053
     11 C          -2.3701    1.4481    0.9475 C.ar    1  UNL1       -0.0351
     12 C          -3.6392    0.8713    0.9772 C.ar    1  UNL1       -0.0570
     13 C          -3.9784   -0.0640    0.0242 C.ar    1  UNL1       -0.0503
     14 C          -5.3426   -0.7015    0.0348 C.3     1  UNL1       -0.0397
     15 C          -3.0759   -0.4170   -0.9361 C.ar    1  UNL1       -0.0570
     16 C          -1.8180    0.1673   -0.9502 C.ar    1  UNL1       -0.0351
     17 H           5.2903   -0.9101   -0.3920 H       1  UNL1        0.0230
     18 H           5.5229    0.4004   -1.5815 H       1  UNL1        0.0230
     19 H           4.8531   -1.1950   -2.1382 H       1  UNL1        0.0230
     20 H           2.8036   -0.0148   -1.9653 H       1  UNL1        0.0263
     21 H           3.4805    1.0872   -0.7196 H       1  UNL1        0.0263
     22 H           3.4395   -0.6539    0.9950 H       1  UNL1        0.0281
     23 H           2.8467   -1.8598   -0.1809 H       1  UNL1        0.0281
     24 H           0.7817   -0.6602   -0.4620 H       1  UNL1        0.0474
     25 H           1.5757   -0.9298    2.4297 H       1  UNL1        0.0245
     26 H          -0.0814   -1.1657    1.7633 H       1  UNL1        0.0245
     27 H           1.3093   -2.3215    1.3645 H       1  UNL1        0.0245
     28 H           2.1929    1.4986    0.8965 H       1  UNL1        0.1483
     29 H          -2.0900    2.1867    1.6929 H       1  UNL1        0.0637
     30 H          -4.3716    1.1358    1.7293 H       1  UNL1        0.0621
     31 H          -6.1073    0.0216    0.3619 H       1  UNL1        0.0278
     32 H          -5.5754   -1.0184   -1.0095 H       1  UNL1        0.0278
     33 H          -5.3576   -1.5942    0.6806 H       1  UNL1        0.0278
     34 H          -3.3313   -1.1548   -1.6949 H       1  UNL1        0.0621
     35 H          -1.1591   -0.1640   -1.7471 H       1  UNL1        0.0637
@<TRIPOS>BOND
     1     1     2    1
     2     2     3    1
     3     3     4    1
     4     4     5    1
     5     4     6    1
     6     6     7    1
     7     7     8    2
     8     7     9    2
     9     7    10    1
    10    10    11   ar
    11    11    12   ar
    12    12    13   ar
    13    13    14    1
    14    13    15   ar
    15    15    16   ar
    16    16    10   ar
    17     1    17    1
    18     1    18    1
    19     1    19    1
    20     2    20    1
    21     2    21    1
    22     3    22    1
    23     3    23    1
    24     4    24    1
    25     5    25    1
    26     5    26    1
    27     5    27    1
    28     6    28    1
    29    11    29    1
    30    12    30    1
    31    14    31    1
    32    14    32    1
    33    14    33    1
    34    15    34    1
    35    16    35    1
