
     RDKit          3D

 34 35  0  0  0  0  0  0  0  0999 V2000
   -3.1445    2.1160   -1.1367 C   0  0  0  0  0  0  0  0  0  0  0  0
   -2.4178    0.9303   -0.5996 C   0  0  0  0  0  0  0  0  0  0  0  0
   -1.2687    0.4708   -1.2581 C   0  0  0  0  0  0  0  0  0  0  0  0
   -0.5713   -0.6204   -0.7942 C   0  0  0  0  0  0  0  0  0  0  0  0
    0.6417   -1.1546   -1.4222 C   0  0  0  0  0  0  0  0  0  0  0  0
    1.9003   -0.6943   -0.8158 C   0  0  0  0  0  0  0  0  0  0  0  0
    2.5892   -1.5527    0.0428 C   0  0  0  0  0  0  0  0  0  0  0  0
    3.7356   -1.1529    0.6179 N   0  0  0  0  0  0  0  0  0  0  0  0
    4.2775    0.0704    0.4074 C   0  0  0  0  0  0  0  0  0  0  0  0
    5.4935    0.4284    1.0492 N   0  0  0  0  0  0  0  0  0  0  0  0
    3.6237    0.9069   -0.4176 N   0  0  0  0  0  0  0  0  0  0  0  0
    2.4561    0.5420   -1.0239 C   0  0  0  0  0  0  0  0  0  0  0  0
    1.7922    1.4551   -1.8960 N   0  0  0  0  0  0  0  0  0  0  0  0
   -1.0787   -1.2314    0.3612 C   0  0  0  0  0  0  0  0  0  0  0  0
   -2.2072   -0.7734    1.0005 C   0  0  0  0  0  0  0  0  0  0  0  0
   -2.6920   -1.4758    2.2348 C   0  0  0  0  0  0  0  0  0  0  0  0
   -2.8927    0.3088    0.5349 C   0  0  0  0  0  0  0  0  0  0  0  0
   -4.0380    0.8179    1.1377 O   0  0  0  0  0  0  0  0  0  0  0  0
   -2.8649    2.2494   -2.2081 H   0  0  0  0  0  0  0  0  0  0  0  0
   -4.2363    1.9623   -1.0299 H   0  0  0  0  0  0  0  0  0  0  0  0
   -2.8123    2.9886   -0.5429 H   0  0  0  0  0  0  0  0  0  0  0  0
   -0.9287    0.9853   -2.1539 H   0  0  0  0  0  0  0  0  0  0  0  0
    0.5913   -2.2820   -1.4681 H   0  0  0  0  0  0  0  0  0  0  0  0
    0.5929   -0.8615   -2.5135 H   0  0  0  0  0  0  0  0  0  0  0  0
    2.1967   -2.5463    0.2460 H   0  0  0  0  0  0  0  0  0  0  0  0
    6.2290    0.9617    0.5522 H   0  0  0  0  0  0  0  0  0  0  0  0
    5.6645    0.1581    2.0350 H   0  0  0  0  0  0  0  0  0  0  0  0
    1.2460    2.2571   -1.4969 H   0  0  0  0  0  0  0  0  0  0  0  0
    1.8594    1.3096   -2.9193 H   0  0  0  0  0  0  0  0  0  0  0  0
   -0.5281   -2.0949    0.7285 H   0  0  0  0  0  0  0  0  0  0  0  0
   -1.9085   -1.3103    3.0042 H   0  0  0  0  0  0  0  0  0  0  0  0
   -3.6626   -1.1048    2.5601 H   0  0  0  0  0  0  0  0  0  0  0  0
   -2.6808   -2.5689    1.9991 H   0  0  0  0  0  0  0  0  0  0  0  0
   -4.9566    0.5056    0.8607 H   0  0  0  0  0  0  0  0  0  0  0  0
  1  2  1  0
  2  3  2  0
  3  4  1  0
  4  5  1  0
  5  6  1  0
  6  7  2  0
  7  8  1  0
  8  9  2  0
  9 10  1  0
  9 11  1  0
 11 12  2  0
 12 13  1  0
  4 14  2  0
 14 15  1  0
 15 16  1  0
 15 17  2  0
 17 18  1  0
 17  2  1  0
 12  6  1  0
  1 19  1  0
  1 20  1  0
  1 21  1  0
  3 22  1  0
  5 23  1  0
  5 24  1  0
  7 25  1  0
 10 26  1  0
 10 27  1  0
 13 28  1  0
 13 29  1  0
 14 30  1  0
 16 31  1  0
 16 32  1  0
 16 33  1  0
 18 34  1  0
M  END
$$$$
