@<TRIPOS>MOLECULE
*****
 34 35 0 0 0
SMALL
GASTEIGER

@<TRIPOS>ATOM
      1 C          -3.1445    2.1160   -1.1367 C.3     1  UNL1       -0.0362
      2 C          -2.4178    0.9303   -0.5996 C.ar    1  UNL1       -0.0085
      3 C          -1.2687    0.4708   -1.2581 C.ar    1  UNL1       -0.0519
      4 C          -0.5713   -0.6204   -0.7942 C.ar    1  UNL1       -0.0422
      5 C           0.6417   -1.1546   -1.4222 C.3     1  UNL1        0.0023
      6 C           1.9003   -0.6943   -0.8158 C.ar    1  UNL1        0.0146
      7 C           2.5892   -1.5527    0.0428 C.ar    1  UNL1        0.0379
      8 N           3.7356   -1.1529    0.6179 N.ar    1  UNL1       -0.2227
      9 C           4.2775    0.0704    0.4074 C.ar    1  UNL1        0.2142
     10 N           5.4935    0.4284    1.0492 N.pl3   1  UNL1       -0.3274
     11 N           3.6237    0.9069   -0.4176 N.ar    1  UNL1       -0.1999
     12 C           2.4561    0.5420   -1.0239 C.ar    1  UNL1        0.1247
     13 N           1.7922    1.4551   -1.8960 N.pl3   1  UNL1       -0.3428
     14 C          -1.0787   -1.2314    0.3612 C.ar    1  UNL1       -0.0519
     15 C          -2.2072   -0.7734    1.0005 C.ar    1  UNL1       -0.0085
     16 C          -2.6920   -1.4758    2.2348 C.3     1  UNL1       -0.0362
     17 C          -2.8927    0.3088    0.5349 C.ar    1  UNL1        0.1226
     18 O          -4.0380    0.8179    1.1377 O.3     1  UNL1       -0.5062
     19 H          -2.8649    2.2494   -2.2081 H       1  UNL1        0.0279
     20 H          -4.2363    1.9623   -1.0299 H       1  UNL1        0.0279
     21 H          -2.8123    2.9886   -0.5429 H       1  UNL1        0.0279
     22 H          -0.9287    0.9853   -2.1539 H       1  UNL1        0.0624
     23 H           0.5913   -2.2820   -1.4681 H       1  UNL1        0.0363
     24 H           0.5929   -0.8615   -2.5135 H       1  UNL1        0.0363
     25 H           2.1967   -2.5463    0.2460 H       1  UNL1        0.0834
     26 H           6.2290    0.9617    0.5522 H       1  UNL1        0.1452
     27 H           5.6645    0.1581    2.0350 H       1  UNL1        0.1452
     28 H           1.2460    2.2571   -1.4969 H       1  UNL1        0.1437
     29 H           1.8594    1.3096   -2.9193 H       1  UNL1        0.1437
     30 H          -0.5281   -2.0949    0.7285 H       1  UNL1        0.0624
     31 H          -1.9085   -1.3103    3.0042 H       1  UNL1        0.0279
     32 H          -3.6626   -1.1048    2.5601 H       1  UNL1        0.0279
     33 H          -2.6808   -2.5689    1.9991 H       1  UNL1        0.0279
     34 H          -4.9566    0.5056    0.8607 H       1  UNL1        0.2922
@<TRIPOS>BOND
     1     1     2    1
     2     2     3   ar
     3     3     4   ar
     4     4     5    1
     5     5     6    1
     6     6     7   ar
     7     7     8   ar
     8     8     9   ar
     9     9    10    1
    10     9    11   ar
    11    11    12   ar
    12    12    13    1
    13     4    14   ar
    14    14    15   ar
    15    15    16    1
    16    15    17   ar
    17    17    18    1
    18    17     2   ar
    19    12     6   ar
    20     1    19    1
    21     1    20    1
    22     1    21    1
    23     3    22    1
    24     5    23    1
    25     5    24    1
    26     7    25    1
    27    10    26    1
    28    10    27    1
    29    13    28    1
    30    13    29    1
    31    14    30    1
    32    16    31    1
    33    16    32    1
    34    16    33    1
    35    18    34    1
