
     RDKit          3D

 61 65  0  0  0  0  0  0  0  0999 V2000
   -3.5457   -2.4658    2.1802 C   0  0  0  0  0  0  0  0  0  0  0  0
   -4.2125   -1.6916    1.0885 C   0  0  0  0  0  0  0  0  0  0  0  0
   -5.6180   -1.2843    1.4821 C   0  0  0  0  0  0  0  0  0  0  0  0
   -4.2063   -2.3279   -0.1628 O   0  0  0  0  0  0  0  0  0  0  0  0
   -2.9225   -2.1359   -0.6596 C   0  0  0  0  0  0  0  0  0  0  0  0
   -2.3201   -2.8256   -1.5324 O   0  0  0  0  0  0  0  0  0  0  0  0
   -2.3157   -0.9877   -0.0249 N   0  0  0  0  0  0  0  0  0  0  0  0
   -0.9599   -0.5239   -0.2181 C   0  0  1  0  0  0  0  0  0  0  0  0
   -0.8771    0.8272   -0.8689 C   0  0  0  0  0  0  0  0  0  0  0  0
    0.5989    0.9294   -1.2936 C   0  0  0  0  0  0  0  0  0  0  0  0
    1.3935    1.0831   -0.0241 C   0  0  2  0  0  0  0  0  0  0  0  0
    2.7934    1.0744   -0.3673 N   0  0  0  0  0  0  0  0  0  0  0  0
    3.3728   -0.0511   -1.0501 C   0  0  0  0  0  0  0  0  0  0  0  0
    2.7237   -1.0731   -1.3792 O   0  0  0  0  0  0  0  0  0  0  0  0
    4.7962    0.0448   -1.3593 C   0  0  0  0  0  0  0  0  0  0  0  0
    5.2359    0.1973   -2.6536 C   0  0  0  0  0  0  0  0  0  0  0  0
    6.5757    0.2874   -2.9642 C   0  0  0  0  0  0  0  0  0  0  0  0
    7.4968    0.2247   -1.9683 N   0  0  0  0  0  0  0  0  0  0  0  0
    7.1110    0.0736   -0.6697 C   0  0  0  0  0  0  0  0  0  0  0  0
    8.0510    0.0116    0.3308 C   0  0  0  0  0  0  0  0  0  0  0  0
    7.6128   -0.1413    1.6286 C   0  0  0  0  0  0  0  0  0  0  0  0
    8.5442   -0.2031    2.6324 F   0  0  0  0  0  0  0  0  0  0  0  0
    6.2685   -0.2297    1.9202 C   0  0  0  0  0  0  0  0  0  0  0  0
    5.4035   -0.1615    0.8961 N   0  0  0  0  0  0  0  0  0  0  0  0
    5.7649   -0.0140   -0.3819 C   0  0  0  0  0  0  0  0  0  0  0  0
    1.0524    0.2132    1.1051 C   0  0  0  0  0  0  0  0  0  0  0  0
   -0.1784   -0.6035    1.0591 C   0  0  0  0  0  0  0  0  0  0  0  0
   -3.3512   -0.4606    0.8213 C   0  0  1  0  0  0  0  0  0  0  0  0
   -4.1175    0.5766    0.0899 C   0  0  0  0  0  0  0  0  0  0  0  0
   -4.4558    0.5002   -1.2391 C   0  0  0  0  0  0  0  0  0  0  0  0
   -5.2067    1.4888   -1.8574 C   0  0  0  0  0  0  0  0  0  0  0  0
   -5.6489    2.5962   -1.1624 C   0  0  0  0  0  0  0  0  0  0  0  0
   -5.3021    2.6659    0.1797 C   0  0  0  0  0  0  0  0  0  0  0  0
   -4.5606    1.6960    0.8020 C   0  0  0  0  0  0  0  0  0  0  0  0
   -4.2250   -3.1631    2.7144 H   0  0  0  0  0  0  0  0  0  0  0  0
   -3.0981   -1.7596    2.9124 H   0  0  0  0  0  0  0  0  0  0  0  0
   -2.6619   -3.0108    1.7425 H   0  0  0  0  0  0  0  0  0  0  0  0
   -6.2172   -2.1966    1.5833 H   0  0  0  0  0  0  0  0  0  0  0  0
   -5.5892   -0.7773    2.4604 H   0  0  0  0  0  0  0  0  0  0  0  0
   -6.0692   -0.6671    0.6803 H   0  0  0  0  0  0  0  0  0  0  0  0
   -0.4714   -1.2310   -0.9496 H   0  0  0  0  0  0  0  0  0  0  0  0
   -1.1404    1.6646   -0.2145 H   0  0  0  0  0  0  0  0  0  0  0  0
   -1.5089    0.7751   -1.7803 H   0  0  0  0  0  0  0  0  0  0  0  0
    0.8252    0.0378   -1.8632 H   0  0  0  0  0  0  0  0  0  0  0  0
    0.7343    1.8795   -1.8799 H   0  0  0  0  0  0  0  0  0  0  0  0
    1.1781    2.1718    0.2742 H   0  0  0  0  0  0  0  0  0  0  0  0
    3.4048    1.8816   -0.1233 H   0  0  0  0  0  0  0  0  0  0  0  0
    4.5257    0.2523   -3.4629 H   0  0  0  0  0  0  0  0  0  0  0  0
    6.8515    0.4066   -3.9976 H   0  0  0  0  0  0  0  0  0  0  0  0
    9.1096    0.0835    0.0743 H   0  0  0  0  0  0  0  0  0  0  0  0
    5.9133   -0.3493    2.9520 H   0  0  0  0  0  0  0  0  0  0  0  0
    1.9525   -0.4237    1.3548 H   0  0  0  0  0  0  0  0  0  0  0  0
    0.9721    0.8531    2.0395 H   0  0  0  0  0  0  0  0  0  0  0  0
    0.0919   -1.6921    1.2002 H   0  0  0  0  0  0  0  0  0  0  0  0
   -0.8841   -0.3948    1.8921 H   0  0  0  0  0  0  0  0  0  0  0  0
   -2.9480   -0.0378    1.7751 H   0  0  0  0  0  0  0  0  0  0  0  0
   -4.1154   -0.3733   -1.8219 H   0  0  0  0  0  0  0  0  0  0  0  0
   -5.4317    1.3547   -2.9053 H   0  0  0  0  0  0  0  0  0  0  0  0
   -6.2474    3.3884   -1.6398 H   0  0  0  0  0  0  0  0  0  0  0  0
   -5.6539    3.5495    0.7365 H   0  0  0  0  0  0  0  0  0  0  0  0
   -4.2930    1.7651    1.8671 H   0  0  0  0  0  0  0  0  0  0  0  0
  1  2  1  0
  2  3  1  0
  2  4  1  0
  4  5  1  0
  5  6  2  0
  5  7  1  0
  7  8  1  0
  8  9  1  0
  9 10  1  0
 10 11  1  0
 11 12  1  0
 12 13  1  0
 13 14  2  0
 13 15  1  0
 15 16  2  0
 16 17  1  0
 17 18  2  0
 18 19  1  0
 19 20  2  0
 20 21  1  0
 21 22  1  0
 21 23  2  0
 23 24  1  0
 24 25  2  0
 11 26  1  0
 26 27  1  0
  7 28  1  0
 28 29  1  0
 29 30  2  0
 30 31  1  0
 31 32  2  0
 32 33  1  0
 33 34  2  0
 28  2  1  0
 34 29  1  0
 27  8  1  0
 25 15  1  0
 25 19  1  0
  1 35  1  0
  1 36  1  0
  1 37  1  0
  3 38  1  0
  3 39  1  0
  3 40  1  0
  8 41  1  6
  9 42  1  0
  9 43  1  0
 10 44  1  0
 10 45  1  0
 11 46  1  1
 12 47  1  0
 16 48  1  0
 17 49  1  0
 20 50  1  0
 23 51  1  0
 26 52  1  0
 26 53  1  0
 27 54  1  0
 27 55  1  0
 28 56  1  1
 30 57  1  0
 31 58  1  0
 32 59  1  0
 33 60  1  0
 34 61  1  0
M  END
$$$$
