@<TRIPOS>MOLECULE
*****
 61 65 0 0 0
SMALL
GASTEIGER

@<TRIPOS>ATOM
      1 C          -3.5457   -2.4658    2.1802 C.3     1  UNL1       -0.0229
      2 C          -4.2125   -1.6916    1.0885 C.3     1  UNL1        0.1321
      3 C          -5.6180   -1.2843    1.4821 C.3     1  UNL1       -0.0229
      4 O          -4.2063   -2.3279   -0.1628 O.3     1  UNL1       -0.4420
      5 C          -2.9225   -2.1359   -0.6596 C.2     1  UNL1        0.4043
      6 O          -2.3201   -2.8256   -1.5324 O.2     1  UNL1       -0.2262
      7 N          -2.3157   -0.9877   -0.0249 N.am    1  UNL1       -0.2535
      8 C          -0.9599   -0.5239   -0.2181 C.3     1  UNL1        0.0300
      9 C          -0.8771    0.8272   -0.8689 C.3     1  UNL1       -0.0325
     10 C           0.5989    0.9294   -1.2936 C.3     1  UNL1       -0.0328
     11 C           1.3935    1.0831   -0.0241 C.3     1  UNL1        0.0235
     12 N           2.7934    1.0744   -0.3673 N.am    1  UNL1       -0.3084
     13 C           3.3728   -0.0511   -1.0501 C.2     1  UNL1        0.2465
     14 O           2.7237   -1.0731   -1.3792 O.2     1  UNL1       -0.2701
     15 C           4.7962    0.0448   -1.3593 C.ar    1  UNL1        0.0655
     16 C           5.2359    0.1973   -2.6536 C.ar    1  UNL1       -0.0294
     17 C           6.5757    0.2874   -2.9642 C.ar    1  UNL1        0.0291
     18 N           7.4968    0.2247   -1.9683 N.ar    1  UNL1       -0.2533
     19 C           7.1110    0.0736   -0.6697 C.ar    1  UNL1        0.0926
     20 C           8.0510    0.0116    0.3308 C.ar    1  UNL1        0.0026
     21 C           7.6128   -0.1413    1.6286 C.ar    1  UNL1        0.1434
     22 F           8.5442   -0.2031    2.6324 F       1  UNL1       -0.2038
     23 C           6.2685   -0.2297    1.9202 C.ar    1  UNL1        0.0636
     24 N           5.4035   -0.1615    0.8961 N.ar    1  UNL1       -0.2498
     25 C           5.7649   -0.0140   -0.3819 C.ar    1  UNL1        0.1014
     26 C           1.0524    0.2132    1.1051 C.3     1  UNL1       -0.0328
     27 C          -0.1784   -0.6035    1.0591 C.3     1  UNL1       -0.0325
     28 C          -3.3512   -0.4606    0.8213 C.3     1  UNL1        0.0938
     29 C          -4.1175    0.5766    0.0899 C.ar    1  UNL1       -0.0231
     30 C          -4.4558    0.5002   -1.2391 C.ar    1  UNL1       -0.0567
     31 C          -5.2067    1.4888   -1.8574 C.ar    1  UNL1       -0.0614
     32 C          -5.6489    2.5962   -1.1624 C.ar    1  UNL1       -0.0617
     33 C          -5.3021    2.6659    0.1797 C.ar    1  UNL1       -0.0614
     34 C          -4.5606    1.6960    0.8020 C.ar    1  UNL1       -0.0567
     35 H          -4.2250   -3.1631    2.7144 H       1  UNL1        0.0269
     36 H          -3.0981   -1.7596    2.9124 H       1  UNL1        0.0269
     37 H          -2.6619   -3.0108    1.7425 H       1  UNL1        0.0269
     38 H          -6.2172   -2.1966    1.5833 H       1  UNL1        0.0269
     39 H          -5.5892   -0.7773    2.4604 H       1  UNL1        0.0269
     40 H          -6.0692   -0.6671    0.6803 H       1  UNL1        0.0269
     41 H          -0.4714   -1.2310   -0.9496 H       1  UNL1        0.0502
     42 H          -1.1404    1.6646   -0.2145 H       1  UNL1        0.0284
     43 H          -1.5089    0.7751   -1.7803 H       1  UNL1        0.0284
     44 H           0.8252    0.0378   -1.8632 H       1  UNL1        0.0284
     45 H           0.7343    1.8795   -1.8799 H       1  UNL1        0.0284
     46 H           1.1781    2.1718    0.2742 H       1  UNL1        0.0498
     47 H           3.4048    1.8816   -0.1233 H       1  UNL1        0.1493
     48 H           4.5257    0.2523   -3.4629 H       1  UNL1        0.0641
     49 H           6.8515    0.4066   -3.9976 H       1  UNL1        0.0830
     50 H           9.1096    0.0835    0.0743 H       1  UNL1        0.0669
     51 H           5.9133   -0.3493    2.9520 H       1  UNL1        0.0859
     52 H           1.9525   -0.4237    1.3548 H       1  UNL1        0.0284
     53 H           0.9721    0.8531    2.0395 H       1  UNL1        0.0284
     54 H           0.0919   -1.6921    1.2002 H       1  UNL1        0.0284
     55 H          -0.8841   -0.3948    1.8921 H       1  UNL1        0.0284
     56 H          -2.9480   -0.0378    1.7751 H       1  UNL1        0.0591
     57 H          -4.1154   -0.3733   -1.8219 H       1  UNL1        0.0621
     58 H          -5.4317    1.3547   -2.9053 H       1  UNL1        0.0618
     59 H          -6.2474    3.3884   -1.6398 H       1  UNL1        0.0618
     60 H          -5.6539    3.5495    0.7365 H       1  UNL1        0.0618
     61 H          -4.2930    1.7651    1.8671 H       1  UNL1        0.0621
@<TRIPOS>BOND
     1     1     2    1
     2     2     3    1
     3     2     4    1
     4     4     5    1
     5     5     6    2
     6     5     7   am
     7     7     8    1
     8     8     9    1
     9     9    10    1
    10    10    11    1
    11    11    12    1
    12    12    13   am
    13    13    14    2
    14    13    15    1
    15    15    16   ar
    16    16    17   ar
    17    17    18   ar
    18    18    19   ar
    19    19    20   ar
    20    20    21   ar
    21    21    22    1
    22    21    23   ar
    23    23    24   ar
    24    24    25   ar
    25    11    26    1
    26    26    27    1
    27     7    28    1
    28    28    29    1
    29    29    30   ar
    30    30    31   ar
    31    31    32   ar
    32    32    33   ar
    33    33    34   ar
    34    28     2    1
    35    34    29   ar
    36    27     8    1
    37    25    15   ar
    38    25    19   ar
    39     1    35    1
    40     1    36    1
    41     1    37    1
    42     3    38    1
    43     3    39    1
    44     3    40    1
    45     8    41    1
    46     9    42    1
    47     9    43    1
    48    10    44    1
    49    10    45    1
    50    11    46    1
    51    12    47    1
    52    16    48    1
    53    17    49    1
    54    20    50    1
    55    23    51    1
    56    26    52    1
    57    26    53    1
    58    27    54    1
    59    27    55    1
    60    28    56    1
    61    30    57    1
    62    31    58    1
    63    32    59    1
    64    33    60    1
    65    34    61    1
