@<TRIPOS>MOLECULE
*****
 57 61 0 0 0
SMALL
GASTEIGER

@<TRIPOS>ATOM
      1 C           0.9328    0.2867   -3.8136 C.3     1  UNL1        0.0790
      2 O           0.1032   -0.1960   -2.7771 O.3     1  UNL1       -0.4914
      3 C           0.6420   -0.4152   -1.5215 C.ar    1  UNL1        0.1623
      4 C           1.9933   -0.1540   -1.3084 C.ar    1  UNL1       -0.0038
      5 C           2.5632   -0.3586   -0.0786 C.ar    1  UNL1        0.0441
      6 C           3.8975   -0.1146    0.1826 C.ar    1  UNL1        0.1340
      7 N           4.7396    0.3707   -0.8521 N.pl3   1  UNL1       -0.2966
      8 C           6.1243    0.5996   -0.4946 C.ar    1  UNL1        0.0695
      9 C           7.1487   -0.0580   -1.1227 C.ar    1  UNL1       -0.0179
     10 C           8.4768    0.1560   -0.7857 C.ar    1  UNL1        0.0612
     11 CL          9.7574   -0.7067   -1.6148 Cl      1  UNL1       -0.0820
     12 C           8.7945    1.0467    0.2011 C.ar    1  UNL1        0.0621
     13 CL         10.4836    1.3280    0.6396 Cl      1  UNL1       -0.0819
     14 C           7.7764    1.7155    0.8418 C.ar    1  UNL1       -0.0048
     15 C           6.4509    1.5022    0.5057 C.ar    1  UNL1        0.1459
     16 F           5.4312    2.1556    1.1296 F       1  UNL1       -0.2035
     17 N           4.3953   -0.3414    1.4306 N.ar    1  UNL1       -0.2200
     18 C           3.6114   -0.7961    2.4040 C.ar    1  UNL1        0.1187
     19 N           2.3185   -1.0329    2.1524 N.ar    1  UNL1       -0.2352
     20 C           1.7602   -0.8324    0.9477 C.ar    1  UNL1        0.0797
     21 C           0.4212   -1.0826    0.7047 C.ar    1  UNL1        0.0098
     22 C          -0.1796   -0.8906   -0.5046 C.ar    1  UNL1        0.1641
     23 O          -1.4622   -1.1256   -0.7476 O.3     1  UNL1       -0.4856
     24 C          -2.5717   -1.5521   -0.1001 C.3     1  UNL1        0.1170
     25 C          -3.0768   -0.7243    1.0600 C.3     1  UNL1        0.1053
     26 C          -4.3414   -1.4246    1.5482 C.3     1  UNL1        0.0289
     27 N          -5.5307   -0.6642    1.2943 N.3     1  UNL1       -0.2903
     28 C          -5.9044   -0.6219   -0.0928 C.3     1  UNL1        0.0229
     29 C          -7.2234    0.1309   -0.2168 C.3     1  UNL1        0.0605
     30 O          -7.6140    0.6907    0.9866 O.3     1  UNL1       -0.3769
     31 C          -6.6202    1.4427    1.5967 C.3     1  UNL1        0.0654
     32 C          -5.3731    0.6325    1.8835 C.3     1  UNL1        0.0573
     33 C          -4.1390    1.3080    1.3942 C.3     1  UNL1        0.0659
     34 O          -3.3611    0.5366    0.5567 O.3     1  UNL1       -0.3703
     35 H           0.3565    0.5516   -4.7191 H       1  UNL1        0.0660
     36 H           1.6748   -0.5126   -4.0640 H       1  UNL1        0.0660
     37 H           1.5050    1.1820   -3.5254 H       1  UNL1        0.0660
     38 H           2.6154    0.2157   -2.1138 H       1  UNL1        0.0663
     39 H           4.4983    0.5802   -1.8161 H       1  UNL1        0.1537
     40 H           6.9057   -0.7692   -1.9098 H       1  UNL1        0.0652
     41 H           8.0200    2.4103    1.6113 H       1  UNL1        0.0662
     42 H           4.0142   -0.9784    3.4099 H       1  UNL1        0.1048
     43 H          -0.1325   -1.4574    1.5509 H       1  UNL1        0.0677
     44 H          -3.4109   -1.7153   -0.8497 H       1  UNL1        0.0723
     45 H          -2.3724   -2.6207    0.2381 H       1  UNL1        0.0723
     46 H          -2.3098   -0.7065    1.8483 H       1  UNL1        0.0643
     47 H          -4.4144   -2.4638    1.1739 H       1  UNL1        0.0453
     48 H          -4.2497   -1.5117    2.6664 H       1  UNL1        0.0453
     49 H          -5.9865   -1.6673   -0.4543 H       1  UNL1        0.0449
     50 H          -5.1907   -0.1095   -0.7453 H       1  UNL1        0.0449
     51 H          -7.9930   -0.6387   -0.4736 H       1  UNL1        0.0572
     52 H          -7.2128    0.8506   -1.0593 H       1  UNL1        0.0572
     53 H          -7.0375    1.8040    2.5589 H       1  UNL1        0.0576
     54 H          -6.3850    2.3325    0.9781 H       1  UNL1        0.0576
     55 H          -5.2711    0.4723    2.9910 H       1  UNL1        0.0508
     56 H          -3.5755    1.7470    2.2362 H       1  UNL1        0.0576
     57 H          -4.4724    2.1946    0.7767 H       1  UNL1        0.0576
@<TRIPOS>BOND
     1     1     2    1
     2     2     3    1
     3     3     4   ar
     4     4     5   ar
     5     5     6   ar
     6     6     7    1
     7     7     8    1
     8     8     9   ar
     9     9    10   ar
    10    10    11    1
    11    10    12   ar
    12    12    13    1
    13    12    14   ar
    14    14    15   ar
    15    15    16    1
    16     6    17   ar
    17    17    18   ar
    18    18    19   ar
    19    19    20   ar
    20    20    21   ar
    21    21    22   ar
    22    22    23    1
    23    23    24    1
    24    24    25    1
    25    25    26    1
    26    26    27    1
    27    27    28    1
    28    28    29    1
    29    29    30    1
    30    30    31    1
    31    31    32    1
    32    32    33    1
    33    33    34    1
    34    22     3   ar
    35    34    25    1
    36    20     5   ar
    37    32    27    1
    38    15     8   ar
    39     1    35    1
    40     1    36    1
    41     1    37    1
    42     4    38    1
    43     7    39    1
    44     9    40    1
    45    14    41    1
    46    18    42    1
    47    21    43    1
    48    24    44    1
    49    24    45    1
    50    25    46    1
    51    26    47    1
    52    26    48    1
    53    28    49    1
    54    28    50    1
    55    29    51    1
    56    29    52    1
    57    31    53    1
    58    31    54    1
    59    32    55    1
    60    33    56    1
    61    33    57    1
