
     RDKit          3D

 41 44  0  0  0  0  0  0  0  0999 V2000
   -1.5864   -4.1982    0.0494 C   0  0  0  0  0  0  0  0  0  0  0  0
   -1.3159   -2.7427   -0.1254 C   0  0  0  0  0  0  0  0  0  0  0  0
   -2.1606   -1.8034   -0.5373 N   0  0  0  0  0  0  0  0  0  0  0  0
   -1.5533   -0.5730   -0.5744 C   0  0  0  0  0  0  0  0  0  0  0  0
   -2.1215    0.6802   -0.9598 C   0  0  0  0  0  0  0  0  0  0  0  0
   -2.3510    1.6721   -0.0532 C   0  0  0  0  0  0  0  0  0  0  0  0
   -2.8919    2.8911   -0.3979 C   0  0  0  0  0  0  0  0  0  0  0  0
   -3.2264    3.1497   -1.7086 C   0  0  0  0  0  0  0  0  0  0  0  0
   -3.7620    4.3573   -2.0487 F   0  0  0  0  0  0  0  0  0  0  0  0
   -3.0054    2.1660   -2.6444 C   0  0  0  0  0  0  0  0  0  0  0  0
   -2.4540    0.9356   -2.2660 C   0  0  0  0  0  0  0  0  0  0  0  0
   -0.2682   -0.7924   -0.1592 C   0  0  0  0  0  0  0  0  0  0  0  0
    0.8326    0.1340    0.0004 C   0  0  0  0  0  0  0  0  0  0  0  0
    1.9169    0.0667   -0.8889 C   0  0  0  0  0  0  0  0  0  0  0  0
    3.0057    0.8909   -0.8201 C   0  0  0  0  0  0  0  0  0  0  0  0
    3.0352    1.8427    0.1844 C   0  0  0  0  0  0  0  0  0  0  0  0
    3.9250    2.7790    0.5243 N   0  0  0  0  0  0  0  0  0  0  0  0
    3.4919    3.4543    1.5792 N   0  0  0  0  0  0  0  0  0  0  0  0
    2.3009    2.9784    1.9628 C   0  0  0  0  0  0  0  0  0  0  0  0
    1.9950    1.9452    1.0786 C   0  0  0  0  0  0  0  0  0  0  0  0
    0.9167    1.0888    0.9673 C   0  0  0  0  0  0  0  0  0  0  0  0
   -0.1525   -2.1179    0.1065 N   0  0  0  0  0  0  0  0  0  0  0  0
    1.0441   -2.7910    0.5741 C   0  0  0  0  0  0  0  0  0  0  0  0
    1.1126   -2.8143    2.1034 C   0  0  0  0  0  0  0  0  0  0  0  0
    2.2858   -3.4756    2.4171 F   0  0  0  0  0  0  0  0  0  0  0  0
    0.0392   -3.5315    2.5950 F   0  0  0  0  0  0  0  0  0  0  0  0
   -2.2503   -4.5499   -0.7794 H   0  0  0  0  0  0  0  0  0  0  0  0
   -2.0179   -4.4244    1.0363 H   0  0  0  0  0  0  0  0  0  0  0  0
   -0.6396   -4.7979   -0.0711 H   0  0  0  0  0  0  0  0  0  0  0  0
   -2.1070    1.5051    0.9791 H   0  0  0  0  0  0  0  0  0  0  0  0
   -3.0608    3.6635    0.3615 H   0  0  0  0  0  0  0  0  0  0  0  0
   -3.2701    2.3757   -3.6716 H   0  0  0  0  0  0  0  0  0  0  0  0
   -2.3131    0.2157   -3.0677 H   0  0  0  0  0  0  0  0  0  0  0  0
    1.9125   -0.6825   -1.6937 H   0  0  0  0  0  0  0  0  0  0  0  0
    3.8393    0.8585   -1.4830 H   0  0  0  0  0  0  0  0  0  0  0  0
    4.8277    2.9439    0.0220 H   0  0  0  0  0  0  0  0  0  0  0  0
    1.6799    3.3061    2.7841 H   0  0  0  0  0  0  0  0  0  0  0  0
    0.1395    1.1973    1.6765 H   0  0  0  0  0  0  0  0  0  0  0  0
    1.9591   -2.2048    0.2642 H   0  0  0  0  0  0  0  0  0  0  0  0
    1.1694   -3.7878    0.1582 H   0  0  0  0  0  0  0  0  0  0  0  0
    1.0788   -1.8105    2.5260 H   0  0  0  0  0  0  0  0  0  0  0  0
  1  2  1  0
  2  3  2  0
  3  4  1  0
  4  5  1  0
  5  6  2  0
  6  7  1  0
  7  8  2  0
  8  9  1  0
  8 10  1  0
 10 11  2  0
  4 12  2  0
 12 13  1  0
 13 14  2  0
 14 15  1  0
 15 16  2  0
 16 17  1  0
 17 18  1  0
 18 19  2  0
 19 20  1  0
 20 21  2  0
 12 22  1  0
 22 23  1  0
 23 24  1  0
 24 25  1  0
 24 26  1  0
 22  2  1  0
 11  5  1  0
 21 13  1  0
 20 16  1  0
  1 27  1  0
  1 28  1  0
  1 29  1  0
  6 30  1  0
  7 31  1  0
 10 32  1  0
 11 33  1  0
 14 34  1  0
 15 35  1  0
 17 36  1  0
 19 37  1  0
 21 38  1  0
 23 39  1  0
 23 40  1  0
 24 41  1  0
M  END
$$$$
