@<TRIPOS>MOLECULE
*****
 41 44 0 0 0
SMALL
GASTEIGER

@<TRIPOS>ATOM
      1 C          -1.5864   -4.1982    0.0494 C.3     1  UNL1       -0.0062
      2 C          -1.3159   -2.7427   -0.1254 C.ar    1  UNL1        0.1078
      3 N          -2.1606   -1.8034   -0.5373 N.ar    1  UNL1       -0.2320
      4 C          -1.5533   -0.5730   -0.5744 C.ar    1  UNL1        0.0970
      5 C          -2.1215    0.6802   -0.9598 C.ar    1  UNL1        0.0026
      6 C          -2.3510    1.6721   -0.0532 C.ar    1  UNL1       -0.0498
      7 C          -2.8919    2.8911   -0.3979 C.ar    1  UNL1       -0.0258
      8 C          -3.2264    3.1497   -1.7086 C.ar    1  UNL1        0.1234
      9 F          -3.7620    4.3573   -2.0487 F       1  UNL1       -0.2055
     10 C          -3.0054    2.1660   -2.6444 C.ar    1  UNL1       -0.0258
     11 C          -2.4540    0.9356   -2.2660 C.ar    1  UNL1       -0.0498
     12 C          -0.2682   -0.7924   -0.1592 C.ar    1  UNL1        0.0768
     13 C           0.8326    0.1340    0.0004 C.ar    1  UNL1        0.0014
     14 C           1.9169    0.0667   -0.8889 C.ar    1  UNL1       -0.0505
     15 C           3.0057    0.8909   -0.8201 C.ar    1  UNL1       -0.0357
     16 C           3.0352    1.8427    0.1844 C.ar    1  UNL1        0.0658
     17 N           3.9250    2.7790    0.5243 N.ar    1  UNL1       -0.2770
     18 N           3.4919    3.4543    1.5792 N.ar    1  UNL1       -0.1812
     19 C           2.3009    2.9784    1.9628 C.ar    1  UNL1        0.0569
     20 C           1.9950    1.9452    1.0786 C.ar    1  UNL1        0.0201
     21 C           0.9167    1.0888    0.9673 C.ar    1  UNL1       -0.0419
     22 N          -0.1525   -2.1179    0.1065 N.ar    1  UNL1       -0.3218
     23 C           1.0441   -2.7910    0.5741 C.3     1  UNL1        0.0854
     24 C           1.1126   -2.8143    2.1034 C.3     1  UNL1        0.2569
     25 F           2.2858   -3.4756    2.4171 F       1  UNL1       -0.2073
     26 F           0.0392   -3.5315    2.5950 F       1  UNL1       -0.2073
     27 H          -2.2503   -4.5499   -0.7794 H       1  UNL1        0.0307
     28 H          -2.0179   -4.4244    1.0363 H       1  UNL1        0.0307
     29 H          -0.6396   -4.7979   -0.0711 H       1  UNL1        0.0307
     30 H          -2.1070    1.5051    0.9791 H       1  UNL1        0.0625
     31 H          -3.0608    3.6635    0.3615 H       1  UNL1        0.0646
     32 H          -3.2701    2.3757   -3.6716 H       1  UNL1        0.0646
     33 H          -2.3131    0.2157   -3.0677 H       1  UNL1        0.0625
     34 H           1.9125   -0.6825   -1.6937 H       1  UNL1        0.0625
     35 H           3.8393    0.8585   -1.4830 H       1  UNL1        0.0639
     36 H           4.8277    2.9439    0.0220 H       1  UNL1        0.1889
     37 H           1.6799    3.3061    2.7841 H       1  UNL1        0.0854
     38 H           0.1395    1.1973    1.6765 H       1  UNL1        0.0631
     39 H           1.9591   -2.2048    0.2642 H       1  UNL1        0.0548
     40 H           1.1694   -3.7878    0.1582 H       1  UNL1        0.0548
     41 H           1.0788   -1.8105    2.5260 H       1  UNL1        0.1037
@<TRIPOS>BOND
     1     1     2    1
     2     2     3   ar
     3     3     4   ar
     4     4     5    1
     5     5     6   ar
     6     6     7   ar
     7     7     8   ar
     8     8     9    1
     9     8    10   ar
    10    10    11   ar
    11     4    12   ar
    12    12    13    1
    13    13    14   ar
    14    14    15   ar
    15    15    16   ar
    16    16    17   ar
    17    17    18   ar
    18    18    19   ar
    19    19    20   ar
    20    20    21   ar
    21    12    22   ar
    22    22    23    1
    23    23    24    1
    24    24    25    1
    25    24    26    1
    26    22     2   ar
    27    11     5   ar
    28    21    13   ar
    29    20    16   ar
    30     1    27    1
    31     1    28    1
    32     1    29    1
    33     6    30    1
    34     7    31    1
    35    10    32    1
    36    11    33    1
    37    14    34    1
    38    15    35    1
    39    17    36    1
    40    19    37    1
    41    21    38    1
    42    23    39    1
    43    23    40    1
    44    24    41    1
