@<TRIPOS>MOLECULE
*****
 44 45 0 0 0
SMALL
GASTEIGER

@<TRIPOS>ATOM
      1 C           3.3532    0.0977    2.3012 C.3     1  UNL1       -0.0306
      2 C           4.0316    1.3268    1.7506 C.3     1  UNL1        0.0884
      3 O           4.7667    1.0232    0.5770 O.3     1  UNL1       -0.4758
      4 C           4.1515    0.4977   -0.5469 C.ar    1  UNL1        0.2333
      5 N           2.8519    0.1989   -0.7222 N.ar    1  UNL1       -0.2072
      6 C           2.4152   -0.3108   -1.8876 C.ar    1  UNL1        0.1292
      7 C           3.2715   -0.5468   -2.9431 C.ar    1  UNL1       -0.0297
      8 C           4.6084   -0.2537   -2.8018 C.ar    1  UNL1       -0.0370
      9 C           5.0410    0.2724   -1.5894 C.ar    1  UNL1        0.1131
     10 C           6.4612    0.5564   -1.5107 C.1     1  UNL1        0.1045
     11 N           7.5787    0.7971   -1.4458 N.1     1  UNL1       -0.1907
     12 C           0.9996   -0.6264   -2.0351 C.2     1  UNL1        0.2628
     13 O           0.5784   -1.1147   -3.1337 O.2     1  UNL1       -0.2685
     14 N           0.0206   -0.4298   -1.0268 N.am    1  UNL1       -0.3059
     15 C          -1.2754   -0.8422   -1.4813 C.3     1  UNL1        0.0408
     16 C          -2.3377   -0.6532   -0.4636 C.ar    1  UNL1        0.0147
     17 C          -2.8012   -1.7753    0.2347 C.ar    1  UNL1       -0.0118
     18 C          -3.7900   -1.5865    1.1832 C.ar    1  UNL1        0.1206
     19 O          -4.1825   -2.7424    1.8180 O.3     1  UNL1       -0.4951
     20 C          -5.1796   -2.7455    2.8153 C.3     1  UNL1        0.0788
     21 C          -4.3437   -0.3595    1.4793 C.ar    1  UNL1       -0.0165
     22 C          -3.8462    0.7116    0.7575 C.ar    1  UNL1       -0.0162
     23 C          -2.8612    0.5964   -0.2025 C.ar    1  UNL1        0.1250
     24 O          -2.3721    1.6809   -0.9184 O.3     1  UNL1       -0.4948
     25 C          -2.9382    2.9533   -0.6200 C.3     1  UNL1        0.0788
     26 H           3.4003    0.0268    3.3950 H       1  UNL1        0.0262
     27 H           3.8634   -0.7783    1.8837 H       1  UNL1        0.0262
     28 H           2.2930    0.0875    1.9537 H       1  UNL1        0.0262
     29 H           4.7304    1.6901    2.5491 H       1  UNL1        0.0694
     30 H           3.2617    2.1014    1.6116 H       1  UNL1        0.0694
     31 H           2.9344   -0.9544   -3.8819 H       1  UNL1        0.0641
     32 H           5.2854   -0.4387   -3.6319 H       1  UNL1        0.0633
     33 H           0.3267   -0.0277   -0.1099 H       1  UNL1        0.1494
     34 H          -1.2769   -1.8914   -1.8813 H       1  UNL1        0.0513
     35 H          -1.5660   -0.2108   -2.3673 H       1  UNL1        0.0513
     36 H          -2.3651   -2.7390    0.0018 H       1  UNL1        0.0658
     37 H          -6.1585   -2.4878    2.4010 H       1  UNL1        0.0660
     38 H          -4.9463   -2.0235    3.6519 H       1  UNL1        0.0660
     39 H          -5.2550   -3.7871    3.2053 H       1  UNL1        0.0660
     40 H          -5.1168   -0.2590    2.2315 H       1  UNL1        0.0655
     41 H          -4.2764    1.6937    0.9808 H       1  UNL1        0.0655
     42 H          -2.8487    3.0837    0.4747 H       1  UNL1        0.0660
     43 H          -4.0235    2.9739   -0.8697 H       1  UNL1        0.0660
     44 H          -2.4638    3.7620   -1.1858 H       1  UNL1        0.0660
@<TRIPOS>BOND
     1     1     2    1
     2     2     3    1
     3     3     4    1
     4     4     5   ar
     5     5     6   ar
     6     6     7   ar
     7     7     8   ar
     8     8     9   ar
     9     9    10    1
    10    10    11    3
    11     6    12    1
    12    12    13    2
    13    12    14   am
    14    14    15    1
    15    15    16    1
    16    16    17   ar
    17    17    18   ar
    18    18    19    1
    19    19    20    1
    20    18    21   ar
    21    21    22   ar
    22    22    23   ar
    23    23    24    1
    24    24    25    1
    25     9     4   ar
    26    23    16   ar
    27     1    26    1
    28     1    27    1
    29     1    28    1
    30     2    29    1
    31     2    30    1
    32     7    31    1
    33     8    32    1
    34    14    33    1
    35    15    34    1
    36    15    35    1
    37    17    36    1
    38    20    37    1
    39    20    38    1
    40    20    39    1
    41    21    40    1
    42    22    41    1
    43    25    42    1
    44    25    43    1
    45    25    44    1
