
     RDKit          3D

 44 45  0  0  0  0  0  0  0  0999 V2000
    3.3532    0.0977    2.3012 C   0  0  0  0  0  0  0  0  0  0  0  0
    4.0316    1.3268    1.7506 C   0  0  0  0  0  0  0  0  0  0  0  0
    4.7667    1.0232    0.5770 O   0  0  0  0  0  0  0  0  0  0  0  0
    4.1515    0.4977   -0.5469 C   0  0  0  0  0  0  0  0  0  0  0  0
    2.8519    0.1989   -0.7222 N   0  0  0  0  0  0  0  0  0  0  0  0
    2.4152   -0.3108   -1.8876 C   0  0  0  0  0  0  0  0  0  0  0  0
    3.2715   -0.5468   -2.9431 C   0  0  0  0  0  0  0  0  0  0  0  0
    4.6084   -0.2537   -2.8018 C   0  0  0  0  0  0  0  0  0  0  0  0
    5.0410    0.2724   -1.5894 C   0  0  0  0  0  0  0  0  0  0  0  0
    6.4612    0.5564   -1.5107 C   0  0  0  0  0  0  0  0  0  0  0  0
    7.5787    0.7971   -1.4458 N   0  0  0  0  0  0  0  0  0  0  0  0
    0.9996   -0.6264   -2.0351 C   0  0  0  0  0  0  0  0  0  0  0  0
    0.5784   -1.1147   -3.1337 O   0  0  0  0  0  0  0  0  0  0  0  0
    0.0206   -0.4298   -1.0268 N   0  0  0  0  0  0  0  0  0  0  0  0
   -1.2754   -0.8422   -1.4813 C   0  0  0  0  0  0  0  0  0  0  0  0
   -2.3377   -0.6532   -0.4636 C   0  0  0  0  0  0  0  0  0  0  0  0
   -2.8012   -1.7753    0.2347 C   0  0  0  0  0  0  0  0  0  0  0  0
   -3.7900   -1.5865    1.1832 C   0  0  0  0  0  0  0  0  0  0  0  0
   -4.1825   -2.7424    1.8180 O   0  0  0  0  0  0  0  0  0  0  0  0
   -5.1796   -2.7455    2.8153 C   0  0  0  0  0  0  0  0  0  0  0  0
   -4.3437   -0.3595    1.4793 C   0  0  0  0  0  0  0  0  0  0  0  0
   -3.8462    0.7116    0.7575 C   0  0  0  0  0  0  0  0  0  0  0  0
   -2.8612    0.5964   -0.2025 C   0  0  0  0  0  0  0  0  0  0  0  0
   -2.3721    1.6809   -0.9184 O   0  0  0  0  0  0  0  0  0  0  0  0
   -2.9382    2.9533   -0.6200 C   0  0  0  0  0  0  0  0  0  0  0  0
    3.4003    0.0268    3.3950 H   0  0  0  0  0  0  0  0  0  0  0  0
    3.8634   -0.7783    1.8837 H   0  0  0  0  0  0  0  0  0  0  0  0
    2.2930    0.0875    1.9537 H   0  0  0  0  0  0  0  0  0  0  0  0
    4.7304    1.6901    2.5491 H   0  0  0  0  0  0  0  0  0  0  0  0
    3.2617    2.1014    1.6116 H   0  0  0  0  0  0  0  0  0  0  0  0
    2.9344   -0.9544   -3.8819 H   0  0  0  0  0  0  0  0  0  0  0  0
    5.2854   -0.4387   -3.6319 H   0  0  0  0  0  0  0  0  0  0  0  0
    0.3267   -0.0277   -0.1099 H   0  0  0  0  0  0  0  0  0  0  0  0
   -1.2769   -1.8914   -1.8813 H   0  0  0  0  0  0  0  0  0  0  0  0
   -1.5660   -0.2108   -2.3673 H   0  0  0  0  0  0  0  0  0  0  0  0
   -2.3651   -2.7390    0.0018 H   0  0  0  0  0  0  0  0  0  0  0  0
   -6.1585   -2.4878    2.4010 H   0  0  0  0  0  0  0  0  0  0  0  0
   -4.9463   -2.0235    3.6519 H   0  0  0  0  0  0  0  0  0  0  0  0
   -5.2550   -3.7871    3.2053 H   0  0  0  0  0  0  0  0  0  0  0  0
   -5.1168   -0.2590    2.2315 H   0  0  0  0  0  0  0  0  0  0  0  0
   -4.2764    1.6937    0.9808 H   0  0  0  0  0  0  0  0  0  0  0  0
   -2.8487    3.0837    0.4747 H   0  0  0  0  0  0  0  0  0  0  0  0
   -4.0235    2.9739   -0.8697 H   0  0  0  0  0  0  0  0  0  0  0  0
   -2.4638    3.7620   -1.1858 H   0  0  0  0  0  0  0  0  0  0  0  0
  1  2  1  0
  2  3  1  0
  3  4  1  0
  4  5  2  0
  5  6  1  0
  6  7  2  0
  7  8  1  0
  8  9  2  0
  9 10  1  0
 10 11  3  0
  6 12  1  0
 12 13  2  0
 12 14  1  0
 14 15  1  0
 15 16  1  0
 16 17  2  0
 17 18  1  0
 18 19  1  0
 19 20  1  0
 18 21  2  0
 21 22  1  0
 22 23  2  0
 23 24  1  0
 24 25  1  0
  9  4  1  0
 23 16  1  0
  1 26  1  0
  1 27  1  0
  1 28  1  0
  2 29  1  0
  2 30  1  0
  7 31  1  0
  8 32  1  0
 14 33  1  0
 15 34  1  0
 15 35  1  0
 17 36  1  0
 20 37  1  0
 20 38  1  0
 20 39  1  0
 21 40  1  0
 22 41  1  0
 25 42  1  0
 25 43  1  0
 25 44  1  0
M  END
$$$$
