
     RDKit          3D

 46 49  0  0  0  0  0  0  0  0999 V2000
   -2.9580   -1.2685   -2.4414 C   0  0  0  0  0  0  0  0  0  0  0  0
   -2.3370   -0.6792   -1.2660 N   0  0  0  0  0  0  0  0  0  0  0  0
   -3.1635   -0.2255   -0.2021 C   0  0  0  0  0  0  0  0  0  0  0  0
   -3.0985   -0.7024    1.0534 N   0  0  0  0  0  0  0  0  0  0  0  0
   -3.8815   -0.2706    2.0533 C   0  0  0  0  0  0  0  0  0  0  0  0
   -4.7871    0.6944    1.7973 N   0  0  0  0  0  0  0  0  0  0  0  0
   -4.9289    1.2339    0.5783 C   0  0  0  0  0  0  0  0  0  0  0  0
   -5.7309    2.1829    0.0655 N   0  0  0  0  0  0  0  0  0  0  0  0
   -5.4586    2.3511   -1.2485 C   0  0  0  0  0  0  0  0  0  0  0  0
   -4.4450    1.4691   -1.5628 C   0  0  0  0  0  0  0  0  0  0  0  0
   -4.1055    0.7664   -0.4324 C   0  0  0  0  0  0  0  0  0  0  0  0
   -0.9124   -0.5861   -1.2427 C   0  0  1  0  0  0  0  0  0  0  0  0
   -0.2771    0.0202   -0.0365 C   0  0  0  0  0  0  0  0  0  0  0  0
    0.6618   -1.1604    0.0194 C   0  0  1  0  0  0  0  0  0  0  0  0
    0.8675   -1.7555    1.2875 N   0  0  0  0  0  0  0  0  0  0  0  0
    2.5465   -1.9865    1.5626 S   0  0  0  0  0  6  0  0  0  0  0  0
    2.7110   -2.7274    2.8666 O   0  0  0  0  0  0  0  0  0  0  0  0
    3.0619   -2.8946    0.4695 O   0  0  0  0  0  0  0  0  0  0  0  0
    3.3397   -0.4848    1.5652 N   0  0  0  0  0  0  0  0  0  0  0  0
    4.2918   -0.2544    0.5394 C   0  0  0  0  0  0  0  0  0  0  0  0
    4.8499    1.1578    0.7758 C   0  0  0  0  0  0  0  0  0  0  0  0
    5.8799    1.6830   -0.1517 C   0  0  0  0  0  0  0  0  0  0  0  0
    6.3053    1.1495    1.1820 C   0  0  0  0  0  0  0  0  0  0  0  0
   -0.3123   -1.9336   -0.8502 C   0  0  0  0  0  0  0  0  0  0  0  0
   -4.0443   -1.3866   -2.2927 H   0  0  0  0  0  0  0  0  0  0  0  0
   -2.5443   -2.2925   -2.6470 H   0  0  0  0  0  0  0  0  0  0  0  0
   -2.7539   -0.6114   -3.3284 H   0  0  0  0  0  0  0  0  0  0  0  0
   -3.7904   -0.6877    3.0502 H   0  0  0  0  0  0  0  0  0  0  0  0
   -6.4578    2.7261    0.5619 H   0  0  0  0  0  0  0  0  0  0  0  0
   -5.9139    3.0288   -1.9611 H   0  0  0  0  0  0  0  0  0  0  0  0
   -3.9631    1.3227   -2.5402 H   0  0  0  0  0  0  0  0  0  0  0  0
   -0.4777   -0.2827   -2.2181 H   0  0  0  0  0  0  0  0  0  0  0  0
    0.2790    0.9454   -0.3252 H   0  0  0  0  0  0  0  0  0  0  0  0
   -0.9010    0.1814    0.8388 H   0  0  0  0  0  0  0  0  0  0  0  0
    1.5941   -0.9820   -0.5281 H   0  0  0  0  0  0  0  0  0  0  0  0
    0.4889   -1.1596    2.0538 H   0  0  0  0  0  0  0  0  0  0  0  0
    2.6395    0.2747    1.6819 H   0  0  0  0  0  0  0  0  0  0  0  0
    3.8107   -0.2905   -0.4490 H   0  0  0  0  0  0  0  0  0  0  0  0
    5.1076   -1.0062    0.5092 H   0  0  0  0  0  0  0  0  0  0  0  0
    4.1428    1.8643    1.2282 H   0  0  0  0  0  0  0  0  0  0  0  0
    6.1527    1.1698   -1.0748 H   0  0  0  0  0  0  0  0  0  0  0  0
    5.9269    2.7932   -0.2345 H   0  0  0  0  0  0  0  0  0  0  0  0
    6.5467    1.8387    2.0128 H   0  0  0  0  0  0  0  0  0  0  0  0
    6.8720    0.2182    1.1743 H   0  0  0  0  0  0  0  0  0  0  0  0
    0.1532   -2.4844   -1.6661 H   0  0  0  0  0  0  0  0  0  0  0  0
   -0.9868   -2.5668   -0.2273 H   0  0  0  0  0  0  0  0  0  0  0  0
  1  2  1  0
  2  3  1  0
  3  4  2  0
  4  5  1  0
  5  6  2  0
  6  7  1  0
  7  8  1  0
  8  9  1  0
  9 10  2  0
 10 11  1  0
  2 12  1  0
 12 13  1  0
 13 14  1  0
 14 15  1  0
 15 16  1  0
 16 17  2  0
 16 18  2  0
 16 19  1  0
 19 20  1  0
 20 21  1  0
 21 22  1  0
 22 23  1  0
 14 24  1  0
 11  3  1  0
 24 12  1  0
 11  7  2  0
 23 21  1  0
  1 25  1  0
  1 26  1  0
  1 27  1  0
  5 28  1  0
  8 29  1  0
  9 30  1  0
 10 31  1  0
 12 32  1  6
 13 33  1  0
 13 34  1  0
 14 35  1  6
 15 36  1  0
 19 37  1  0
 20 38  1  0
 20 39  1  0
 21 40  1  0
 22 41  1  0
 22 42  1  0
 23 43  1  0
 23 44  1  0
 24 45  1  0
 24 46  1  0
M  END
$$$$
