@<TRIPOS>MOLECULE
*****
 46 49 0 0 0
SMALL
GASTEIGER

@<TRIPOS>ATOM
      1 C          -2.9580   -1.2685   -2.4414 C.3     1  UNL1        0.0023
      2 N          -2.3370   -0.6792   -1.2660 N.pl3   1  UNL1       -0.3145
      3 C          -3.1635   -0.2255   -0.2021 C.ar    1  UNL1        0.1337
      4 N          -3.0985   -0.7024    1.0534 N.ar    1  UNL1       -0.2200
      5 C          -3.8815   -0.2706    2.0533 C.ar    1  UNL1        0.1204
      6 N          -4.7871    0.6944    1.7973 N.ar    1  UNL1       -0.2178
      7 C          -4.9289    1.2339    0.5783 C.ar    1  UNL1        0.1432
      8 N          -5.7309    2.1829    0.0655 N.ar    1  UNL1       -0.3457
      9 C          -5.4586    2.3511   -1.2485 C.ar    1  UNL1        0.0042
     10 C          -4.4450    1.4691   -1.5628 C.ar    1  UNL1       -0.0318
     11 C          -4.1055    0.7664   -0.4324 C.ar    1  UNL1        0.0585
     12 C          -0.9124   -0.5861   -1.2427 C.3     1  UNL1        0.0275
     13 C          -0.2771    0.0202   -0.0365 C.3     1  UNL1       -0.0171
     14 C           0.6618   -1.1604    0.0194 C.3     1  UNL1        0.0332
     15 N           0.8675   -1.7555    1.2875 N.3     1  UNL1       -0.1768
     16 S           2.5465   -1.9865    1.5626 S.O2    1  UNL1        0.0948
     17 O           2.7110   -2.7274    2.8666 O.2     1  UNL1       -0.1413
     18 O           3.0619   -2.8946    0.4695 O.2     1  UNL1       -0.1413
     19 N           3.3397   -0.4848    1.5652 N.3     1  UNL1       -0.1797
     20 C           4.2918   -0.2544    0.5394 C.3     1  UNL1        0.0213
     21 C           4.8499    1.1578    0.7758 C.3     1  UNL1       -0.0268
     22 C           5.8799    1.6830   -0.1517 C.3     1  UNL1       -0.0487
     23 C           6.3053    1.1495    1.1820 C.3     1  UNL1       -0.0487
     24 C          -0.3123   -1.9336   -0.8502 C.3     1  UNL1       -0.0171
     25 H          -4.0443   -1.3866   -2.2927 H       1  UNL1        0.0428
     26 H          -2.5443   -2.2925   -2.6470 H       1  UNL1        0.0428
     27 H          -2.7539   -0.6114   -3.3284 H       1  UNL1        0.0428
     28 H          -3.7904   -0.6877    3.0502 H       1  UNL1        0.1048
     29 H          -6.4578    2.7261    0.5619 H       1  UNL1        0.1668
     30 H          -5.9139    3.0288   -1.9611 H       1  UNL1        0.0807
     31 H          -3.9631    1.3227   -2.5402 H       1  UNL1        0.0640
     32 H          -0.4777   -0.2827   -2.2181 H       1  UNL1        0.0501
     33 H           0.2790    0.9454   -0.3252 H       1  UNL1        0.0299
     34 H          -0.9010    0.1814    0.8388 H       1  UNL1        0.0299
     35 H           1.5941   -0.9820   -0.5281 H       1  UNL1        0.0479
     36 H           0.4889   -1.1596    2.0538 H       1  UNL1        0.1494
     37 H           2.6395    0.2747    1.6819 H       1  UNL1        0.1491
     38 H           3.8107   -0.2905   -0.4490 H       1  UNL1        0.0444
     39 H           5.1076   -1.0062    0.5092 H       1  UNL1        0.0444
     40 H           4.1428    1.8643    1.2282 H       1  UNL1        0.0314
     41 H           6.1527    1.1698   -1.0748 H       1  UNL1        0.0268
     42 H           5.9269    2.7932   -0.2345 H       1  UNL1        0.0268
     43 H           6.5467    1.8387    2.0128 H       1  UNL1        0.0268
     44 H           6.8720    0.2182    1.1743 H       1  UNL1        0.0268
     45 H           0.1532   -2.4844   -1.6661 H       1  UNL1        0.0299
     46 H          -0.9868   -2.5668   -0.2273 H       1  UNL1        0.0299
@<TRIPOS>BOND
     1     1     2    1
     2     2     3    1
     3     3     4   ar
     4     4     5   ar
     5     5     6   ar
     6     6     7   ar
     7     7     8   ar
     8     8     9   ar
     9     9    10   ar
    10    10    11   ar
    11     2    12    1
    12    12    13    1
    13    13    14    1
    14    14    15    1
    15    15    16    1
    16    16    17    2
    17    16    18    2
    18    16    19    1
    19    19    20    1
    20    20    21    1
    21    21    22    1
    22    22    23    1
    23    14    24    1
    24    11     3   ar
    25    24    12    1
    26    11     7   ar
    27    23    21    1
    28     1    25    1
    29     1    26    1
    30     1    27    1
    31     5    28    1
    32     8    29    1
    33     9    30    1
    34    10    31    1
    35    12    32    1
    36    13    33    1
    37    13    34    1
    38    14    35    1
    39    15    36    1
    40    19    37    1
    41    20    38    1
    42    20    39    1
    43    21    40    1
    44    22    41    1
    45    22    42    1
    46    23    43    1
    47    23    44    1
    48    24    45    1
    49    24    46    1
