
     RDKit          3D

 80 86  0  0  0  0  0  0  0  0999 V2000
   -5.5962   -2.0966   -2.3842 C   0  0  0  0  0  0  0  0  0  0  0  0
   -6.3617   -2.7498   -1.3256 C   0  0  0  0  0  0  0  0  0  0  0  0
   -7.6089   -3.2810   -1.6391 C   0  0  0  0  0  0  0  0  0  0  0  0
   -8.3365   -3.9460   -0.6958 C   0  0  0  0  0  0  0  0  0  0  0  0
   -7.8243   -4.0882    0.5751 C   0  0  0  0  0  0  0  0  0  0  0  0
   -6.6358   -3.5697    0.8384 N   0  0  0  0  0  0  0  0  0  0  0  0
   -5.8704   -2.8937   -0.0753 C   0  0  0  0  0  0  0  0  0  0  0  0
   -4.6071   -2.3301    0.3913 C   0  0  0  0  0  0  0  0  0  0  0  0
   -4.7269   -1.0333    0.8720 N   0  0  0  0  0  0  0  0  0  0  0  0
   -5.2751    0.0396    0.1756 C   0  0  0  0  0  0  0  0  0  0  0  0
   -4.1681    0.8536   -0.4891 C   0  0  0  0  0  0  0  0  0  0  0  0
   -3.1597    1.2834    0.5281 C   0  0  0  0  0  0  0  0  0  0  0  0
   -3.6035    0.8804    1.9163 C   0  0  0  0  0  0  0  0  0  0  0  0
   -3.8612   -0.6185    1.9396 C   0  0  0  0  0  0  0  0  0  0  0  0
   -1.8970    0.5457    0.2553 C   0  0  0  0  0  0  0  0  0  0  0  0
   -1.8016   -0.6818    0.0484 O   0  0  0  0  0  0  0  0  0  0  0  0
   -0.8001    1.4248    0.2597 N   0  0  0  0  0  0  0  0  0  0  0  0
    0.5727    1.0816    0.1572 C   0  0  0  0  0  0  0  0  0  0  0  0
    1.3073    0.8295    1.2949 C   0  0  0  0  0  0  0  0  0  0  0  0
    2.6483    0.4959    1.2037 C   0  0  0  0  0  0  0  0  0  0  0  0
    3.2340    0.4199   -0.0330 C   0  0  0  0  0  0  0  0  0  0  0  0
    4.6410    0.0742   -0.1402 C   0  0  0  0  0  0  0  0  0  0  0  0
    5.0877   -0.6158   -1.2453 C   0  0  0  0  0  0  0  0  0  0  0  0
    6.4392   -0.9512   -1.3595 C   0  0  0  0  0  0  0  0  0  0  0  0
    7.3782   -0.6257   -0.4089 C   0  0  0  0  0  0  0  0  0  0  0  0
    8.7524   -0.9795   -0.5179 N   0  0  0  0  0  0  0  0  0  0  0  0
    9.8209   -0.3421    0.2083 C   0  0  0  0  0  0  0  0  0  0  0  0
   10.7020   -1.4055    0.8513 C   0  0  0  0  0  0  0  0  0  0  0  0
   11.1205   -2.3060   -0.1316 O   0  0  0  0  0  0  0  0  0  0  0  0
   10.0071   -3.0146   -0.5594 C   0  0  0  0  0  0  0  0  0  0  0  0
    9.1432   -2.0669   -1.4066 C   0  0  0  0  0  0  0  0  0  0  0  0
    6.9098    0.0718    0.7018 C   0  0  0  0  0  0  0  0  0  0  0  0
    5.5639    0.4125    0.8274 C   0  0  0  0  0  0  0  0  0  0  0  0
    2.5203    0.6668   -1.1757 C   0  0  0  0  0  0  0  0  0  0  0  0
    1.1807    0.9999   -1.0802 C   0  0  0  0  0  0  0  0  0  0  0  0
   -1.3252    2.7252    0.3867 C   0  0  0  0  0  0  0  0  0  0  0  0
   -0.6014    3.7554    0.4235 O   0  0  0  0  0  0  0  0  0  0  0  0
   -2.7696    2.6603    0.4627 N   0  0  0  0  0  0  0  0  0  0  0  0
   -3.5301    3.8597    0.4625 C   0  0  0  0  0  0  0  0  0  0  0  0
   -4.9042    3.8795    0.5565 C   0  0  0  0  0  0  0  0  0  0  0  0
   -5.6248    5.0675    0.5521 C   0  0  0  0  0  0  0  0  0  0  0  0
   -6.8757    5.0801    0.6381 O   0  0  0  0  0  0  0  0  0  0  0  0
   -4.9882    6.2306    0.4552 N   0  0  0  0  0  0  0  0  0  0  0  0
   -3.6392    6.2354    0.3618 C   0  0  0  0  0  0  0  0  0  0  0  0
   -2.9447    5.0897    0.3660 N   0  0  0  0  0  0  0  0  0  0  0  0
   -4.5547   -1.8804   -2.1319 H   0  0  0  0  0  0  0  0  0  0  0  0
   -6.0905   -1.1390   -2.6459 H   0  0  0  0  0  0  0  0  0  0  0  0
   -5.6877   -2.7166   -3.3156 H   0  0  0  0  0  0  0  0  0  0  0  0
   -7.9636   -3.1415   -2.6507 H   0  0  0  0  0  0  0  0  0  0  0  0
   -9.2954   -4.3642   -0.9036 H   0  0  0  0  0  0  0  0  0  0  0  0
   -8.3685   -4.6101    1.3522 H   0  0  0  0  0  0  0  0  0  0  0  0
   -4.2596   -2.9815    1.2610 H   0  0  0  0  0  0  0  0  0  0  0  0
   -3.7757   -2.4885   -0.3501 H   0  0  0  0  0  0  0  0  0  0  0  0
   -5.7589    0.7095    0.9895 H   0  0  0  0  0  0  0  0  0  0  0  0
   -6.1225   -0.1668   -0.4759 H   0  0  0  0  0  0  0  0  0  0  0  0
   -3.6995    0.1482   -1.2291 H   0  0  0  0  0  0  0  0  0  0  0  0
   -4.5638    1.6781   -1.1152 H   0  0  0  0  0  0  0  0  0  0  0  0
   -4.4233    1.4771    2.3147 H   0  0  0  0  0  0  0  0  0  0  0  0
   -2.7438    1.0365    2.6303 H   0  0  0  0  0  0  0  0  0  0  0  0
   -4.4325   -0.8544    2.8897 H   0  0  0  0  0  0  0  0  0  0  0  0
   -2.9168   -1.1517    2.0247 H   0  0  0  0  0  0  0  0  0  0  0  0
    0.8413    0.8908    2.2669 H   0  0  0  0  0  0  0  0  0  0  0  0
    3.2316    0.2967    2.0864 H   0  0  0  0  0  0  0  0  0  0  0  0
    4.3906   -0.9022   -2.0312 H   0  0  0  0  0  0  0  0  0  0  0  0
    6.7697   -1.4863   -2.2374 H   0  0  0  0  0  0  0  0  0  0  0  0
   10.4929    0.1620   -0.5431 H   0  0  0  0  0  0  0  0  0  0  0  0
    9.4991    0.3766    0.9697 H   0  0  0  0  0  0  0  0  0  0  0  0
   11.5863   -0.9350    1.3197 H   0  0  0  0  0  0  0  0  0  0  0  0
   10.1609   -1.9420    1.6575 H   0  0  0  0  0  0  0  0  0  0  0  0
   10.2741   -3.8832   -1.1902 H   0  0  0  0  0  0  0  0  0  0  0  0
    9.3659   -3.2964    0.3048 H   0  0  0  0  0  0  0  0  0  0  0  0
    9.7380   -1.6766   -2.2739 H   0  0  0  0  0  0  0  0  0  0  0  0
    8.2980   -2.6487   -1.7982 H   0  0  0  0  0  0  0  0  0  0  0  0
    7.5827    0.3590    1.4907 H   0  0  0  0  0  0  0  0  0  0  0  0
    5.1932    0.9562    1.6902 H   0  0  0  0  0  0  0  0  0  0  0  0
    3.0158    0.5966   -2.1262 H   0  0  0  0  0  0  0  0  0  0  0  0
    0.6021    1.1981   -1.9662 H   0  0  0  0  0  0  0  0  0  0  0  0
   -5.4829    2.9858    0.6398 H   0  0  0  0  0  0  0  0  0  0  0  0
   -5.4869    7.1456    0.4487 H   0  0  0  0  0  0  0  0  0  0  0  0
   -3.1078    7.1811    0.2823 H   0  0  0  0  0  0  0  0  0  0  0  0
  1  2  1  0
  2  3  2  0
  3  4  1  0
  4  5  2  0
  5  6  1  0
  6  7  2  0
  7  8  1  0
  8  9  1  0
  9 10  1  0
 10 11  1  0
 11 12  1  0
 12 13  1  0
 13 14  1  0
 12 15  1  0
 15 16  2  0
 15 17  1  0
 17 18  1  0
 18 19  2  0
 19 20  1  0
 20 21  2  0
 21 22  1  0
 22 23  2  0
 23 24  1  0
 24 25  2  0
 25 26  1  0
 26 27  1  0
 27 28  1  0
 28 29  1  0
 29 30  1  0
 30 31  1  0
 25 32  1  0
 32 33  2  0
 21 34  1  0
 34 35  2  0
 17 36  1  0
 36 37  2  0
 36 38  1  0
 38 39  1  0
 39 40  2  0
 40 41  1  0
 41 42  2  0
 41 43  1  0
 43 44  1  0
 44 45  2  0
  7  2  1  0
 14  9  1  0
 35 18  1  0
 45 39  1  0
 38 12  1  0
 33 22  1  0
 31 26  1  0
  1 46  1  0
  1 47  1  0
  1 48  1  0
  3 49  1  0
  4 50  1  0
  5 51  1  0
  8 52  1  0
  8 53  1  0
 10 54  1  0
 10 55  1  0
 11 56  1  0
 11 57  1  0
 13 58  1  0
 13 59  1  0
 14 60  1  0
 14 61  1  0
 19 62  1  0
 20 63  1  0
 23 64  1  0
 24 65  1  0
 27 66  1  0
 27 67  1  0
 28 68  1  0
 28 69  1  0
 30 70  1  0
 30 71  1  0
 31 72  1  0
 31 73  1  0
 32 74  1  0
 33 75  1  0
 34 76  1  0
 35 77  1  0
 40 78  1  0
 43 79  1  0
 44 80  1  0
M  END
$$$$
